REMARK  Name = ZINC04236784
REMARK  16 active torsions:
REMARK  status: ('A' for Active; 'I' for Inactive)
REMARK    1  A    between atoms: C_1  and  C_2
REMARK    2  A    between atoms: C_5  and  O_28
REMARK    3  A    between atoms: C_7  and  C_25
REMARK    4  A    between atoms: C_7  and  C_26
REMARK    5  A    between atoms: C_12  and  O_24
REMARK    6  A    between atoms: C_14  and  C_16
REMARK    7  A    between atoms: C_16  and  C_17
REMARK    8  A    between atoms: C_26  and  O_27
REMARK    9  A    between atoms: O_28  and  C_29
REMARK   10  A    between atoms: N_31  and  C_32
REMARK   11  A    between atoms: C_34  and  O_42
REMARK   12  A    between atoms: C_35  and  O_40
REMARK   13  A    between atoms: C_36  and  O_38
REMARK   14  A    between atoms: O_38  and  C_39
REMARK   15  A    between atoms: O_40  and  C_41
REMARK   16  A    between atoms: O_42  and  C_43
REMARK                            x       y       z     vdW  Elec       q    Type
REMARK                         _______ _______ _______ _____ _____    ______ ____
ROOT
ATOM      1  C   UNL     1      -3.916  -2.673  -1.339  0.00  0.00    +0.012 C 
ATOM      2  C   UNL     1      -2.948  -2.780  -0.159  0.00  0.00    -0.023 C 
ATOM      3  C   UNL     1      -3.737  -2.757   1.152  0.00  0.00    +0.011 C 
ATOM      4  C   UNL     1      -4.710  -3.937   1.182  0.00  0.00    +0.046 C 
ATOM      5  C   UNL     1      -3.927  -5.247   1.082  0.00  0.00    +0.186 C 
ATOM      6  C   UNL     1      -3.138  -5.270  -0.229  0.00  0.00    +0.031 C 
ATOM      7  C   UNL     1      -2.164  -4.090  -0.259  0.00  0.00    +0.007 C 
ATOM      8  C   UNL     1      -1.376  -4.114  -1.570  0.00  0.00    +0.007 C 
ATOM      9  C   UNL     1      -0.402  -2.934  -1.601  0.00  0.00    +0.032 C 
ATOM     10  C   UNL     1      -1.186  -1.624  -1.501  0.00  0.00    +0.119 C 
ATOM     11  C   UNL     1      -1.974  -1.600  -0.190  0.00  0.00    +0.032 C 
ATOM     12  C   UNL     1      -2.355  -6.581  -0.329  0.00  0.00    +0.017 C 
ENDROOT
BRANCH  10  13
ATOM     13  O   UNL     1      -2.090  -1.524  -2.603  0.00  0.00    -0.391 OA
ATOM     14  H   UNL     1      -1.658  -1.533  -3.468  0.00  0.00    +0.210 HD
ENDBRANCH  10  13
BRANCH  11  15
ATOM     15  C   UNL     1      -2.758  -0.290  -0.090  0.00  0.00    +0.102 C 
BRANCH  15  16
ATOM     16  C   UNL     1      -1.795   0.865   0.004  0.00  0.00    +0.216 C 
ATOM     17  O   UNL     1      -0.599   0.661  -0.008  0.00  0.00    -0.276 OA
ATOM     18  N   UNL     1      -2.262   2.126   0.101  0.00  0.00    -0.301 N 
ATOM     19  C   UNL     1      -3.679   2.515   0.121  0.00  0.00    +0.108 C 
ATOM     20  C   UNL     1      -3.730   4.055   0.219  0.00  0.00    +0.020 C 
ATOM     21  C   UNL     1      -2.343   4.482  -0.329  0.00  0.00    +0.020 C 
ATOM     22  C   UNL     1      -1.436   3.343   0.199  0.00  0.00    +0.108 C 
ENDBRANCH  15  16
ENDBRANCH  11  15
BRANCH   6  23
ATOM     23  C   UNL     1      -4.106  -5.163  -1.409  0.00  0.00    +0.166 C 
BRANCH  23  24
ATOM     24  O   UNL     1      -4.881  -6.361  -1.499  0.00  0.00    -0.394 OA
ATOM     25  H   UNL     1      -5.518  -6.363  -2.226  0.00  0.00    +0.209 HD
ENDBRANCH  23  24
ENDBRANCH   6  23
BRANCH   5  26
ATOM     26  O   UNL     1      -4.851  -6.367   1.111  0.00  0.00    -0.446 OA
BRANCH  26  27
ATOM     27  C   UNL     1      -5.154  -6.878   2.319  0.00  0.00    +0.405 C 
ATOM     28  O   UNL     1      -4.659  -6.402   3.322  0.00  0.00    -0.226 OA
ATOM     29  N   UNL     1      -6.005  -7.918   2.417  0.00  0.00    -0.251 N 
ATOM     30  H   UNL     1      -6.346  -8.343   1.614  0.00  0.00    +0.158 HD
BRANCH  29  31
ATOM     31  C   UNL     1      -6.398  -8.387   3.678  0.00  0.00    +0.044 A 
ATOM     32  C   UNL     1      -5.497  -8.376   4.733  0.00  0.00    +0.073 A 
ATOM     33  C   UNL     1      -5.886  -8.835   5.982  0.00  0.00    +0.167 A 
ATOM     34  C   UNL     1      -7.176  -9.314   6.174  0.00  0.00    +0.204 A 
ATOM     35  C   UNL     1      -8.076  -9.329   5.116  0.00  0.00    +0.167 A 
ATOM     36  C   UNL     1      -7.686  -8.866   3.869  0.00  0.00    +0.073 A 
BRANCH  35  37
ATOM     37  O   UNL     1      -9.338  -9.799   5.303  0.00  0.00    -0.491 OA
ATOM     38  C   UNL     1     -10.210  -9.785   4.171  0.00  0.00    +0.277 C 
ENDBRANCH  35  37
BRANCH  34  39
ATOM     39  O   UNL     1      -7.558  -9.770   7.400  0.00  0.00    -0.488 OA
ATOM     40  C   UNL     1      -7.351 -11.158   7.669  0.00  0.00    +0.277 C 
ENDBRANCH  34  39
BRANCH  33  41
ATOM     41  O   UNL     1      -5.004  -8.819   7.017  0.00  0.00    -0.491 OA
ATOM     42  C   UNL     1      -3.696  -8.313   6.747  0.00  0.00    +0.277 C 
ENDBRANCH  33  41
ENDBRANCH  29  31
ENDBRANCH  26  27
ENDBRANCH   5  26
TORSDOF 11
