REMARK  Name = ZINC55590148
REMARK  5 active torsions:
REMARK  status: ('A' for Active; 'I' for Inactive)
REMARK    1  A    between atoms: C_3  and  S_13
REMARK    2  A    between atoms: C_6  and  C_7
REMARK    3  A    between atoms: S_13  and  N_16
REMARK    4  A    between atoms: N_16  and  N_17
REMARK    5  A    between atoms: C_18  and  C_20
REMARK                            x       y       z     vdW  Elec       q    Type
REMARK                         _______ _______ _______ _____ _____    ______ ____
ROOT
ATOM      1  S   UNL     1       3.891   2.312  -0.024  0.00  0.00    +0.074 S 
ATOM      2  O   UNL     1       4.872   1.453  -0.588  0.00  0.00    -0.152 OA
ATOM      3  O   UNL     1       3.597   3.593  -0.566  0.00  0.00    -0.152 OA
ENDROOT
BRANCH   1   6
ATOM      4  C   UNL     1      -0.017   1.378   0.010  0.00  0.00    +0.006 A 
ATOM      5  C   UNL     1       1.171   2.086   0.002  0.00  0.00    +0.029 A 
ATOM      6  C   UNL     1       2.377   1.411  -0.013  0.00  0.00    +0.107 A 
ATOM      7  C   UNL     1       2.396   0.029  -0.020  0.00  0.00    +0.029 A 
ATOM      8  C   UNL     1       1.208  -0.679  -0.012  0.00  0.00    +0.006 A 
ATOM      9  C   UNL     1       0.002  -0.004   0.002  0.00  0.00    -0.044 A 
BRANCH   9  10
ATOM     10  C   UNL     1      -1.293  -0.775   0.011  0.00  0.00    +0.019 C 
ATOM     11  C   UNL     1      -1.374  -1.649  -1.242  0.00  0.00    +0.008 C 
ATOM     12  C   UNL     1      -2.688  -2.432  -1.234  0.00  0.00    +0.001 C 
ATOM     13  C   UNL     1      -2.745  -3.320   0.011  0.00  0.00    +0.000 C 
ATOM     14  C   UNL     1      -2.664  -2.446   1.265  0.00  0.00    +0.001 C 
ATOM     15  C   UNL     1      -1.349  -1.663   1.256  0.00  0.00    +0.008 C 
ENDBRANCH   9  10
ENDBRANCH   1   6
BRANCH   1  16
ATOM     16  N   UNL     1       4.327   2.556   1.555  0.00  0.00    -0.108 NA
ATOM     17  H   UNL     1       4.426   3.458   1.897  0.00  0.00    +0.172 HD
BRANCH  16  18
ATOM     18  N   UNL     1       4.553   1.458   2.396  0.00  0.00    -0.230 N 
ATOM     19  C   UNL     1       5.725   1.342   3.052  0.00  0.00    +0.257 C 
ATOM     20  O   UNL     1       6.584   2.187   2.914  0.00  0.00    -0.272 OA
ATOM     21  H   UNL     1       3.867   0.782   2.507  0.00  0.00    +0.171 HD
BRANCH  19  22
ATOM     22  C   UNL     1       5.968   0.162   3.957  0.00  0.00    +0.205 C 
ATOM     23  C   UNL     1       4.997   0.212   5.155  0.00  0.00    +0.043 C 
ATOM     24  C   UNL     1       5.898  -0.259   6.330  0.00  0.00    +0.031 C 
ATOM     25  C   UNL     1       7.265   0.336   5.909  0.00  0.00    +0.161 C 
ATOM     26  O   UNL     1       7.302   0.214   4.476  0.00  0.00    -0.367 OA
ENDBRANCH  19  22
ENDBRANCH  16  18
ENDBRANCH   1  16
TORSDOF 5
