REMARK  Name = ZINC16735428
REMARK  4 active torsions:
REMARK  status: ('A' for Active; 'I' for Inactive)
REMARK    1  A    between atoms: C_1  and  C_2
REMARK    2  A    between atoms: C_5  and  C_8
REMARK    3  A    between atoms: C_9  and  C_10
REMARK    4  A    between atoms: C_18  and  C_19
REMARK                            x       y       z     vdW  Elec       q    Type
REMARK                         _______ _______ _______ _____ _____    ______ ____
ROOT
ATOM      1  C   UNL     1      -0.271  -0.134  -1.337  0.00  0.00    +0.176 A 
ATOM      2  N   UNL     1       0.855  -0.868  -1.354  0.00  0.00    -0.201 NA
ATOM      3  C   UNL     1       0.570  -2.098  -1.035  0.00  0.00    +0.200 A 
ATOM      4  N   UNL     1      -0.771  -2.215  -0.794  0.00  0.00    -0.169 N 
ATOM      5  N   UNL     1      -1.280  -0.903  -0.998  0.00  0.00    -0.142 NA
ATOM      6  C   UNL     1      -1.265  -3.412  -0.449  0.00  0.00    +0.288 A 
ATOM      7  O   UNL     1      -2.452  -3.562  -0.226  0.00  0.00    -0.265 OA
ATOM      8  C   UNL     1      -0.323  -4.538  -0.350  0.00  0.00    +0.082 A 
ATOM      9  C   UNL     1      -0.558  -5.834  -0.024  0.00  0.00    +0.028 C 
ATOM     10  S   UNL     1       1.215  -3.734  -0.775  0.00  0.00    -0.044 S 
ENDROOT
BRANCH   9  11
ATOM     11  C   UNL     1       0.515  -6.830  -0.150  0.00  0.00    -0.023 A 
ATOM     12  C   UNL     1       1.721  -6.490  -0.775  0.00  0.00    +0.008 A 
ATOM     13  C   UNL     1       2.724  -7.428  -0.886  0.00  0.00    +0.002 A 
ATOM     14  C   UNL     1       2.540  -8.707  -0.390  0.00  0.00    +0.015 A 
ATOM     15  C   UNL     1       1.348  -9.054   0.226  0.00  0.00    +0.018 A 
ATOM     16  C   UNL     1       0.336  -8.125   0.349  0.00  0.00    +0.023 A 
ATOM     17 BR   UNL     1       1.109 -10.805   0.899  0.00  0.00    -0.050 Br
ENDBRANCH   9  11
BRANCH   1  19
ATOM     18  C   UNL     1       0.750   1.990  -1.973  0.00  0.00    +0.011 C 
ATOM     19  C   UNL     1      -0.358   1.305  -1.643  0.00  0.00    +0.050 C 
BRANCH  18  24
ATOM     20  C   UNL     1       0.410   7.605  -3.167  0.00  0.00    +0.044 C 
ATOM     21  C   UNL     1       0.499   6.133  -2.854  0.00  0.00    -0.050 A 
ATOM     22  C   UNL     1       1.724   5.490  -2.908  0.00  0.00    +0.004 A 
ATOM     23  C   UNL     1       1.813   4.144  -2.623  0.00  0.00    +0.008 A 
ATOM     24  C   UNL     1       0.663   3.429  -2.279  0.00  0.00    -0.025 A 
ATOM     25  C   UNL     1      -0.571   4.083  -2.232  0.00  0.00    +0.008 A 
ATOM     26  C   UNL     1      -0.644   5.431  -2.514  0.00  0.00    +0.004 A 
ENDBRANCH  18  24
ENDBRANCH   1  19
TORSDOF 3
