REMARK  Name = ZINC65170462
REMARK  9 active torsions:
REMARK  status: ('A' for Active; 'I' for Inactive)
REMARK    1  A    between atoms: C_1  and  C_2
REMARK    2  A    between atoms: C_5  and  C_8
REMARK    3  A    between atoms: C_8  and  C_26
REMARK    4  A    between atoms: N_11  and  C_15
REMARK    5  A    between atoms: C_15  and  C_16
REMARK    6  A    between atoms: C_16  and  C_17
REMARK    7  A    between atoms: C_16  and  O_25
REMARK    8  A    between atoms: C_17  and  N_18
REMARK    9  A    between atoms: C_21  and  C_24
REMARK                            x       y       z     vdW  Elec       q    Type
REMARK                         _______ _______ _______ _____ _____    ______ ____
ROOT
ATOM      1  C   UNL     1       0.059  -4.275  -0.021  0.00  0.00    +0.135 C 
ATOM      2  C   UNL     1       0.874  -4.805   1.142  0.00  0.00    +0.251 C 
ATOM      3  O   UNL     1       0.656  -4.640   2.324  0.00  0.00    -0.272 OA
ATOM      4  N   UNL     1       1.890  -5.497   0.591  0.00  0.00    -0.222 N 
ATOM      5  C   UNL     1       1.832  -5.479  -0.746  0.00  0.00    +0.310 C 
ATOM      6  O   UNL     1       2.639  -6.033  -1.465  0.00  0.00    -0.252 OA
ATOM      7  N   UNL     1       0.779  -4.778  -1.205  0.00  0.00    -0.281 N 
ATOM      8  C   UNL     1      -1.366  -4.831   0.018  0.00  0.00    +0.047 C 
ATOM      9  H   UNL     1       0.540  -4.632  -2.133  0.00  0.00    +0.152 HD
ENDROOT
BRANCH   1  14
ATOM     10  C   UNL     1      -0.018   1.503   0.010  0.00  0.00    +0.044 C 
ATOM     11  C   UNL     1       0.002  -0.004   0.002  0.00  0.00    -0.050 A 
ATOM     12  C   UNL     1       0.006  -0.689  -1.199  0.00  0.00    +0.004 A 
ATOM     13  C   UNL     1       0.025  -2.071  -1.206  0.00  0.00    +0.006 A 
ATOM     14  C   UNL     1       0.040  -2.768  -0.013  0.00  0.00    -0.015 A 
ATOM     15  C   UNL     1       0.037  -2.084   1.188  0.00  0.00    +0.006 A 
ATOM     16  C   UNL     1       0.023  -0.702   1.195  0.00  0.00    +0.004 A 
ENDBRANCH   1  14
BRANCH   4  17
ATOM     17  C   UNL     1       2.931  -6.184   1.360  0.00  0.00    +0.147 C 
BRANCH  17  18
ATOM     18  C   UNL     1       2.489  -7.620   1.647  0.00  0.00    +0.116 C 
BRANCH  18  19
ATOM     19  O   UNL     1       2.388  -8.342   0.418  0.00  0.00    -0.392 OA
ATOM     20  H   UNL     1       3.217  -8.392  -0.077  0.00  0.00    +0.210 HD
ENDBRANCH  18  19
BRANCH  18  21
ATOM     21  C   UNL     1       3.517  -8.298   2.555  0.00  0.00    -0.046 C 
BRANCH  21  22
ATOM     22  N   UNL     1       3.092  -9.677   2.831  0.00  0.00    +0.381 N 
ATOM     23  C   UNL     1       1.840  -9.658   3.595  0.00  0.00    -0.078 C 
ATOM     24  C   UNL     1       1.351 -11.091   3.816  0.00  0.00    -0.016 C 
ATOM     25  C   UNL     1       2.413 -11.874   4.593  0.00  0.00    -0.018 C 
ATOM     26  C   UNL     1       3.735 -11.824   3.822  0.00  0.00    -0.016 C 
ATOM     27  C   UNL     1       4.136 -10.364   3.601  0.00  0.00    -0.078 C 
ATOM     28  C   UNL     1       1.965 -13.328   4.748  0.00  0.00    +0.007 C 
ATOM     29  H   UNL     1       2.945 -10.163   1.959  0.00  0.00    -0.082 HD
ENDBRANCH  21  22
ENDBRANCH  18  21
ENDBRANCH  17  18
ENDBRANCH   4  17
TORSDOF 6
