REMARK  Name = ZINC58367217
REMARK  9 active torsions:
REMARK  status: ('A' for Active; 'I' for Inactive)
REMARK    1  A    between atoms: C_1  and  C_2
REMARK    2  A    between atoms: C_5  and  C_8
REMARK    3  A    between atoms: C_8  and  N_9
REMARK    4  A    between atoms: C_11  and  C_15
REMARK    5  A    between atoms: C_12  and  C_14
REMARK    6  A    between atoms: C_16  and  C_17
REMARK    7  A    between atoms: N_19  and  C_20
REMARK    8  A    between atoms: C_21  and  C_27
REMARK    9  A    between atoms: C_25  and  C_26
REMARK                            x       y       z     vdW  Elec       q    Type
REMARK                         _______ _______ _______ _____ _____    ______ ____
ROOT
ATOM      1  N   UNL     1       1.278  -5.128   0.027  0.00  0.00    -0.248 N 
ATOM      2  C   UNL     1       2.296  -5.251  -0.844  0.00  0.00    +0.135 A 
ATOM      3  C   UNL     1       2.876  -6.490  -0.629  0.00  0.00    +0.034 A 
ATOM      4  C   UNL     1       2.155  -7.110   0.419  0.00  0.00    +0.069 A 
ATOM      5  N   UNL     1       1.215  -6.291   0.802  0.00  0.00    -0.174 NA
ATOM      6  C   UNL     1       2.428  -8.476   0.995  0.00  0.00    +0.068 C 
ATOM      7 CL   UNL     1       2.791  -4.074  -2.021  0.00  0.00    -0.062 Cl
ENDROOT
BRANCH   3   8
ATOM      8  C   UNL     1       4.023  -7.055  -1.351  0.00  0.00    +0.018 C 
ATOM      9  C   UNL     1       4.035  -7.056  -2.703  0.00  0.00    +0.068 C 
BRANCH   9  10
ATOM     10  C   UNL     1       5.142  -7.601  -3.401  0.00  0.00    +0.241 C 
ATOM     11  O   UNL     1       6.082  -8.068  -2.782  0.00  0.00    -0.270 OA
ATOM     12  N   UNL     1       5.155  -7.602  -4.748  0.00  0.00    -0.279 N 
ATOM     13  H   UNL     1       4.378  -7.294  -5.241  0.00  0.00    +0.155 HD
BRANCH  12  14
ATOM     14  C   UNL     1       6.295  -8.050  -5.441  0.00  0.00    +0.077 A 
ATOM     15  C   UNL     1       6.343  -9.086  -6.317  0.00  0.00    +0.054 A 
ATOM     16  N   UNL     1       7.622  -9.188  -6.761  0.00  0.00    -0.280 N 
ATOM     17  H   UNL     1       7.955  -9.840  -7.398  0.00  0.00    +0.189 HD
ATOM     18  N   UNL     1       8.376  -8.185  -6.138  0.00  0.00    -0.177 NA
ATOM     19  C   UNL     1       7.583  -7.502  -5.353  0.00  0.00    +0.081 A 
ATOM     20  C   UNL     1       7.986  -6.328  -4.498  0.00  0.00    +0.069 C 
ATOM     21  C   UNL     1       5.187  -9.963  -6.723  0.00  0.00    +0.067 C 
ENDBRANCH  12  14
ENDBRANCH   9  10
ENDBRANCH   3   8
BRANCH   1  22
ATOM     22  C   UNL     1       0.390  -3.970   0.147  0.00  0.00    +0.180 C 
BRANCH  22  27
ATOM     23  C   UNL     1       2.619  -0.213   3.930  0.00  0.00    +0.044 C 
ATOM     24  C   UNL     1       2.038  -1.193   2.943  0.00  0.00    -0.050 A 
ATOM     25  C   UNL     1       2.362  -1.099   1.603  0.00  0.00    +0.004 A 
ATOM     26  C   UNL     1       1.829  -1.997   0.698  0.00  0.00    +0.006 A 
ATOM     27  C   UNL     1       0.972  -2.991   1.134  0.00  0.00    -0.026 A 
ATOM     28  C   UNL     1       0.649  -3.086   2.474  0.00  0.00    +0.006 A 
ATOM     29  C   UNL     1       1.185  -2.190   3.380  0.00  0.00    +0.004 A 
ENDBRANCH  22  27
ENDBRANCH   1  22
TORSDOF 5
