REMARK  Name = ZINC39706878
REMARK  6 active torsions:
REMARK  status: ('A' for Active; 'I' for Inactive)
REMARK    1  A    between atoms: C_1  and  O_2
REMARK    2  A    between atoms: O_2  and  C_3
REMARK    3  A    between atoms: C_5  and  C_10
REMARK    4  A    between atoms: C_8  and  O_9
REMARK    5  A    between atoms: C_11  and  C_12
REMARK    6  A    between atoms: C_11  and  C_14
REMARK                            x       y       z     vdW  Elec       q    Type
REMARK                         _______ _______ _______ _____ _____    ______ ____
ROOT
ATOM      1  C   UNL     1      -4.853   0.222   0.038  0.00  0.00    +0.026 C 
ATOM      2  C   UNL     1      -6.043  -0.409  -0.057  0.00  0.00    +0.072 C 
ENDROOT
BRANCH   2   3
ATOM      3  C   UNL     1      -7.314   0.393  -0.160  0.00  0.00    +0.217 C 
ATOM      4  N   UNL     1      -8.209   0.065   0.958  0.00  0.00    -0.358 N 
ATOM      5  C   UNL     1      -9.304  -0.417   0.451  0.00  0.00    +0.081 A 
ATOM      6  C   UNL     1     -10.553  -0.916   1.054  0.00  0.00    +0.045 A 
ATOM      7  C   UNL     1     -11.522  -1.360   0.218  0.00  0.00    +0.038 A 
ATOM      8  C   UNL     1     -11.336  -1.341  -1.178  0.00  0.00    +0.128 A 
ATOM      9  N   UNL     1     -10.251  -0.910  -1.751  0.00  0.00    -0.235 NA
ATOM     10  C   UNL     1      -9.200  -0.437  -1.033  0.00  0.00    +0.152 A 
ATOM     11  N   UNL     1      -8.036   0.038  -1.387  0.00  0.00    -0.344 N 
ATOM     12 BR   UNL     1     -13.146  -2.012   0.935  0.00  0.00    -0.049 Br
ATOM     13  H   UNL     1      -7.709   0.138  -2.295  0.00  0.00    +0.163 HD
ATOM     14  H   UNL     1      -8.018   0.186   1.901  0.00  0.00    +0.162 HD
ENDBRANCH   2   3
BRANCH   1  17
ATOM     15  C   UNL     1      -1.282  -0.922  -0.071  0.00  0.00    +0.162 A 
ATOM     16  C   UNL     1      -2.427  -0.193  -0.321  0.00  0.00    +0.057 A 
ATOM     17  C   UNL     1      -3.630  -0.552   0.298  0.00  0.00    -0.020 A 
ATOM     18  C   UNL     1      -3.665  -1.649   1.166  0.00  0.00    +0.012 A 
ATOM     19  C   UNL     1      -2.517  -2.371   1.409  0.00  0.00    +0.050 A 
ATOM     20  C   UNL     1      -1.326  -2.017   0.790  0.00  0.00    +0.158 A 
BRANCH  15  22
ATOM     21  C   UNL     1      -0.139   0.556  -1.542  0.00  0.00    +0.277 C 
ATOM     22  O   UNL     1      -0.111  -0.576  -0.672  0.00  0.00    -0.491 OA
ENDBRANCH  15  22
BRANCH  20  23
ATOM     23  O   UNL     1      -0.198  -2.737   1.030  0.00  0.00    -0.503 OA
ATOM     24  H   UNL     1       0.321  -2.417   1.780  0.00  0.00    +0.292 HD
ENDBRANCH  20  23
ENDBRANCH   1  17
BRANCH   2  25
ATOM     25  C   UNL     1      -6.096  -1.840  -0.059  0.00  0.00    +0.099 C 
ATOM     26  N   UNL     1      -6.139  -2.975  -0.061  0.00  0.00    -0.191 NA
ENDBRANCH   2  25
TORSDOF 5
