REMARK  Name = ZINC18331937
REMARK  6 active torsions:
REMARK  status: ('A' for Active; 'I' for Inactive)
REMARK    1  A    between atoms: C_1  and  C_2
REMARK    2  A    between atoms: C_4  and  S_12
REMARK    3  A    between atoms: S_12  and  C_13
REMARK    4  A    between atoms: C_13  and  C_15
REMARK    5  A    between atoms: C_13  and  C_16
REMARK    6  A    between atoms: C_22  and  C_27
REMARK                            x       y       z     vdW  Elec       q    Type
REMARK                         _______ _______ _______ _____ _____    ______ ____
ROOT
ATOM      1  C   UNL     1      -0.718   1.572   1.248  0.00  0.00    +0.124 A 
ATOM      2  N   UNL     1      -0.294   2.710   1.854  0.00  0.00    -0.309 N 
ATOM      3  H   UNL     1       0.459   3.196   1.481  0.00  0.00    +0.170 HD
ATOM      4  C   UNL     1      -0.896   3.178   2.963  0.00  0.00    +0.260 A 
ATOM      5  O   UNL     1      -0.503   4.202   3.496  0.00  0.00    -0.267 OA
ATOM      6  C   UNL     1      -2.005   2.456   3.507  0.00  0.00    +0.083 A 
ATOM      7  C   UNL     1      -2.813   2.755   4.684  0.00  0.00    +0.039 A 
ATOM      8  C   UNL     1      -3.827   1.913   5.009  0.00  0.00    +0.059 A 
ATOM      9  S   UNL     1      -3.748   0.664   3.741  0.00  0.00    -0.076 S 
ATOM     10  C   UNL     1      -2.373   1.292   2.813  0.00  0.00    +0.116 A 
ATOM     11  N   UNL     1      -1.731   0.894   1.718  0.00  0.00    -0.225 NA
ENDROOT
BRANCH   7  12
ATOM     12  C   UNL     1      -2.534   3.950   5.506  0.00  0.00    +0.136 A 
ATOM     13  C   UNL     1      -3.446   4.881   5.898  0.00  0.00    +0.050 A 
ATOM     14  C   UNL     1      -2.747   5.837   6.663  0.00  0.00    +0.042 A 
ATOM     15  C   UNL     1      -1.456   5.452   6.692  0.00  0.00    +0.196 A 
ATOM     16  O   UNL     1      -1.331   4.312   5.992  0.00  0.00    -0.463 OA
ENDBRANCH   7  12
BRANCH   1  17
ATOM     17  C   UNL     1      -0.013   1.086   0.008  0.00  0.00    +0.116 C 
ATOM     18  C   UNL     1      -0.753   1.593  -1.232  0.00  0.00    +0.027 C 
BRANCH  17  19
ATOM     19  S   UNL     1       1.685   1.712  -0.005  0.00  0.00    -0.095 S 
BRANCH  19  23
ATOM     20  C   UNL     1       5.551   0.689  -3.371  0.00  0.00    +0.044 C 
ATOM     21  C   UNL     1       4.125   0.476  -2.931  0.00  0.00    -0.039 A 
ATOM     22  C   UNL     1       3.634   1.104  -1.827  0.00  0.00    +0.038 A 
ATOM     23  C   UNL     1       2.303   0.892  -1.437  0.00  0.00    +0.099 A 
ATOM     24  N   UNL     1       1.506   0.090  -2.113  0.00  0.00    -0.240 NA
ATOM     25  C   UNL     1       1.932  -0.549  -3.209  0.00  0.00    +0.072 A 
ATOM     26  C   UNL     1       3.265  -0.376  -3.654  0.00  0.00    +0.003 A 
ATOM     27  C   UNL     1       3.707  -1.054  -4.801  0.00  0.00    +0.010 A 
ATOM     28  C   UNL     1       2.848  -1.870  -5.473  0.00  0.00    +0.001 A 
ATOM     29  C   UNL     1       1.536  -2.042  -5.037  0.00  0.00    +0.002 A 
ATOM     30  C   UNL     1       1.075  -1.399  -3.929  0.00  0.00    +0.028 A 
ENDBRANCH  19  23
ENDBRANCH  17  19
ENDBRANCH   1  17
TORSDOF 4
