REMARK  Name = ZINC09113009
REMARK  7 active torsions:
REMARK  status: ('A' for Active; 'I' for Inactive)
REMARK    1  A    between atoms: C_1  and  C_2
REMARK    2  A    between atoms: C_2  and  C_3
REMARK    3  A    between atoms: C_8  and  N_9
REMARK    4  A    between atoms: C_13  and  C_14
REMARK    5  A    between atoms: C_16  and  C_29
REMARK    6  A    between atoms: N_17  and  C_20
REMARK    7  A    between atoms: C_18  and  C_19
REMARK                            x       y       z     vdW  Elec       q    Type
REMARK                         _______ _______ _______ _____ _____    ______ ____
ROOT
ATOM      1  N   UNL     1       7.383   7.107  -0.978  0.00  0.00    -0.217 N 
ATOM      2  C   UNL     1       6.358   6.369  -0.504  0.00  0.00    +0.262 C 
ATOM      3  O   UNL     1       5.336   6.233  -1.149  0.00  0.00    -0.269 OA
ATOM      4  C   UNL     1       6.509   5.737   0.819  0.00  0.00    +0.100 C 
ATOM      5  C   UNL     1       5.497   4.969   1.373  0.00  0.00    +0.028 C 
ATOM      6  C   UNL     1       7.785   5.953   1.525  0.00  0.00    +0.255 C 
ATOM      7  O   UNL     1       7.986   5.460   2.620  0.00  0.00    -0.270 OA
ATOM      8  N   UNL     1       8.725   6.712   0.925  0.00  0.00    -0.263 N 
ATOM      9  C   UNL     1       8.517   7.261  -0.280  0.00  0.00    +0.150 C 
ATOM     10  S   UNL     1       9.767   8.210  -0.964  0.00  0.00    -0.018 S 
ATOM     11  H   UNL     1       9.570   6.864   1.376  0.00  0.00    +0.157 HD
ENDROOT
BRANCH   5  12
ATOM     12  C   UNL     1       4.220   4.937   0.765  0.00  0.00    -0.003 A 
ATOM     13  C   UNL     1       3.452   6.082   0.253  0.00  0.00    +0.031 A 
ATOM     14  C   UNL     1       2.305   5.583  -0.233  0.00  0.00    +0.022 A 
ATOM     15  N   UNL     1       2.297   4.225  -0.066  0.00  0.00    -0.317 N 
ATOM     16  C   UNL     1       3.431   3.819   0.534  0.00  0.00    +0.028 A 
ATOM     17  C   UNL     1       3.784   2.397   0.889  0.00  0.00    +0.064 C 
ATOM     18  C   UNL     1       1.200   6.390  -0.864  0.00  0.00    +0.064 C 
BRANCH  15  19
ATOM     19  C   UNL     1       1.252   3.377  -0.460  0.00  0.00    +0.050 A 
ATOM     20  C   UNL     1       1.461   2.433  -1.456  0.00  0.00    +0.030 A 
ATOM     21  C   UNL     1       0.432   1.597  -1.845  0.00  0.00    +0.051 A 
ATOM     22  C   UNL     1      -0.813   1.701  -1.245  0.00  0.00    +0.166 A 
ATOM     23  C   UNL     1      -1.024   2.643  -0.241  0.00  0.00    +0.168 A 
ATOM     24  C   UNL     1       0.008   3.481   0.147  0.00  0.00    +0.075 A 
ATOM     25  O   UNL     1      -2.316   2.542   0.187  0.00  0.00    -0.453 OA
ATOM     26  C   UNL     1      -2.773   1.255  -0.271  0.00  0.00    +0.466 C 
ATOM     27  O   UNL     1      -1.970   1.003  -1.439  0.00  0.00    -0.453 OA
ENDBRANCH  15  19
ENDBRANCH   5  12
BRANCH   1  33
ATOM     28  C   UNL     1       6.741   9.005  -2.329  0.00  0.00    -0.026 A 
ATOM     29  C   UNL     1       6.628   9.611  -3.565  0.00  0.00    +0.005 A 
ATOM     30  C   UNL     1       7.023   8.936  -4.705  0.00  0.00    +0.000 A 
ATOM     31  C   UNL     1       7.538   7.656  -4.612  0.00  0.00    +0.002 A 
ATOM     32  C   UNL     1       7.658   7.047  -3.378  0.00  0.00    +0.024 A 
ATOM     33  C   UNL     1       7.262   7.722  -2.231  0.00  0.00    +0.046 A 
BRANCH  28  35
ATOM     34  C   UNL     1       7.511  10.435  -0.455  0.00  0.00    +0.009 C 
ATOM     35  C   UNL     1       6.304   9.738  -1.087  0.00  0.00    +0.033 C 
ENDBRANCH  28  35
ENDBRANCH   1  33
TORSDOF 4
