REMARK  Name = ZINC37317197
REMARK  3 active torsions:
REMARK  status: ('A' for Active; 'I' for Inactive)
REMARK    1  A    between atoms: C_10  and  N_11
REMARK    2  A    between atoms: N_11  and  C_12
REMARK    3  A    between atoms: C_12  and  C_13
REMARK                            x       y       z     vdW  Elec       q    Type
REMARK                         _______ _______ _______ _____ _____    ______ ____
ROOT
ATOM      1  C   UNL     1      -0.017   1.392   0.010  0.00  0.00    +0.024 A 
ATOM      2  C   UNL     1       1.147   2.101   0.002  0.00  0.00    +0.013 A 
ATOM      3  C   UNL     1       2.374   1.427  -0.013  0.00  0.00    +0.020 A 
ATOM      4  C   UNL     1       3.767   1.863  -0.024  0.00  0.00    +0.142 A 
ATOM      5  N   UNL     1       4.517   0.798  -0.037  0.00  0.00    -0.181 NA
ATOM      6  N   UNL     1       3.721  -0.351  -0.035  0.00  0.00    -0.277 N 
ATOM      7  H   UNL     1       4.049  -1.264  -0.043  0.00  0.00    +0.189 HD
ATOM      8  C   UNL     1       2.401   0.019  -0.021  0.00  0.00    +0.067 A 
ATOM      9  C   UNL     1       1.203  -0.690  -0.014  0.00  0.00    +0.050 A 
ATOM     10  C   UNL     1       0.002  -0.004   0.002  0.00  0.00    +0.029 A 
ENDROOT
BRANCH  10  11
ATOM     11  N   UNL     1      -1.201  -0.714   0.010  0.00  0.00    -0.337 N 
ATOM     12  H   UNL     1      -1.192  -1.683   0.004  0.00  0.00    +0.147 HD
BRANCH  11  13
ATOM     13  C   UNL     1      -2.476   0.007   0.026  0.00  0.00    +0.176 C 
BRANCH  13  14
ATOM     14  C   UNL     1      -3.613  -0.983   0.031  0.00  0.00    +0.123 A 
ATOM     15  C   UNL     1      -4.199  -1.501   1.125  0.00  0.00    +0.047 A 
ATOM     16  C   UNL     1      -5.210  -2.379   0.672  0.00  0.00    +0.056 A 
ATOM     17  C   UNL     1      -5.181  -2.344  -0.673  0.00  0.00    +0.165 A 
ATOM     18  O   UNL     1      -4.216  -1.492  -1.055  0.00  0.00    -0.453 OA
ATOM     19  I   UNL     1      -6.436  -3.428  -1.954  0.00  0.00    -0.001 I 
ENDBRANCH  13  14
ENDBRANCH  11  13
ENDBRANCH  10  11
TORSDOF 3
