REMARK  Name = ZINC08922860
REMARK  10 active torsions:
REMARK  status: ('A' for Active; 'I' for Inactive)
REMARK    1  A    between atoms: C_1  and  C_2
REMARK    2  A    between atoms: C_2  and  C_3
REMARK    3  A    between atoms: C_2  and  N_64
REMARK    4  A    between atoms: C_11  and  O_36
REMARK    5  A    between atoms: C_13  and  C_16
REMARK    6  A    between atoms: C_19  and  O_24
REMARK    7  A    between atoms: C_20  and  O_22
REMARK    8  A    between atoms: O_22  and  C_23
REMARK    9  A    between atoms: O_24  and  C_25
REMARK   10  A    between atoms: C_25  and  C_27
REMARK                            x       y       z     vdW  Elec       q    Type
REMARK                         _______ _______ _______ _____ _____    ______ ____
ROOT
ATOM      1  C   UNL     1       8.373   1.988   1.574  0.00  0.00    -0.073 C 
ATOM      2  C   UNL     1       6.851   2.096   1.696  0.00  0.00    +0.018 C 
ATOM      3  C   UNL     1       6.365   0.966   2.596  0.00  0.00    -0.027 A 
ATOM      4  C   UNL     1       7.165  -0.101   2.833  0.00  0.00    -0.021 A 
ATOM      5  S   UNL     1       6.222  -1.147   3.909  0.00  0.00    -0.080 S 
ATOM      6  C   UNL     1       4.809  -0.189   4.040  0.00  0.00    +0.080 A 
ATOM      7  C   UNL     1       5.068   0.936   3.245  0.00  0.00    +0.067 A 
ATOM      8  C   UNL     1       3.997   1.961   3.148  0.00  0.00    +0.220 C 
ATOM      9  N   UNL     1       2.825   1.664   3.637  0.00  0.00    -0.223 NA
ATOM     10  C   UNL     1       2.457   0.364   4.184  0.00  0.00    +0.224 C 
ATOM     11  N   UNL     1       3.628  -0.353   4.721  0.00  0.00    -0.313 N 
ATOM     12  C   UNL     1       8.541  -0.320   2.288  0.00  0.00    -0.035 C 
ATOM     13  H   UNL     1       3.567  -0.910   5.513  0.00  0.00    +0.149 HD
ATOM     14  N   UNL     1       8.736   0.619   1.157  0.00  0.00    +0.384 N 
ATOM     15  H   UNL     1       8.130   0.335   0.378  0.00  0.00    -0.081 HD
ENDROOT
BRANCH  10  16
ATOM     16  C   UNL     1       1.829  -0.468   3.095  0.00  0.00    -0.002 A 
ATOM     17  C   UNL     1       1.915  -1.847   3.143  0.00  0.00    +0.011 A 
ATOM     18  C   UNL     1       1.342  -2.614   2.147  0.00  0.00    +0.050 A 
ATOM     19  C   UNL     1       0.674  -2.001   1.098  0.00  0.00    +0.173 A 
ATOM     20  C   UNL     1       0.593  -0.613   1.046  0.00  0.00    +0.163 A 
ATOM     21  C   UNL     1       1.170   0.150   2.049  0.00  0.00    +0.056 A 
BRANCH  20  22
ATOM     22  O   UNL     1      -0.057  -0.006   0.017  0.00  0.00    -0.491 OA
ATOM     23  C   UNL     1      -0.106   1.422   0.032  0.00  0.00    +0.277 C 
ENDBRANCH  20  22
BRANCH  19  24
ATOM     24  O   UNL     1       0.105  -2.754   0.120  0.00  0.00    -0.419 OA
BRANCH  24  25
ATOM     25  C   UNL     1       0.801  -2.899  -1.024  0.00  0.00    +0.345 C 
ATOM     26  O   UNL     1       1.927  -2.451  -1.111  0.00  0.00    -0.245 OA
BRANCH  25  27
ATOM     27  C   UNL     1       0.197  -3.600  -2.172  0.00  0.00    +0.063 A 
ATOM     28  C   UNL     1      -1.097  -4.121  -2.073  0.00  0.00    +0.019 A 
ATOM     29  C   UNL     1      -1.661  -4.772  -3.147  0.00  0.00    +0.050 A 
ATOM     30  C   UNL     1      -0.946  -4.922  -4.328  0.00  0.00    +0.166 A 
ATOM     31  C   UNL     1       0.348  -4.409  -4.432  0.00  0.00    +0.167 A 
ATOM     32  C   UNL     1       0.918  -3.751  -3.360  0.00  0.00    +0.064 A 
ATOM     33  O   UNL     1       0.827  -4.687  -5.680  0.00  0.00    -0.453 OA
ATOM     34  C   UNL     1      -0.025  -5.727  -6.196  0.00  0.00    +0.466 C 
ATOM     35  O   UNL     1      -1.273  -5.519  -5.510  0.00  0.00    -0.453 OA
ENDBRANCH  25  27
ENDBRANCH  24  25
ENDBRANCH  19  24
ENDBRANCH  10  16
BRANCH  14  37
ATOM     36  C   UNL     1      11.081   0.983   1.849  0.00  0.00    -0.014 C 
ATOM     37  C   UNL     1      10.144   0.582   0.707  0.00  0.00    -0.074 C 
ATOM     38  C   UNL     1      10.482  -0.836   0.244  0.00  0.00    -0.014 C 
ENDBRANCH  14  37
BRANCH   8  39
ATOM     39  O   UNL     1       4.230   3.162   2.571  0.00  0.00    -0.492 OA
ATOM     40  H   UNL     1       3.462   3.750   2.563  0.00  0.00    +0.294 HD
ENDBRANCH   8  39
TORSDOF 7
