REMARK  Name = ZINC46076668
REMARK  6 active torsions:
REMARK  status: ('A' for Active; 'I' for Inactive)
REMARK    1  A    between atoms: C_1  and  C_2
REMARK    2  A    between atoms: C_2  and  C_3
REMARK    3  A    between atoms: C_2  and  O_4
REMARK    4  A    between atoms: O_4  and  C_5
REMARK    5  A    between atoms: C_10  and  C_11
REMARK    6  A    between atoms: C_21  and  C_22
REMARK                            x       y       z     vdW  Elec       q    Type
REMARK                         _______ _______ _______ _____ _____    ______ ____
ROOT
ATOM      1  C   UNL     1       2.083  -1.202   3.510  0.00  0.00    +0.070 C 
ATOM      2  C   UNL     1       2.756  -0.233   4.491  0.00  0.00    +0.109 C 
ATOM      3  C   UNL     1       4.126  -0.724   4.863  0.00  0.00    +0.218 C 
ATOM      4  O   UNL     1       5.015   0.090   5.000  0.00  0.00    -0.275 OA
ATOM      5  N   UNL     1       4.413  -2.024   5.052  0.00  0.00    -0.284 N 
ATOM      6  C   UNL     1       3.442  -3.000   4.689  0.00  0.00    +0.052 A 
ATOM      7  C   UNL     1       2.353  -2.598   3.971  0.00  0.00    +0.020 A 
ATOM      8  S   UNL     1       1.408  -4.074   3.742  0.00  0.00    -0.098 S 
ATOM      9  C   UNL     1       2.495  -5.218   4.578  0.00  0.00    +0.056 A 
ATOM     10  C   UNL     1       3.513  -4.409   4.998  0.00  0.00    +0.013 A 
ATOM     11  H   UNL     1       5.265  -2.292   5.428  0.00  0.00    +0.155 HD
ENDROOT
BRANCH  10  12
ATOM     12  C   UNL     1       4.664  -4.964   5.751  0.00  0.00    +0.020 A 
ATOM     13  C   UNL     1       5.531  -5.866   5.138  0.00  0.00    +0.011 A 
ATOM     14  C   UNL     1       6.600  -6.380   5.843  0.00  0.00    +0.001 A 
ATOM     15  C   UNL     1       6.813  -6.002   7.156  0.00  0.00    +0.003 A 
ATOM     16  C   UNL     1       5.956  -5.108   7.772  0.00  0.00    +0.039 A 
ATOM     17  C   UNL     1       4.885  -4.582   7.074  0.00  0.00    +0.131 A 
ATOM     18  F   UNL     1       4.052  -3.703   7.674  0.00  0.00    -0.205 F 
ENDBRANCH  10  12
BRANCH   1  24
ATOM     19  C   UNL     1      -0.031  -0.600   2.303  0.00  0.00    +0.125 A 
ATOM     20  C   UNL     1      -1.400  -0.376   2.286  0.00  0.00    +0.046 A 
ATOM     21  C   UNL     1      -2.134  -0.501   3.449  0.00  0.00    +0.004 A 
ATOM     22  C   UNL     1      -1.506  -0.849   4.631  0.00  0.00    +0.001 A 
ATOM     23  C   UNL     1      -0.141  -1.072   4.651  0.00  0.00    +0.008 A 
ATOM     24  C   UNL     1       0.597  -0.953   3.489  0.00  0.00    +0.003 A 
BRANCH  19  25
ATOM     25  O   UNL     1       0.693  -0.477   1.160  0.00  0.00    -0.489 OA
BRANCH  25  27
ATOM     26  C   UNL     1      -0.294   1.265  -0.193  0.00  0.00    +0.051 C 
ATOM     27  C   UNL     1      -0.034  -0.235  -0.046  0.00  0.00    +0.167 C 
ATOM     28  C   UNL     1       0.782  -0.731  -1.242  0.00  0.00    +0.051 C 
ENDBRANCH  25  27
ENDBRANCH  19  25
ENDBRANCH   1  24
TORSDOF 4
