REMARK  Name = ZINC35192020
REMARK  8 active torsions:
REMARK  status: ('A' for Active; 'I' for Inactive)
REMARK    1  A    between atoms: C_4  and  C_7
REMARK    2  A    between atoms: C_7  and  C_8
REMARK    3  A    between atoms: C_7  and  C_35
REMARK    4  A    between atoms: C_8  and  C_9
REMARK    5  A    between atoms: C_9  and  N_10
REMARK    6  A    between atoms: C_11  and  C_13
REMARK    7  A    between atoms: C_17  and  C_29
REMARK    8  A    between atoms: C_20  and  C_22
REMARK                            x       y       z     vdW  Elec       q    Type
REMARK                         _______ _______ _______ _____ _____    ______ ____
ROOT
ATOM      1  C   UNL     1       6.658  -4.770   4.877  0.00  0.00    +0.173 C 
ATOM      2  C   UNL     1       6.653  -4.086   6.276  0.00  0.00    +0.103 C 
ATOM      3  S   UNL     1       8.222  -3.122   6.112  0.00  0.00    -0.136 S 
ATOM      4  C   UNL     1       9.100  -4.298   4.997  0.00  0.00    +0.138 C 
ATOM      5  N   UNL     1       8.013  -5.157   4.496  0.00  0.00    -0.273 N 
ATOM      6  C   UNL     1       8.258  -6.238   3.729  0.00  0.00    +0.248 C 
ATOM      7  O   UNL     1       9.397  -6.506   3.401  0.00  0.00    -0.270 OA
ENDROOT
BRANCH   6   8
ATOM      8  C   UNL     1       7.141  -7.098   3.287  0.00  0.00    +0.037 A 
ATOM      9  C   UNL     1       5.842  -6.588   3.235  0.00  0.00    +0.016 A 
ATOM     10  C   UNL     1       4.803  -7.394   2.822  0.00  0.00    +0.039 A 
ATOM     11  C   UNL     1       5.046  -8.710   2.459  0.00  0.00    +0.123 A 
ATOM     12  C   UNL     1       6.334  -9.222   2.509  0.00  0.00    +0.039 A 
ATOM     13  C   UNL     1       7.380  -8.422   2.915  0.00  0.00    +0.016 A 
ATOM     14  F   UNL     1       4.024  -9.497   2.056  0.00  0.00    -0.205 F 
ENDBRANCH   6   8
BRANCH   4  15
ATOM     15  C   UNL     1       9.777  -3.550   3.847  0.00  0.00    +0.020 C 
ATOM     16  C   UNL     1      10.201  -4.548   2.768  0.00  0.00    +0.006 C 
ATOM     17  C   UNL     1      10.878  -3.800   1.618  0.00  0.00    +0.000 C 
ATOM     18  C   UNL     1      12.112  -3.064   2.145  0.00  0.00    +0.000 C 
ATOM     19  C   UNL     1      11.689  -2.066   3.224  0.00  0.00    +0.000 C 
ATOM     20  C   UNL     1      11.011  -2.814   4.374  0.00  0.00    +0.006 C 
ENDBRANCH   4  15
BRANCH   1  22
ATOM     21  N   UNL     1       4.856  -3.332   3.981  0.00  0.00    -0.314 N 
ATOM     22  C   UNL     1       6.110  -3.809   3.854  0.00  0.00    +0.234 C 
ATOM     23  O   UNL     1       6.798  -3.466   2.915  0.00  0.00    -0.274 OA
ATOM     24  H   UNL     1       4.306  -3.607   4.731  0.00  0.00    +0.149 HD
BRANCH  21  25
ATOM     25  C   UNL     1       4.323  -2.399   2.985  0.00  0.00    +0.105 C 
BRANCH  25  26
ATOM     26  C   UNL     1       2.891  -2.015   3.361  0.00  0.00    +0.031 C 
BRANCH  26  27
ATOM     27  C   UNL     1       2.334  -1.040   2.322  0.00  0.00    +0.050 C 
BRANCH  27  31
ATOM     28  C   UNL     1      -1.531   0.301   3.551  0.00  0.00    +0.000 A 
ATOM     29  C   UNL     1      -0.670   1.170   2.906  0.00  0.00    +0.000 A 
ATOM     30  C   UNL     1       0.580   0.736   2.509  0.00  0.00    +0.004 A 
ATOM     31  C   UNL     1       0.971  -0.566   2.756  0.00  0.00    -0.040 A 
ATOM     32  C   UNL     1       0.111  -1.435   3.402  0.00  0.00    +0.004 A 
ATOM     33  C   UNL     1      -1.140  -1.002   3.798  0.00  0.00    +0.000 A 
ENDBRANCH  27  31
BRANCH  27  34
ATOM     34  C   UNL     1       2.224  -1.735   0.990  0.00  0.00    -0.040 A 
ATOM     35  C   UNL     1       1.347  -2.791   0.832  0.00  0.00    +0.004 A 
ATOM     36  C   UNL     1       1.245  -3.429  -0.390  0.00  0.00    +0.000 A 
ATOM     37  C   UNL     1       2.021  -3.010  -1.455  0.00  0.00    +0.000 A 
ATOM     38  C   UNL     1       2.898  -1.953  -1.298  0.00  0.00    +0.000 A 
ATOM     39  C   UNL     1       2.996  -1.312  -0.076  0.00  0.00    +0.004 A 
ENDBRANCH  27  34
ENDBRANCH  26  27
ENDBRANCH  25  26
ENDBRANCH  21  25
ENDBRANCH   1  22
TORSDOF 8
