REMARK  Name = ZINC13775174
REMARK  7 active torsions:
REMARK  status: ('A' for Active; 'I' for Inactive)
REMARK    1  A    between atoms: C_1  and  C_2
REMARK    2  A    between atoms: C_2  and  O_3
REMARK    3  A    between atoms: O_3  and  C_4
REMARK    4  A    between atoms: C_4  and  C_6
REMARK    5  A    between atoms: C_7  and  N_26
REMARK    6  A    between atoms: C_22  and  C_24
REMARK    7  A    between atoms: C_22  and  C_25
REMARK                            x       y       z     vdW  Elec       q    Type
REMARK                         _______ _______ _______ _____ _____    ______ ____
ROOT
ATOM      1  C   UNL     1       1.426   6.045  -0.251  0.00  0.00    +0.119 A 
ATOM      2  C   UNL     1       0.156   5.580   0.022  0.00  0.00    +0.055 A 
ATOM      3  C   UNL     1      -0.024   4.153   0.236  0.00  0.00    +0.031 A 
ATOM      4  C   UNL     1      -1.223   3.447   0.528  0.00  0.00    -0.025 A 
ATOM      5  C   UNL     1      -1.185   2.100   0.687  0.00  0.00    +0.020 A 
ATOM      6  C   UNL     1       0.035   1.417   0.580  0.00  0.00    +0.105 A 
ATOM      7  C   UNL     1       1.153   3.378   0.140  0.00  0.00    +0.089 A 
ATOM      8  S   UNL     1       2.420   4.566  -0.225  0.00  0.00    -0.062 S 
ATOM      9  N   UNL     1       0.070   0.042   0.752  0.00  0.00    -0.316 N 
ATOM     10  C   UNL     1       0.916  -0.324   1.896  0.00  0.00    +0.106 C 
ATOM     11  C   UNL     1       0.816  -1.830   2.145  0.00  0.00    +0.019 C 
ATOM     12  C   UNL     1       1.269  -2.582   0.890  0.00  0.00    +0.003 C 
ATOM     13  C   UNL     1       0.403  -2.147  -0.295  0.00  0.00    +0.019 C 
ATOM     14  C   UNL     1       0.515  -0.631  -0.474  0.00  0.00    +0.106 C 
ATOM     15  C   UNL     1      -2.431   1.307   0.989  0.00  0.00    +0.199 C 
ATOM     16  O   UNL     1      -3.474   2.174   1.433  0.00  0.00    -0.369 OA
ATOM     17  C   UNL     1      -3.700   3.281   0.552  0.00  0.00    +0.068 C 
ATOM     18  C   UNL     1      -2.503   4.230   0.652  0.00  0.00    +0.070 C 
ATOM     19  C   UNL     1      -4.976   4.016   0.966  0.00  0.00    +0.041 C 
ATOM     20  C   UNL     1      -3.838   2.776  -0.885  0.00  0.00    +0.041 C 
ATOM     21  N   UNL     1       1.217   2.035   0.304  0.00  0.00    -0.337 N 
ATOM     22  H   UNL     1       2.100   1.516   0.226  0.00  0.00    +0.168 HD
ENDROOT
BRANCH   2  23
ATOM     23  N   UNL     1      -0.922   6.451   0.089  0.00  0.00    -0.356 N 
ATOM     24  H   UNL     1      -1.702   6.217   0.617  0.00  0.00    +0.142 HD
ATOM     25  H   UNL     1      -0.895   7.293  -0.390  0.00  0.00    +0.142 HD
ENDBRANCH   2  23
BRANCH   1  26
ATOM     26  C   UNL     1       1.839   7.375  -0.491  0.00  0.00    +0.348 C 
ATOM     27  O   UNL     1       1.024   8.278  -0.471  0.00  0.00    -0.244 OA
BRANCH  26  28
ATOM     28  O   UNL     1       3.138   7.643  -0.743  0.00  0.00    -0.461 OA
BRANCH  28  30
ATOM     29  C   UNL     1       4.988   9.116  -1.242  0.00  0.00    +0.048 C 
ATOM     30  C   UNL     1       3.485   9.009  -0.977  0.00  0.00    +0.229 C 
ENDBRANCH  28  30
ENDBRANCH  26  28
ENDBRANCH   1  26
TORSDOF 4
