REMARK  Name = ZINC08569134
REMARK  8 active torsions:
REMARK  status: ('A' for Active; 'I' for Inactive)
REMARK    1  A    between atoms: C_1  and  C_2
REMARK    2  A    between atoms: C_2  and  O_3
REMARK    3  A    between atoms: O_3  and  C_4
REMARK    4  A    between atoms: C_4  and  C_6
REMARK    5  A    between atoms: C_6  and  C_7
REMARK    6  A    between atoms: C_14  and  N_30
REMARK    7  A    between atoms: C_15  and  C_28
REMARK    8  A    between atoms: C_16  and  C_18
REMARK                            x       y       z     vdW  Elec       q    Type
REMARK                         _______ _______ _______ _____ _____    ______ ____
ROOT
ATOM      1  C   UNL     1       2.439   1.012  -0.016  0.00  0.00    +0.081 A 
ATOM      2  C   UNL     1       3.080   0.489   1.099  0.00  0.00    +0.050 A 
ATOM      3  C   UNL     1       4.072  -0.345   0.665  0.00  0.00    +0.222 A 
ATOM      4  N   UNL     1       4.055  -0.333  -0.677  0.00  0.00    -0.246 N 
ATOM      5  H   UNL     1       4.668  -0.843  -1.279  0.00  0.00    +0.192 HD
ATOM      6  N   UNL     1       3.021   0.525  -1.086  0.00  0.00    -0.175 NA
ATOM      7  O   UNL     1       4.885  -1.022   1.515  0.00  0.00    -0.423 OA
ATOM      8  C   UNL     1       4.523  -1.078   2.813  0.00  0.00    +0.200 C 
ATOM      9  C   UNL     1       3.563  -0.300   3.360  0.00  0.00    +0.098 C 
ATOM     10  C   UNL     1       2.796   0.723   2.560  0.00  0.00    +0.103 C 
ENDROOT
BRANCH  10  11
ATOM     11  C   UNL     1       3.246   2.110   2.944  0.00  0.00    -0.010 A 
ATOM     12  C   UNL     1       4.489   2.605   2.835  0.00  0.00    +0.088 A 
ATOM     13  N   UNL     1       4.517   3.898   3.282  0.00  0.00    -0.360 N 
ATOM     14  H   UNL     1       5.304   4.464   3.301  0.00  0.00    +0.165 HD
ATOM     15  C   UNL     1       3.260   4.276   3.699  0.00  0.00    +0.047 A 
ATOM     16  C   UNL     1       2.408   3.175   3.501  0.00  0.00    +0.004 A 
ATOM     17  C   UNL     1       1.056   3.271   3.834  0.00  0.00    +0.010 A 
ATOM     18  C   UNL     1       0.566   4.438   4.349  0.00  0.00    +0.001 A 
ATOM     19  C   UNL     1       1.402   5.529   4.544  0.00  0.00    +0.002 A 
ATOM     20  C   UNL     1       2.741   5.453   4.229  0.00  0.00    +0.026 A 
ENDBRANCH  10  11
BRANCH   8  21
ATOM     21  N   UNL     1       5.168  -1.977   3.625  0.00  0.00    -0.328 N 
ATOM     22  H   UNL     1       5.861  -2.549   3.261  0.00  0.00    +0.145 HD
ATOM     23  H   UNL     1       4.929  -2.041   4.563  0.00  0.00    +0.145 HD
ENDBRANCH   8  21
BRANCH   9  24
ATOM     24  C   UNL     1       3.262  -0.454   4.752  0.00  0.00    +0.101 C 
ATOM     25  N   UNL     1       3.023  -0.575   5.856  0.00  0.00    -0.191 NA
ENDBRANCH   9  24
BRANCH   1  26
ATOM     26  C   UNL     1       1.280   1.975   0.000  0.00  0.00    +0.178 C 
BRANCH  26  27
ATOM     27  C   UNL     1      -0.014   1.204   0.009  0.00  0.00    +0.313 C 
ATOM     28  O   UNL     1       0.002  -0.004   0.002  0.00  0.00    -0.250 OA
BRANCH  27  29
ATOM     29  O   UNL     1      -1.186   1.859   0.018  0.00  0.00    -0.465 OA
BRANCH  29  31
ATOM     30  C   UNL     1      -3.619   1.968   0.030  0.00  0.00    +0.048 C 
ATOM     31  C   UNL     1      -2.393   1.052   0.019  0.00  0.00    +0.229 C 
ENDBRANCH  29  31
ENDBRANCH  27  29
ENDBRANCH  26  27
ENDBRANCH   1  26
TORSDOF 7
