REMARK  Name = ZINC08721451
REMARK  5 active torsions:
REMARK  status: ('A' for Active; 'I' for Inactive)
REMARK    1  A    between atoms: C_1  and  O_2
REMARK    2  A    between atoms: O_2  and  C_3
REMARK    3  A    between atoms: C_8  and  C_9
REMARK    4  A    between atoms: C_10  and  C_11
REMARK    5  A    between atoms: N_22  and  C_23
REMARK                            x       y       z     vdW  Elec       q    Type
REMARK                         _______ _______ _______ _____ _____    ______ ____
ROOT
ATOM      1  C   UNL     1       3.665  -1.976  -0.619  0.00  0.00    +0.186 C 
ATOM      2  N   UNL     1       3.623  -0.643  -0.009  0.00  0.00    -0.322 N 
ATOM      3  C   UNL     1       2.422   0.058  -0.012  0.00  0.00    +0.041 A 
ATOM      4  C   UNL     1       2.386   1.442  -0.009  0.00  0.00    +0.024 A 
ATOM      5  C   UNL     1       1.168   2.095   0.002  0.00  0.00    +0.002 A 
ATOM      6  C   UNL     1      -0.017   1.375   0.010  0.00  0.00    +0.001 A 
ATOM      7  C   UNL     1       0.002  -0.004   0.002  0.00  0.00    +0.015 A 
ATOM      8  C   UNL     1       1.222  -0.675  -0.013  0.00  0.00    +0.058 A 
ATOM      9  C   UNL     1       1.296  -2.147  -0.021  0.00  0.00    +0.250 C 
ATOM     10  O   UNL     1       0.295  -2.812   0.162  0.00  0.00    -0.270 OA
ATOM     11  N   UNL     1       2.484  -2.749  -0.230  0.00  0.00    -0.272 N 
ATOM     12  H   UNL     1       4.418  -0.257   0.391  0.00  0.00    +0.148 HD
ENDROOT
BRANCH  11  13
ATOM     13  C   UNL     1       2.595  -4.200  -0.067  0.00  0.00    +0.078 C 
ATOM     14  C   UNL     1       1.601  -4.915  -1.006  0.00  0.00    +0.022 C 
ATOM     15  C   UNL     1       1.102  -6.127  -0.178  0.00  0.00    +0.002 C 
ATOM     16  C   UNL     1       0.996  -5.544   1.253  0.00  0.00    +0.002 C 
ATOM     17  C   UNL     1       2.212  -4.600   1.368  0.00  0.00    +0.022 C 
ENDBRANCH  11  13
BRANCH   1  19
ATOM     18  C   UNL     1       4.721  -2.328  -2.807  0.00  0.00    +0.011 C 
ATOM     19  C   UNL     1       3.699  -1.838  -2.119  0.00  0.00    +0.015 C 
BRANCH  18  25
ATOM     20  C   UNL     1       5.834  -2.704  -5.008  0.00  0.00    +0.127 A 
ATOM     21  C   UNL     1       5.854  -2.576  -6.387  0.00  0.00    +0.046 A 
ATOM     22  C   UNL     1       4.816  -1.936  -7.038  0.00  0.00    +0.004 A 
ATOM     23  C   UNL     1       3.750  -1.424  -6.320  0.00  0.00    +0.001 A 
ATOM     24  C   UNL     1       3.713  -1.549  -4.947  0.00  0.00    +0.011 A 
ATOM     25  C   UNL     1       4.754  -2.192  -4.278  0.00  0.00    +0.016 A 
BRANCH  20  27
ATOM     26  C   UNL     1       7.924  -3.824  -5.176  0.00  0.00    +0.277 C 
ATOM     27  O   UNL     1       6.856  -3.328  -4.366  0.00  0.00    -0.495 OA
ENDBRANCH  20  27
ENDBRANCH  18  25
ENDBRANCH   1  19
TORSDOF 4
