REMARK  Name = ZINC28055251
REMARK  2 active torsions:
REMARK  status: ('A' for Active; 'I' for Inactive)
REMARK    1  A    between atoms: C_9  and  C_17
REMARK    2  A    between atoms: C_24  and  C_27
REMARK                            x       y       z     vdW  Elec       q    Type
REMARK                         _______ _______ _______ _____ _____    ______ ____
ROOT
ATOM      1  C   UNL     1      -4.224   8.180   4.086  0.00  0.00    +0.001 A 
ATOM      2  C   UNL     1      -3.603   7.681   5.218  0.00  0.00    +0.004 A 
ATOM      3  C   UNL     1      -2.499   6.855   5.106  0.00  0.00    +0.046 A 
ATOM      4  C   UNL     1      -2.011   6.526   3.855  0.00  0.00    +0.131 A 
ATOM      5  C   UNL     1      -2.639   7.030   2.709  0.00  0.00    +0.038 A 
ATOM      6  C   UNL     1      -3.748   7.859   2.830  0.00  0.00    +0.013 A 
ATOM      7  C   UNL     1      -2.093   6.655   1.383  0.00  0.00    +0.050 C 
ATOM      8  C   UNL     1      -0.863   6.141   1.325  0.00  0.00    +0.025 C 
ATOM      9  C   UNL     1      -0.228   5.712   0.025  0.00  0.00    +0.174 C 
ATOM     10  N   UNL     1      -0.996   6.224  -1.101  0.00  0.00    -0.201 N 
ATOM     11  C   UNL     1      -2.242   6.755  -0.989  0.00  0.00    +0.240 A 
ATOM     12  N   UNL     1      -2.627   7.099  -2.184  0.00  0.00    -0.092 NA
ATOM     13  N   UNL     1      -1.706   6.827  -3.045  0.00  0.00    -0.021 NA
ATOM     14  N   UNL     1      -0.684   6.293  -2.458  0.00  0.00    -0.042 NA
ATOM     15  N   UNL     1      -2.875   6.856   0.239  0.00  0.00    -0.282 N 
ATOM     16  C   UNL     1      -0.066   5.992   2.601  0.00  0.00    +0.234 C 
ATOM     17  O   UNL     1      -0.929   5.720   3.704  0.00  0.00    -0.479 OA
ATOM     18  H   UNL     1      -3.946   7.084   0.338  0.00  0.00    +0.155 HD
ENDROOT
BRANCH  16  19
ATOM     19  C   UNL     1       0.692   7.268   2.865  0.00  0.00    -0.002 A 
ATOM     20  C   UNL     1       2.052   7.326   2.626  0.00  0.00    +0.009 A 
ATOM     21  C   UNL     1       2.747   8.497   2.863  0.00  0.00    +0.022 A 
ATOM     22  C   UNL     1       2.083   9.609   3.351  0.00  0.00    +0.059 A 
ATOM     23  C   UNL     1       0.721   9.549   3.596  0.00  0.00    +0.060 A 
ATOM     24  C   UNL     1       0.026   8.377   3.352  0.00  0.00    +0.029 A 
ATOM     25 CL   UNL     1      -0.114  10.943   4.207  0.00  0.00    -0.082 Cl
ATOM     26 CL   UNL     1       2.956  11.078   3.656  0.00  0.00    -0.082 Cl
ENDBRANCH  16  19
BRANCH   9  27
ATOM     27  C   UNL     1      -0.191   4.207  -0.040  0.00  0.00    -0.019 A 
ATOM     28  C   UNL     1       1.020   3.550  -0.153  0.00  0.00    +0.009 A 
ATOM     29  C   UNL     1       1.056   2.170  -0.212  0.00  0.00    +0.039 A 
ATOM     30  C   UNL     1      -0.122   1.444  -0.158  0.00  0.00    +0.123 A 
ATOM     31  C   UNL     1      -1.335   2.103  -0.050  0.00  0.00    +0.039 A 
ATOM     32  C   UNL     1      -1.368   3.483   0.014  0.00  0.00    +0.009 A 
ATOM     33  F   UNL     1      -0.089   0.095  -0.216  0.00  0.00    -0.205 F 
ENDBRANCH   9  27
TORSDOF 2
