REMARK  Name = ZINC32910360
REMARK  7 active torsions:
REMARK  status: ('A' for Active; 'I' for Inactive)
REMARK    1  A    between atoms: C_7  and  C_21
REMARK    2  A    between atoms: C_12  and  C_13
REMARK    3  A    between atoms: C_21  and  O_23
REMARK    4  A    between atoms: O_23  and  C_24
REMARK    5  A    between atoms: C_24  and  C_25
REMARK    6  A    between atoms: N_27  and  N_28
REMARK    7  A    between atoms: C_29  and  C_31
REMARK                            x       y       z     vdW  Elec       q    Type
REMARK                         _______ _______ _______ _____ _____    ______ ____
ROOT
ATOM      1  C   UNL     1       4.981   0.759   0.315  0.00  0.00    +0.001 A 
ATOM      2  C   UNL     1       4.819  -0.580  -0.030  0.00  0.00    +0.002 A 
ATOM      3  C   UNL     1       3.583  -1.146  -0.090  0.00  0.00    +0.028 A 
ATOM      4  C   UNL     1       2.445  -0.370   0.199  0.00  0.00    +0.072 A 
ATOM      5  C   UNL     1       2.616   0.993   0.550  0.00  0.00    +0.015 A 
ATOM      6  C   UNL     1       3.901   1.542   0.603  0.00  0.00    +0.011 A 
ATOM      7  C   UNL     1       1.429   1.793   0.854  0.00  0.00    +0.073 A 
ATOM      8  C   UNL     1       0.193   1.166   0.780  0.00  0.00    -0.007 A 
ATOM      9  C   UNL     1       0.132  -0.192   0.414  0.00  0.00    +0.072 A 
ATOM     10  N   UNL     1       1.222  -0.894   0.147  0.00  0.00    -0.247 NA
ATOM     11  C   UNL     1      -1.183  -0.859   0.318  0.00  0.00    -0.021 C 
ATOM     12  C   UNL     1      -1.308  -2.073  -0.259  0.00  0.00    +0.020 C 
ATOM     13  C   UNL     1      -2.384  -0.136   0.887  0.00  0.00    +0.037 C 
ATOM     14  C   UNL     1      -2.282   1.335   0.462  0.00  0.00    +0.009 C 
ATOM     15  C   UNL     1      -1.044   1.959   1.100  0.00  0.00    +0.038 C 
ENDROOT
BRANCH  12  16
ATOM     16  C   UNL     1      -2.570  -2.806  -0.154  0.00  0.00    +0.013 A 
ATOM     17  C   UNL     1      -2.952  -3.982  -0.780  0.00  0.00    +0.015 A 
ATOM     18  C   UNL     1      -4.205  -4.483  -0.519  0.00  0.00    +0.008 A 
ATOM     19  C   UNL     1      -5.024  -3.816   0.337  0.00  0.00    +0.046 A 
ATOM     20  S   UNL     1      -4.017  -2.423   0.820  0.00  0.00    -0.097 S 
ENDBRANCH  12  16
BRANCH   7  21
ATOM     21  C   UNL     1       1.542   3.219   1.227  0.00  0.00    +0.341 C 
ATOM     22  O   UNL     1       1.666   3.534   2.393  0.00  0.00    -0.245 OA
BRANCH  21  23
ATOM     23  O   UNL     1       1.509   4.169   0.273  0.00  0.00    -0.452 OA
BRANCH  23  24
ATOM     24  C   UNL     1       1.625   5.549   0.711  0.00  0.00    +0.329 C 
BRANCH  24  25
ATOM     25  C   UNL     1       1.568   6.463  -0.485  0.00  0.00    +0.267 C 
ATOM     26  O   UNL     1       1.441   5.998  -1.598  0.00  0.00    -0.271 OA
ATOM     27  N   UNL     1       1.657   7.797  -0.319  0.00  0.00    -0.231 N 
ATOM     28  H   UNL     1       1.772   8.219   0.691  0.00  0.00    +0.173 HD
BRANCH  27  29
ATOM     29  N   UNL     1       1.604   8.647  -1.431  0.00  0.00    -0.230 N 
ATOM     30  C   UNL     1       1.693   9.982  -1.264  0.00  0.00    +0.263 C 
ATOM     31  O   UNL     1       1.820  10.448  -0.149  0.00  0.00    -0.269 OA
ATOM     32  H   UNL     1       1.489   8.226  -2.441  0.00  0.00    +0.173 HD
BRANCH  30  33
ATOM     33  C   UNL     1       1.637  10.878  -2.437  0.00  0.00    +0.073 A 
ATOM     34  C   UNL     1       1.497  10.346  -3.721  0.00  0.00    +0.016 A 
ATOM     35  C   UNL     1       1.439  11.188  -4.811  0.00  0.00    +0.001 A 
ATOM     36  C   UNL     1       1.531  12.559  -4.638  0.00  0.00    +0.003 A 
ATOM     37  C   UNL     1       1.675  13.095  -3.372  0.00  0.00    +0.039 A 
ATOM     38  C   UNL     1       1.729  12.263  -2.268  0.00  0.00    +0.136 A 
ATOM     39  F   UNL     1       1.871  12.787  -1.031  0.00  0.00    -0.205 F 
ENDBRANCH  30  33
ENDBRANCH  27  29
ENDBRANCH  24  25
ENDBRANCH  23  24
ENDBRANCH  21  23
ENDBRANCH   7  21
TORSDOF 7
