REMARK  Name = ZINC63089213
REMARK  11 active torsions:
REMARK  status: ('A' for Active; 'I' for Inactive)
REMARK    1  A    between atoms: C_1  and  C_2
REMARK    2  A    between atoms: C_4  and  N_10
REMARK    3  A    between atoms: C_8  and  C_9
REMARK    4  A    between atoms: N_10  and  S_11
REMARK    5  A    between atoms: S_11  and  C_14
REMARK    6  A    between atoms: C_17  and  N_20
REMARK    7  A    between atoms: C_21  and  C_23
REMARK    8  A    between atoms: C_23  and  S_24
REMARK    9  A    between atoms: S_24  and  C_25
REMARK   10  A    between atoms: C_31  and  O_35
REMARK   11  A    between atoms: O_35  and  C_36
REMARK                            x       y       z     vdW  Elec       q    Type
REMARK                         _______ _______ _______ _____ _____    ______ ____
ROOT
ATOM      1  N   UNL     1      -6.943  -2.966   3.029  0.00  0.00    -0.285 N 
ATOM      2  C   UNL     1      -6.467  -4.105   3.570  0.00  0.00    +0.227 C 
ATOM      3  O   UNL     1      -5.359  -4.500   3.274  0.00  0.00    -0.275 OA
ATOM      4  H   UNL     1      -7.796  -2.609   3.322  0.00  0.00    +0.155 HD
ENDROOT
BRANCH   1   8
ATOM      5  C   UNL     1      -4.751  -0.978   0.096  0.00  0.00    +0.105 A 
ATOM      6  C   UNL     1      -4.707  -2.357   0.174  0.00  0.00    +0.030 A 
ATOM      7  C   UNL     1      -5.433  -3.020   1.145  0.00  0.00    +0.025 A 
ATOM      8  C   UNL     1      -6.207  -2.298   2.044  0.00  0.00    +0.034 A 
ATOM      9  C   UNL     1      -6.249  -0.912   1.964  0.00  0.00    +0.025 A 
ATOM     10  C   UNL     1      -5.517  -0.256   0.993  0.00  0.00    +0.030 A 
BRANCH   5  11
ATOM     11  S   UNL     1      -3.825  -0.137  -1.144  0.00  0.00    +0.061 S 
ATOM     12  O   UNL     1      -4.460   1.118  -1.345  0.00  0.00    -0.153 OA
ATOM     13  O   UNL     1      -3.623  -1.066  -2.200  0.00  0.00    -0.153 OA
BRANCH  11  14
ATOM     14  N   UNL     1      -2.331   0.185  -0.505  0.00  0.00    -0.149 NA
ATOM     15  H   UNL     1      -2.053   1.103  -0.361  0.00  0.00    +0.152 HD
BRANCH  14  18
ATOM     16  C   UNL     1       0.193   1.030  -0.188  0.00  0.00    +0.019 C 
ATOM     17  C   UNL     1       0.051  -0.489  -0.306  0.00  0.00    +0.093 C 
ATOM     18  C   UNL     1      -1.430  -0.916  -0.159  0.00  0.00    +0.301 C 
ATOM     19  O   UNL     1      -1.503  -1.222   1.249  0.00  0.00    -0.373 OA
ATOM     20  N   UNL     1      -0.200  -1.563   1.679  0.00  0.00    -0.092 NA
ATOM     21  C   UNL     1       0.716  -1.185   0.866  0.00  0.00    +0.062 C 
ATOM     22  C   UNL     1       2.198  -1.394   1.041  0.00  0.00    +0.064 C 
ENDBRANCH  14  18
ENDBRANCH  11  14
ENDBRANCH   5  11
ENDBRANCH   1   8
BRANCH   2  23
ATOM     23  C   UNL     1      -7.312  -4.887   4.542  0.00  0.00    +0.169 C 
BRANCH  23  24
ATOM     24  S   UNL     1      -6.400  -6.357   5.088  0.00  0.00    -0.106 S 
BRANCH  24  25
ATOM     25  C   UNL     1      -7.538  -7.178   6.237  0.00  0.00    +0.236 C 
ATOM     26  N   UNL     1      -8.803  -7.486   5.560  0.00  0.00    -0.355 N 
ATOM     27  C   UNL     1      -9.750  -6.849   6.188  0.00  0.00    +0.061 A 
ATOM     28  C   UNL     1     -11.202  -6.773   5.972  0.00  0.00    +0.031 A 
ATOM     29  C   UNL     1     -11.962  -6.022   6.791  0.00  0.00    +0.048 A 
ATOM     30  C   UNL     1     -11.387  -5.270   7.900  0.00  0.00    +0.122 A 
ATOM     31  C   UNL     1     -10.058  -5.290   8.164  0.00  0.00    +0.073 A 
ATOM     32  C   UNL     1      -9.162  -6.083   7.320  0.00  0.00    +0.064 A 
ATOM     33  N   UNL     1      -7.870  -6.277   7.348  0.00  0.00    -0.355 N 
ATOM     34  H   UNL     1      -8.914  -8.058   4.785  0.00  0.00    +0.162 HD
ATOM     35  H   UNL     1      -7.245  -5.896   7.984  0.00  0.00    +0.162 HD
BRANCH  30  36
ATOM     36  O   UNL     1     -12.205  -4.531   8.689  0.00  0.00    -0.495 OA
ATOM     37  C   UNL     1     -13.598  -4.542   8.371  0.00  0.00    +0.277 C 
ENDBRANCH  30  36
ENDBRANCH  24  25
ENDBRANCH  23  24
ENDBRANCH   2  23
TORSDOF 8
