REMARK  Name = ZINC03654813
REMARK  8 active torsions:
REMARK  status: ('A' for Active; 'I' for Inactive)
REMARK    1  A    between atoms: C_1  and  C_2
REMARK    2  A    between atoms: C_5  and  N_9
REMARK    3  A    between atoms: C_10  and  C_12
REMARK    4  A    between atoms: C_12  and  C_13
REMARK    5  A    between atoms: C_13  and  N_14
REMARK    6  A    between atoms: C_15  and  C_24
REMARK    7  A    between atoms: C_18  and  C_22
REMARK    8  A    between atoms: C_18  and  C_23
REMARK                            x       y       z     vdW  Elec       q    Type
REMARK                         _______ _______ _______ _____ _____    ______ ____
ROOT
ATOM      1  C   UNL     1      -3.702   2.128  -0.184  0.00  0.00    +0.115 C 
ENDROOT
BRANCH   1   3
ATOM      2  N   UNL     1      -1.238   2.069   0.019  0.00  0.00    -0.284 N 
ATOM      3  C   UNL     1      -2.395   1.385  -0.081  0.00  0.00    +0.219 C 
ATOM      4  O   UNL     1      -2.384   0.173  -0.088  0.00  0.00    -0.275 OA
ATOM      5  H   UNL     1      -1.251   3.035   0.105  0.00  0.00    +0.155 HD
BRANCH   2  10
ATOM      6  C   UNL     1       3.716  -0.696  -0.080  0.00  0.00    +0.044 C 
ATOM      7  C   UNL     1       2.401   0.038  -0.052  0.00  0.00    -0.049 A 
ATOM      8  C   UNL     1       1.283  -0.526  -0.640  0.00  0.00    +0.005 A 
ATOM      9  C   UNL     1       0.076   0.144  -0.617  0.00  0.00    +0.025 A 
ATOM     10  C   UNL     1      -0.016   1.385  -0.001  0.00  0.00    +0.052 A 
ATOM     11  C   UNL     1       1.108   1.950   0.589  0.00  0.00    +0.062 A 
ATOM     12  C   UNL     1       2.313   1.274   0.561  0.00  0.00    +0.025 A 
ATOM     13 CL   UNL     1       0.999   3.502   1.359  0.00  0.00    -0.082 Cl
ENDBRANCH   2  10
ENDBRANCH   1   3
BRANCH   1  14
ATOM     14  C   UNL     1      -4.852   1.124  -0.285  0.00  0.00    +0.116 C 
BRANCH  14  15
ATOM     15  N   UNL     1      -6.123   1.845  -0.386  0.00  0.00    -0.309 N 
ATOM     16  C   UNL     1      -6.853   2.185   0.837  0.00  0.00    +0.074 C 
ATOM     17  C   UNL     1      -7.662   3.468   0.596  0.00  0.00    +0.047 C 
ATOM     18  C   UNL     1      -8.567   3.248  -0.621  0.00  0.00    +0.030 C 
ATOM     19  N   UNL     1      -7.747   2.846  -1.764  0.00  0.00    -0.321 N 
ATOM     20  C   UNL     1      -6.597   2.177  -1.596  0.00  0.00    +0.134 C 
ATOM     21  S   UNL     1      -5.697   1.727  -2.982  0.00  0.00    -0.019 S 
ATOM     22  C   UNL     1      -9.303   4.548  -0.951  0.00  0.00    +0.031 C 
ATOM     23  C   UNL     1      -9.584   2.149  -0.309  0.00  0.00    +0.031 C 
ATOM     24  C   UNL     1      -5.860   2.415   1.978  0.00  0.00    +0.028 C 
ATOM     25  H   UNL     1      -8.040   3.069  -2.661  0.00  0.00    +0.148 HD
ENDBRANCH  14  15
ENDBRANCH   1  14
TORSDOF 4
