REMARK  Name = ZINC20832922
REMARK  9 active torsions:
REMARK  status: ('A' for Active; 'I' for Inactive)
REMARK    1  A    between atoms: C_1  and  C_2
REMARK    2  A    between atoms: N_7  and  S_9
REMARK    3  A    between atoms: S_9  and  C_12
REMARK    4  A    between atoms: C_15  and  N_18
REMARK    5  A    between atoms: C_19  and  C_21
REMARK    6  A    between atoms: C_21  and  S_22
REMARK    7  A    between atoms: S_22  and  C_23
REMARK    8  A    between atoms: N_28  and  N_29
REMARK    9  A    between atoms: C_30  and  C_31
REMARK                            x       y       z     vdW  Elec       q    Type
REMARK                         _______ _______ _______ _____ _____    ______ ____
ROOT
ATOM      1  N   UNL     1       0.080  -1.789   5.655  0.00  0.00    -0.285 N 
ATOM      2  C   UNL     1      -0.964  -2.477   6.158  0.00  0.00    +0.227 C 
ATOM      3  O   UNL     1      -1.878  -2.809   5.434  0.00  0.00    -0.275 OA
ATOM      4  H   UNL     1       0.948  -1.563   6.291  0.00  0.00    +0.155 HD
ENDROOT
BRANCH   1   8
ATOM      5  C   UNL     1       0.018  -0.519   1.687  0.00  0.00    +0.106 A 
ATOM      6  C   UNL     1       1.214  -0.885   2.276  0.00  0.00    +0.030 A 
ATOM      7  C   UNL     1       1.239  -1.301   3.592  0.00  0.00    +0.025 A 
ATOM      8  C   UNL     1       0.059  -1.362   4.322  0.00  0.00    +0.034 A 
ATOM      9  C   UNL     1      -1.142  -0.999   3.727  0.00  0.00    +0.025 A 
ATOM     10  C   UNL     1      -1.159  -0.579   2.411  0.00  0.00    +0.030 A 
BRANCH   5  11
ATOM     11  S   UNL     1      -0.009   0.017   0.009  0.00  0.00    +0.061 S 
ATOM     12  O   UNL     1      -1.324  -0.223  -0.473  0.00  0.00    -0.153 OA
ATOM     13  O   UNL     1       1.143  -0.536  -0.612  0.00  0.00    -0.153 OA
BRANCH  11  19
ATOM     14  C   UNL     1       3.066   3.934   0.992  0.00  0.00    +0.009 C 
ATOM     15  C   UNL     1       1.721   3.216   1.120  0.00  0.00    +0.002 C 
ATOM     16  C   UNL     1       0.588   4.245   1.097  0.00  0.00    +0.006 C 
ATOM     17  C   UNL     1      -0.755   3.530   1.259  0.00  0.00    +0.017 C 
ATOM     18  C   UNL     1      -0.958   2.561   0.084  0.00  0.00    +0.109 C 
ATOM     19  N   UNL     1       0.200   1.660   0.016  0.00  0.00    -0.176 NA
ATOM     20  C   UNL     1       1.546   2.244  -0.051  0.00  0.00    +0.112 C 
ENDBRANCH  11  19
ENDBRANCH   5  11
ENDBRANCH   1   8
BRANCH   2  21
ATOM     21  C   UNL     1      -0.996  -2.833   7.622  0.00  0.00    +0.173 C 
BRANCH  21  22
ATOM     22  S   UNL     1      -2.517  -3.750   7.989  0.00  0.00    -0.075 S 
BRANCH  22  23
ATOM     23  C   UNL     1      -2.406  -4.089   9.714  0.00  0.00    +0.211 A 
ATOM     24  N   UNL     1      -3.328  -4.766  10.461  0.00  0.00    -0.186 NA
ATOM     25  C   UNL     1      -2.874  -4.816  11.749  0.00  0.00    +0.232 A 
ATOM     26  N   UNL     1      -1.720  -4.196  11.797  0.00  0.00    -0.245 N 
ATOM     27  N   UNL     1      -1.420  -3.740  10.506  0.00  0.00    -0.144 NA
ATOM     28  N   UNL     1      -3.521  -5.417  12.819  0.00  0.00    -0.205 N 
ATOM     29  H   UNL     1      -4.491  -5.912  12.667  0.00  0.00    +0.177 HD
ATOM     30  H   UNL     1      -1.177  -4.115  12.750  0.00  0.00    +0.192 HD
BRANCH  28  31
ATOM     31  N   UNL     1      -2.938  -5.394  14.093  0.00  0.00    -0.184 NA
ATOM     32  C   UNL     1      -3.545  -5.957  15.097  0.00  0.00    +0.176 C 
BRANCH  32  33
ATOM     33  C   UNL     1      -2.936  -5.933  16.430  0.00  0.00    +0.147 A 
ATOM     34  C   UNL     1      -3.462  -6.482  17.562  0.00  0.00    +0.051 A 
ATOM     35  C   UNL     1      -2.548  -6.223  18.601  0.00  0.00    +0.042 A 
ATOM     36  C   UNL     1      -1.520  -5.537  18.062  0.00  0.00    +0.196 A 
ATOM     37  O   UNL     1      -1.754  -5.368  16.750  0.00  0.00    -0.462 OA
ENDBRANCH  32  33
ENDBRANCH  28  31
ENDBRANCH  22  23
ENDBRANCH  21  22
ENDBRANCH   2  21
TORSDOF 8
