REMARK  Name = ZINC16792044
REMARK  8 active torsions:
REMARK  status: ('A' for Active; 'I' for Inactive)
REMARK    1  A    between atoms: C_1  and  C_2
REMARK    2  A    between atoms: C_2  and  C_4
REMARK    3  A    between atoms: C_2  and  S_19
REMARK    4  A    between atoms: N_6  and  C_7
REMARK    5  A    between atoms: S_19  and  C_20
REMARK    6  A    between atoms: N_30  and  C_31
REMARK    7  A    between atoms: C_31  and  C_32
REMARK    8  A    between atoms: C_32  and  C_33
REMARK                            x       y       z     vdW  Elec       q    Type
REMARK                         _______ _______ _______ _____ _____    ______ ____
ROOT
ATOM      1  S   UNL     1      -0.963   1.990  -1.196  0.00  0.00    -0.075 S 
ENDROOT
BRANCH   1   2
ATOM      2  C   UNL     1      -2.491   1.122  -1.071  0.00  0.00    +0.173 A 
ATOM      3  N   UNL     1      -2.608   0.191  -0.156  0.00  0.00    -0.223 NA
ATOM      4  C   UNL     1      -3.750  -0.508  -0.001  0.00  0.00    +0.079 A 
ATOM      5  C   UNL     1      -3.876  -1.498   0.979  0.00  0.00    +0.028 A 
ATOM      6  C   UNL     1      -5.050  -2.187   1.097  0.00  0.00    +0.002 A 
ATOM      7  C   UNL     1      -6.123  -1.919   0.257  0.00  0.00    +0.001 A 
ATOM      8  C   UNL     1      -6.030  -0.957  -0.711  0.00  0.00    +0.015 A 
ATOM      9  C   UNL     1      -4.844  -0.239  -0.854  0.00  0.00    +0.065 A 
ATOM     10  C   UNL     1      -4.687   0.805  -1.875  0.00  0.00    +0.262 A 
ATOM     11  O   UNL     1      -5.594   1.083  -2.639  0.00  0.00    -0.267 OA
ATOM     12  N   UNL     1      -3.497   1.446  -1.935  0.00  0.00    -0.287 N 
BRANCH  12  13
ATOM     13  C   UNL     1      -3.286   2.496  -2.936  0.00  0.00    +0.131 C 
BRANCH  13  14
ATOM     14  C   UNL     1      -2.728   1.874  -4.218  0.00  0.00    +0.052 C 
BRANCH  14  15
ATOM     15  C   UNL     1      -2.511   2.954  -5.246  0.00  0.00    -0.072 C 
ATOM     16  C   UNL     1      -1.330   3.475  -5.339  0.00  0.00    -0.028 C 
ATOM     17  C   UNL     1      -0.965   4.563  -6.306  0.00  0.00    +0.027 C 
ATOM     18  C   UNL     1      -2.017   4.659  -7.413  0.00  0.00    +0.004 C 
ATOM     19  C   UNL     1      -3.404   4.710  -6.761  0.00  0.00    +0.005 C 
ATOM     20  C   UNL     1      -3.676   3.353  -6.104  0.00  0.00    +0.030 C 
ENDBRANCH  14  15
ENDBRANCH  13  14
ENDBRANCH  12  13
ENDBRANCH   1   2
BRANCH   1  22
ATOM     21  C   UNL     1      -0.695   1.502   1.479  0.00  0.00    +0.029 C 
ATOM     22  C   UNL     1      -0.035   1.187   0.135  0.00  0.00    +0.137 C 
BRANCH  22  23
ATOM     23  C   UNL     1       1.382   1.698   0.138  0.00  0.00    +0.230 C 
ATOM     24  O   UNL     1       1.634   2.791  -0.324  0.00  0.00    -0.274 OA
ATOM     25  N   UNL     1       2.371   0.940   0.654  0.00  0.00    -0.285 N 
ATOM     26  H   UNL     1       2.160   0.101   1.092  0.00  0.00    +0.155 HD
BRANCH  25  27
ATOM     27  C   UNL     1       3.702   1.365   0.558  0.00  0.00    +0.035 A 
ATOM     28  C   UNL     1       4.602   1.061   1.573  0.00  0.00    +0.025 A 
ATOM     29  C   UNL     1       5.915   1.478   1.485  0.00  0.00    +0.029 A 
ATOM     30  C   UNL     1       6.339   2.201   0.380  0.00  0.00    +0.067 A 
ATOM     31  C   UNL     1       5.438   2.507  -0.641  0.00  0.00    +0.069 A 
ATOM     32  C   UNL     1       4.121   2.084  -0.552  0.00  0.00    +0.051 A 
ATOM     33  N   UNL     1       6.145   3.230  -1.599  0.00  0.00    -0.306 N 
ATOM     34  H   UNL     1       5.782   3.581  -2.427  0.00  0.00    +0.170 HD
ATOM     35  C   UNL     1       7.418   3.357  -1.181  0.00  0.00    +0.325 A 
ATOM     36  O   UNL     1       8.300   3.936  -1.787  0.00  0.00    -0.247 OA
ATOM     37  N   UNL     1       7.567   2.748   0.010  0.00  0.00    -0.306 N 
ATOM     38  H   UNL     1       8.389   2.697   0.523  0.00  0.00    +0.170 HD
ENDBRANCH  25  27
ENDBRANCH  22  23
ENDBRANCH   1  22
TORSDOF 7
