REMARK  Name = ZINC22331040
REMARK  10 active torsions:
REMARK  status: ('A' for Active; 'I' for Inactive)
REMARK    1  A    between atoms: C_1  and  C_2
REMARK    2  A    between atoms: N_7  and  C_9
REMARK    3  A    between atoms: C_12  and  C_15
REMARK    4  A    between atoms: C_15  and  C_17
REMARK    5  A    between atoms: C_15  and  N_18
REMARK    6  A    between atoms: C_19  and  C_21
REMARK    7  A    between atoms: C_21  and  N_22
REMARK    8  A    between atoms: N_22  and  C_23
REMARK    9  A    between atoms: N_22  and  S_30
REMARK   10  A    between atoms: S_30  and  C_33
REMARK                            x       y       z     vdW  Elec       q    Type
REMARK                         _______ _______ _______ _____ _____    ______ ____
ROOT
ATOM      1  N   UNL     1       0.421   1.116  -0.167  0.00  0.00    -0.307 N 
ATOM      2  C   UNL     1       1.460   1.974  -0.145  0.00  0.00    +0.233 C 
ATOM      3  O   UNL     1       2.594   1.555  -0.248  0.00  0.00    -0.274 OA
ATOM      4  H   UNL     1      -0.608   1.495  -0.073  0.00  0.00    +0.149 HD
ENDROOT
BRANCH   1   5
ATOM      5  C   UNL     1       0.660  -0.322  -0.314  0.00  0.00    +0.100 C 
ATOM      6  C   UNL     1       0.787  -0.668  -1.799  0.00  0.00    +0.033 C 
BRANCH   5  10
ATOM      7  C   UNL     1      -2.608  -2.492   1.381  0.00  0.00    +0.030 A 
ATOM      8  C   UNL     1      -1.306  -2.942   1.560  0.00  0.00    +0.023 A 
ATOM      9  C   UNL     1      -0.252  -2.238   1.011  0.00  0.00    +0.007 A 
ATOM     10  C   UNL     1      -0.492  -1.087   0.283  0.00  0.00    -0.027 A 
ATOM     11  C   UNL     1      -1.786  -0.634   0.107  0.00  0.00    +0.007 A 
ATOM     12  C   UNL     1      -2.845  -1.336   0.649  0.00  0.00    +0.023 A 
BRANCH   7  18
ATOM     13  C   UNL     1      -7.442  -2.753   1.803  0.00  0.00    +0.009 C 
ATOM     14  C   UNL     1      -6.108  -3.435   2.113  0.00  0.00    +0.003 C 
ATOM     15  C   UNL     1      -5.976  -3.636   3.626  0.00  0.00    +0.006 C 
ATOM     16  C   UNL     1      -4.614  -4.265   3.932  0.00  0.00    +0.019 C 
ATOM     17  C   UNL     1      -3.506  -3.363   3.384  0.00  0.00    +0.105 C 
ATOM     18  N   UNL     1      -3.676  -3.202   1.934  0.00  0.00    -0.330 N 
ATOM     19  C   UNL     1      -4.957  -2.557   1.618  0.00  0.00    +0.108 C 
ENDBRANCH   7  18
ENDBRANCH   5  10
ENDBRANCH   1   5
BRANCH   2  20
ATOM     20  C   UNL     1       1.214   3.453   0.006  0.00  0.00    +0.226 C 
BRANCH  20  21
ATOM     21  N   UNL     1       2.494   4.164   0.001  0.00  0.00    -0.199 N 
BRANCH  21  22
ATOM     22  C   UNL     1       3.223   4.300   1.184  0.00  0.00    +0.053 A 
ATOM     23  C   UNL     1       4.501   3.763   1.281  0.00  0.00    +0.025 A 
ATOM     24  C   UNL     1       5.221   3.904   2.450  0.00  0.00    +0.003 A 
ATOM     25  C   UNL     1       4.668   4.569   3.530  0.00  0.00    +0.020 A 
ATOM     26  C   UNL     1       3.394   5.100   3.439  0.00  0.00    +0.043 A 
ATOM     27  C   UNL     1       2.670   4.968   2.269  0.00  0.00    +0.044 A 
ATOM     28 CL   UNL     1       2.704   5.934   4.797  0.00  0.00    -0.083 Cl
ENDBRANCH  21  22
BRANCH  21  29
ATOM     29  S   UNL     1       3.077   4.808  -1.409  0.00  0.00    +0.043 S 
ATOM     30  O   UNL     1       4.471   4.970  -1.185  0.00  0.00    -0.155 OA
ATOM     31  O   UNL     1       2.605   3.937  -2.428  0.00  0.00    -0.155 OA
ATOM     32  C   UNL     1       2.274   6.428  -1.550  0.00  0.00    +0.218 C 
ENDBRANCH  21  29
ENDBRANCH  20  21
ENDBRANCH   2  20
TORSDOF 7
