REMARK  Name = ZINC06284999
REMARK  13 active torsions:
REMARK  status: ('A' for Active; 'I' for Inactive)
REMARK    1  A    between atoms: C_1  and  C_2
REMARK    2  A    between atoms: C_2  and  C_3
REMARK    3  A    between atoms: C_7  and  C_30
REMARK    4  A    between atoms: C_8  and  N_9
REMARK    5  A    between atoms: N_9  and  C_10
REMARK    6  A    between atoms: C_10  and  N_12
REMARK    7  A    between atoms: N_12  and  C_13
REMARK    8  A    between atoms: N_12  and  C_20
REMARK    9  A    between atoms: C_13  and  C_14
REMARK   10  A    between atoms: C_22  and  C_28
REMARK   11  A    between atoms: C_22  and  C_29
REMARK   12  A    between atoms: C_24  and  C_26
REMARK   13  A    between atoms: C_24  and  C_27
REMARK                            x       y       z     vdW  Elec       q    Type
REMARK                         _______ _______ _______ _____ _____    ______ ____
ROOT
ATOM      1  N   UNL     1      -2.342  -0.390  -3.805  0.00  0.00    -0.305 N 
ENDROOT
BRANCH   1   2
ATOM      2  C   UNL     1      -1.358   0.699  -3.775  0.00  0.00    +0.073 C 
ATOM      3  C   UNL     1      -0.010   0.145  -3.308  0.00  0.00    +0.009 C 
ATOM      4  C   UNL     1       1.023   1.271  -3.260  0.00  0.00    -0.072 C 
ATOM      5  N   UNL     1       0.572   2.395  -2.453  0.00  0.00    +0.386 N 
ATOM      6  C   UNL     1      -0.782   2.881  -2.668  0.00  0.00    -0.072 C 
ATOM      7  C   UNL     1      -1.812   1.761  -2.775  0.00  0.00    +0.009 C 
ATOM      8  C   UNL     1      -1.166   3.742  -1.442  0.00  0.00    -0.010 C 
ATOM      9  C   UNL     1      -0.869   3.789  -3.897  0.00  0.00    -0.010 C 
ATOM     10  C   UNL     1       1.408   1.696  -4.676  0.00  0.00    -0.010 C 
ATOM     11  C   UNL     1       2.294   0.697  -2.592  0.00  0.00    -0.010 C 
ATOM     12  H   UNL     1       0.670   2.142  -1.467  0.00  0.00    -0.084 HD
ATOM     13  H   UNL     1       1.220   3.173  -2.596  0.00  0.00    -0.084 HD
ENDBRANCH   1   2
BRANCH   1  14
ATOM     14  C   UNL     1      -2.862  -0.861  -2.654  0.00  0.00    +0.138 C 
ATOM     15  S   UNL     1      -4.131  -2.010  -2.694  0.00  0.00    -0.018 S 
BRANCH  14  16
ATOM     16  N   UNL     1      -2.384  -0.426  -1.471  0.00  0.00    -0.296 N 
ATOM     17  H   UNL     1      -2.878   0.234  -0.961  0.00  0.00    +0.154 HD
BRANCH  16  23
ATOM     18  C   UNL     1      -0.482  -0.234   0.004  0.00  0.00    -0.026 A 
ATOM     19  C   UNL     1       0.710  -0.735   0.492  0.00  0.00    +0.005 A 
ATOM     20  C   UNL     1       1.216  -1.923  -0.002  0.00  0.00    +0.001 A 
ATOM     21  C   UNL     1       0.532  -2.613  -0.986  0.00  0.00    +0.005 A 
ATOM     22  C   UNL     1      -0.659  -2.118  -1.478  0.00  0.00    -0.029 A 
ATOM     23  C   UNL     1      -1.174  -0.928  -0.980  0.00  0.00    +0.039 A 
ATOM     24  C   UNL     1      -1.404  -2.870  -2.551  0.00  0.00    +0.045 C 
BRANCH  18  26
ATOM     25  C   UNL     1      -2.032   0.762   1.664  0.00  0.00    +0.009 C 
ATOM     26  C   UNL     1      -1.033   1.061   0.544  0.00  0.00    +0.033 C 
ENDBRANCH  18  26
ENDBRANCH  16  23
ENDBRANCH  14  16
ENDBRANCH   1  14
BRANCH   1  27
ATOM     27  C   UNL     1      -2.759  -0.966  -5.086  0.00  0.00    +0.142 C 
BRANCH  27  28
ATOM     28  C   UNL     1      -3.953  -0.211  -5.611  0.00  0.00    -0.030 A 
ATOM     29  C   UNL     1      -5.230  -0.616  -5.272  0.00  0.00    +0.005 A 
ATOM     30  C   UNL     1      -6.325   0.076  -5.753  0.00  0.00    +0.000 A 
ATOM     31  C   UNL     1      -6.143   1.173  -6.575  0.00  0.00    +0.000 A 
ATOM     32  C   UNL     1      -4.865   1.578  -6.914  0.00  0.00    +0.000 A 
ATOM     33  C   UNL     1      -3.770   0.888  -6.428  0.00  0.00    +0.005 A 
ENDBRANCH  27  28
ENDBRANCH   1  27
TORSDOF 7
