REMARK  Name = ZINC35585677
REMARK  6 active torsions:
REMARK  status: ('A' for Active; 'I' for Inactive)
REMARK    1  A    between atoms: C_1  and  C_2
REMARK    2  A    between atoms: C_2  and  C_3
REMARK    3  A    between atoms: C_3  and  N_4
REMARK    4  A    between atoms: N_4  and  C_5
REMARK    5  A    between atoms: C_5  and  C_7
REMARK    6  A    between atoms: C_5  and  C_14
REMARK                            x       y       z     vdW  Elec       q    Type
REMARK                         _______ _______ _______ _____ _____    ______ ____
ROOT
ATOM      1  C   UNL     1      -2.792  -2.511   0.015  0.00  0.00    -0.002 C 
ENDROOT
BRANCH   1   2
ATOM      2  C   UNL     1      -2.772  -4.013   0.131  0.00  0.00    -0.019 A 
ATOM      3  C   UNL     1      -3.582  -4.824   0.849  0.00  0.00    +0.013 A 
ATOM      4  C   UNL     1      -3.394  -6.205   0.819  0.00  0.00    -0.037 A 
ATOM      5  C   UNL     1      -2.373  -6.663   0.044  0.00  0.00    -0.007 A 
ATOM      6  S   UNL     1      -1.677  -5.188  -0.651  0.00  0.00    -0.099 S 
ATOM      7  C   UNL     1      -1.953  -8.081  -0.165  0.00  0.00    +0.043 C 
ATOM      8  C   UNL     1      -2.617  -8.946   0.917  0.00  0.00    +0.005 C 
ATOM      9  C   UNL     1      -4.102  -8.580   0.996  0.00  0.00    +0.005 C 
ATOM     10  C   UNL     1      -4.266  -7.184   1.600  0.00  0.00    +0.036 C 
ENDBRANCH   1   2
BRANCH   1  11
ATOM     11  C   UNL     1      -3.483  -2.115  -1.264  0.00  0.00    -0.035 A 
ATOM     12  C   UNL     1      -2.750  -1.865  -2.410  0.00  0.00    +0.026 A 
ATOM     13  C   UNL     1      -3.404  -1.510  -3.544  0.00  0.00    +0.056 A 
ATOM     14  S   UNL     1      -5.107  -1.521  -3.007  0.00  0.00    -0.074 S 
ATOM     15  C   UNL     1      -4.833  -2.002  -1.310  0.00  0.00    +0.058 A 
ATOM     16 BR   UNL     1      -6.099  -2.282   0.067  0.00  0.00    -0.042 Br
ATOM     17 BR   UNL     1      -2.695  -1.109  -5.250  0.00  0.00    -0.043 Br
ENDBRANCH   1  11
BRANCH   1  18
ATOM     18  N   UNL     1      -1.413  -2.002   0.005  0.00  0.00    +0.387 N 
ATOM     19  H   UNL     1      -0.941  -2.328  -0.825  0.00  0.00    -0.085 HD
ATOM     20  H   UNL     1      -0.925  -2.337   0.822  0.00  0.00    -0.085 HD
BRANCH  18  21
ATOM     21  C   UNL     1      -1.433  -0.534   0.013  0.00  0.00    -0.082 C 
BRANCH  21  23
ATOM     22  C   UNL     1      -0.019   1.526   0.010  0.00  0.00    +0.002 C 
ATOM     23  C   UNL     1       0.002  -0.004   0.002  0.00  0.00    -0.022 C 
ENDBRANCH  21  23
ENDBRANCH  18  21
ENDBRANCH   1  18
TORSDOF 5
