REMARK  Name = ZINC65255401
REMARK  3 active torsions:
REMARK  status: ('A' for Active; 'I' for Inactive)
REMARK    1  A    between atoms: C_1  and  C_2
REMARK    2  A    between atoms: C_2  and  C_3
REMARK    3  A    between atoms: N_14  and  C_15
REMARK                            x       y       z     vdW  Elec       q    Type
REMARK                         _______ _______ _______ _____ _____    ______ ____
ROOT
ATOM      1  C   UNL     1       1.176  -0.714   0.808  0.00  0.00    +0.129 C 
ATOM      2  N   UNL     1       1.758   0.279   1.375  0.00  0.00    -0.117 NA
ATOM      3  S   UNL     1       2.072   0.263   3.004  0.00  0.00    +0.103 S 
ATOM      4  O   UNL     1       3.452   0.566   3.160  0.00  0.00    -0.146 OA
ATOM      5  O   UNL     1       1.046   1.021   3.629  0.00  0.00    -0.146 OA
ATOM      6  C   UNL     1       1.856  -1.410   3.517  0.00  0.00    +0.153 A 
ATOM      7  C   UNL     1       2.308  -1.843   4.744  0.00  0.00    +0.034 A 
ATOM      8  C   UNL     1       2.105  -3.176   5.083  0.00  0.00    +0.022 A 
ATOM      9  C   UNL     1       1.466  -4.008   4.184  0.00  0.00    +0.113 A 
ATOM     10  N   UNL     1       1.045  -3.560   3.018  0.00  0.00    -0.238 NA
ATOM     11  C   UNL     1       1.216  -2.296   2.655  0.00  0.00    +0.158 A 
ATOM     12  N   UNL     1       0.750  -1.846   1.424  0.00  0.00    -0.239 N 
ENDROOT
BRANCH  12  13
ATOM     13  C   UNL     1      -0.221  -2.616   0.772  0.00  0.00    +0.041 A 
ATOM     14  C   UNL     1      -1.568  -2.317   0.931  0.00  0.00    +0.025 A 
ATOM     15  C   UNL     1      -2.524  -3.077   0.287  0.00  0.00    +0.017 A 
ATOM     16  C   UNL     1      -2.141  -4.137  -0.516  0.00  0.00    +0.018 A 
ATOM     17  C   UNL     1      -0.800  -4.438  -0.676  0.00  0.00    +0.017 A 
ATOM     18  C   UNL     1       0.161  -3.676  -0.039  0.00  0.00    +0.025 A 
ATOM     19 BR   UNL     1      -3.453  -5.176  -1.396  0.00  0.00    -0.050 Br
ENDBRANCH  12  13
BRANCH   1  21
ATOM     20  C   UNL     1       1.590   0.667  -1.210  0.00  0.00    +0.012 C 
ATOM     21  C   UNL     1       0.938  -0.611  -0.676  0.00  0.00    +0.070 C 
ENDBRANCH   1  21
TORSDOF 2
