REMARK  Name = ZINC35033996
REMARK  11 active torsions:
REMARK  status: ('A' for Active; 'I' for Inactive)
REMARK    1  A    between atoms: C_1  and  C_2
REMARK    2  A    between atoms: C_2  and  C_3
REMARK    3  A    between atoms: C_3  and  C_5
REMARK    4  A    between atoms: C_3  and  N_18
REMARK    5  A    between atoms: N_15  and  C_16
REMARK    6  A    between atoms: C_16  and  C_17
REMARK    7  A    between atoms: C_22  and  C_25
REMARK    8  A    between atoms: N_28  and  C_29
REMARK    9  A    between atoms: C_32  and  C_35
REMARK   10  A    between atoms: C_35  and  C_36
REMARK   11  A    between atoms: C_35  and  C_37
REMARK                            x       y       z     vdW  Elec       q    Type
REMARK                         _______ _______ _______ _____ _____    ______ ____
ROOT
ATOM      1  N   UNL     1       2.970   0.185   0.677  0.00  0.00    +0.388 N 
ATOM      2  C   UNL     1       3.021   0.032   2.137  0.00  0.00    -0.058 C 
ATOM      3  C   UNL     1       4.483  -0.036   2.592  0.00  0.00    +0.091 C 
ATOM      4  N   UNL     1       5.186   1.151   2.081  0.00  0.00    -0.286 N 
ATOM      5  C   UNL     1       5.054   1.474   0.652  0.00  0.00    +0.058 C 
ATOM      6  C   UNL     1       3.565   1.470   0.288  0.00  0.00    -0.055 C 
ATOM      7  C   UNL     1       5.651   2.856   0.379  0.00  0.00    +0.026 C 
ATOM      8  C   UNL     1       5.929   1.922   2.900  0.00  0.00    +0.307 C 
ATOM      9  O   UNL     1       6.429   2.948   2.480  0.00  0.00    -0.252 OA
ATOM     10  N   UNL     1       6.118   1.556   4.183  0.00  0.00    -0.269 N 
ATOM     11  H   UNL     1       5.783   0.702   4.497  0.00  0.00    +0.156 HD
ATOM     12  H   UNL     1       3.485  -0.567   0.245  0.00  0.00    -0.081 HD
ENDROOT
BRANCH  10  13
ATOM     13  C   UNL     1       6.797   2.408   5.061  0.00  0.00    +0.035 A 
ATOM     14  C   UNL     1       6.674   3.785   4.929  0.00  0.00    +0.023 A 
ATOM     15  C   UNL     1       7.345   4.623   5.798  0.00  0.00    +0.006 A 
ATOM     16  C   UNL     1       8.139   4.092   6.798  0.00  0.00    -0.045 A 
ATOM     17  C   UNL     1       8.264   2.722   6.931  0.00  0.00    +0.006 A 
ATOM     18  C   UNL     1       7.591   1.878   6.069  0.00  0.00    +0.023 A 
BRANCH  16  19
ATOM     19  C   UNL     1       8.870   5.010   7.744  0.00  0.00    +0.013 C 
ATOM     20  C   UNL     1       8.412   4.734   9.177  0.00  0.00    +0.012 C 
ATOM     21  C   UNL     1      10.376   4.762   7.633  0.00  0.00    +0.012 C 
ENDBRANCH  16  19
ENDBRANCH  10  13
BRANCH   1  22
ATOM     22  C   UNL     1       1.572   0.140   0.230  0.00  0.00    -0.001 C 
BRANCH  22  23
ATOM     23  C   UNL     1       0.953  -1.169   0.649  0.00  0.00    +0.099 A 
ATOM     24  N   UNL     1       1.391  -2.261   0.100  0.00  0.00    -0.235 NA
ATOM     25  C   UNL     1       0.882  -3.475   0.427  0.00  0.00    +0.078 A 
ATOM     26  C   UNL     1       1.354  -4.650  -0.163  0.00  0.00    +0.028 A 
ATOM     27  C   UNL     1       0.808  -5.861   0.200  0.00  0.00    +0.002 A 
ATOM     28  C   UNL     1      -0.207  -5.930   1.145  0.00  0.00    +0.001 A 
ATOM     29  C   UNL     1      -0.688  -4.785   1.741  0.00  0.00    +0.015 A 
ATOM     30  C   UNL     1      -0.150  -3.549   1.388  0.00  0.00    +0.065 A 
ATOM     31  C   UNL     1      -0.623  -2.294   1.990  0.00  0.00    +0.262 A 
ATOM     32  O   UNL     1      -1.510  -2.288   2.825  0.00  0.00    -0.267 OA
ATOM     33  N   UNL     1      -0.031  -1.146   1.585  0.00  0.00    -0.298 N 
BRANCH  33  34
ATOM     34  C   UNL     1      -0.460   0.133   2.156  0.00  0.00    +0.123 C 
ATOM     35  C   UNL     1      -1.608   0.705   1.322  0.00  0.00    +0.027 C 
ENDBRANCH  33  34
ENDBRANCH  22  23
BRANCH  22  37
ATOM     36  C   UNL     1       0.060   0.279  -1.754  0.00  0.00    +0.002 C 
ATOM     37  C   UNL     1       1.519   0.265  -1.294  0.00  0.00    -0.011 C 
ENDBRANCH  22  37
ENDBRANCH   1  22
TORSDOF 6
