REMARK  Name = ZINC39359365
REMARK  8 active torsions:
REMARK  status: ('A' for Active; 'I' for Inactive)
REMARK    1  A    between atoms: C_1  and  C_2
REMARK    2  A    between atoms: C_3  and  C_10
REMARK    3  A    between atoms: C_13  and  O_37
REMARK    4  A    between atoms: C_24  and  C_27
REMARK    5  A    between atoms: C_30  and  O_35
REMARK    6  A    between atoms: C_31  and  O_33
REMARK    7  A    between atoms: O_33  and  C_34
REMARK    8  A    between atoms: O_35  and  C_36
REMARK                            x       y       z     vdW  Elec       q    Type
REMARK                         _______ _______ _______ _____ _____    ______ ____
ROOT
ATOM      1  C   UNL     1      -0.006  -0.309  -2.522  0.00  0.00    +0.107 C 
ATOM      2  C   UNL     1       1.186   0.562  -2.784  0.00  0.00    +0.050 C 
ATOM      3  C   UNL     1       2.352   0.730  -2.200  0.00  0.00    +0.235 C 
ATOM      4  N   UNL     1       3.024   1.761  -2.780  0.00  0.00    -0.114 NA
ATOM      5  N   UNL     1       2.437   2.281  -3.738  0.00  0.00    -0.157 NA
ATOM      6  C   UNL     1       1.190   1.545  -3.958  0.00  0.00    +0.245 C 
ATOM      7  N   UNL     1      -0.002   2.367  -3.735  0.00  0.00    -0.321 N 
ATOM      8  C   UNL     1      -1.171   1.768  -3.336  0.00  0.00    +0.014 C 
ATOM      9  C   UNL     1      -1.243   0.541  -2.775  0.00  0.00    +0.025 C 
ATOM     10  C   UNL     1      -2.474  -0.021  -2.394  0.00  0.00    +0.162 C 
ATOM     11  O   UNL     1      -2.491  -1.122  -1.881  0.00  0.00    -0.292 OA
ATOM     12  C   UNL     1      -3.770   0.712  -2.605  0.00  0.00    +0.088 C 
ATOM     13  C   UNL     1      -3.615   1.642  -3.814  0.00  0.00    +0.032 C 
ATOM     14  C   UNL     1      -2.431   2.581  -3.550  0.00  0.00    +0.059 C 
ATOM     15  H   UNL     1       0.035   3.327  -3.867  0.00  0.00    +0.148 HD
ENDROOT
BRANCH   1  18
ATOM     16  C   UNL     1      -0.018   1.503   0.010  0.00  0.00    +0.067 C 
ATOM     17  C   UNL     1       0.002  -0.004   0.002  0.00  0.00    +0.062 A 
ATOM     18  C   UNL     1       0.008  -0.784  -1.092  0.00  0.00    +0.058 A 
ATOM     19  N   UNL     1       0.028  -2.110  -0.667  0.00  0.00    -0.296 N 
ATOM     20  C   UNL     1       0.043  -3.369  -1.226  0.00  0.00    +0.100 A 
ATOM     21  C   UNL     1       0.061  -4.457  -0.458  0.00  0.00    +0.067 A 
ATOM     22  S   UNL     1       0.059  -3.749   1.182  0.00  0.00    -0.058 S 
ATOM     23  C   UNL     1       0.034  -2.038   0.701  0.00  0.00    +0.178 A 
ATOM     24  N   UNL     1       0.024  -0.795   1.086  0.00  0.00    -0.226 NA
ENDBRANCH   1  18
BRANCH  13  25
ATOM     25  C   UNL     1      -4.874   2.450  -3.998  0.00  0.00    -0.040 A 
ATOM     26  C   UNL     1      -5.306   3.292  -2.990  0.00  0.00    +0.008 A 
ATOM     27  C   UNL     1      -6.460   4.035  -3.154  0.00  0.00    +0.049 A 
ATOM     28  C   UNL     1      -7.186   3.937  -4.330  0.00  0.00    +0.161 A 
ATOM     29  C   UNL     1      -6.751   3.090  -5.345  0.00  0.00    +0.162 A 
ATOM     30  C   UNL     1      -5.591   2.351  -5.176  0.00  0.00    +0.053 A 
BRANCH  29  31
ATOM     31  O   UNL     1      -7.460   2.990  -6.501  0.00  0.00    -0.491 OA
ATOM     32  C   UNL     1      -6.954   2.100  -7.498  0.00  0.00    +0.277 C 
ENDBRANCH  29  31
BRANCH  28  33
ATOM     33  O   UNL     1      -8.322   4.667  -4.493  0.00  0.00    -0.491 OA
ATOM     34  C   UNL     1      -8.709   5.515  -3.410  0.00  0.00    +0.277 C 
ENDBRANCH  28  33
ENDBRANCH  13  25
BRANCH   3  35
ATOM     35  O   UNL     1       2.818  -0.018  -1.165  0.00  0.00    -0.491 OA
ATOM     36  H   UNL     1       3.696   0.242  -0.856  0.00  0.00    +0.294 HD
ENDBRANCH   3  35
TORSDOF 5
