REMARK  Name = ZINC58421478
REMARK  6 active torsions:
REMARK  status: ('A' for Active; 'I' for Inactive)
REMARK    1  A    between atoms: C_1  and  C_2
REMARK    2  A    between atoms: C_2  and  N_3
REMARK    3  A    between atoms: N_3  and  C_17
REMARK    4  A    between atoms: C_11  and  C_13
REMARK    5  A    between atoms: C_17  and  C_18
REMARK    6  A    between atoms: C_17  and  C_19
REMARK                            x       y       z     vdW  Elec       q    Type
REMARK                         _______ _______ _______ _____ _____    ______ ____
ROOT
ATOM      1  N   UNL     1       0.754  -0.496   1.076  0.00  0.00    -0.312 N 
ATOM      2  C   UNL     1       0.166  -0.872   2.270  0.00  0.00    +0.134 A 
ATOM      3  C   UNL     1      -1.247  -1.006   2.368  0.00  0.00    +0.051 A 
ATOM      4  C   UNL     1      -2.261  -0.793   1.322  0.00  0.00    -0.025 A 
ATOM      5  C   UNL     1      -3.542  -0.986   1.671  0.00  0.00    -0.004 A 
ATOM      6  S   UNL     1      -3.489  -1.460   3.385  0.00  0.00    -0.073 S 
ATOM      7  C   UNL     1      -1.735  -1.393   3.628  0.00  0.00    +0.114 A 
ATOM      8  N   UNL     1      -0.923  -1.614   4.644  0.00  0.00    -0.225 NA
ATOM      9  C   UNL     1       0.380  -1.474   4.495  0.00  0.00    +0.129 A 
ATOM     10  N   UNL     1       0.909  -1.118   3.337  0.00  0.00    -0.217 NA
ATOM     11  C   UNL     1       1.288  -1.731   5.670  0.00  0.00    +0.088 C 
ATOM     12  C   UNL     1      -4.488  -0.734   0.527  0.00  0.00    +0.043 C 
ATOM     13  C   UNL     1      -3.654   0.068  -0.495  0.00  0.00    +0.010 C 
ATOM     14  C   UNL     1      -2.221  -0.384  -0.154  0.00  0.00    +0.037 C 
ENDROOT
BRANCH   1  15
ATOM     15  C   UNL     1       1.312  -1.514   0.182  0.00  0.00    +0.069 C 
ATOM     16  C   UNL     1       0.718  -1.345  -1.218  0.00  0.00    +0.028 C 
ATOM     17  C   UNL     1       2.832  -1.355   0.113  0.00  0.00    +0.028 C 
ENDBRANCH   1  15
BRANCH   1  19
ATOM     18  C   UNL     1       2.039   1.564   1.370  0.00  0.00    +0.024 C 
ATOM     19  C   UNL     1       0.821   0.919   0.705  0.00  0.00    +0.103 C 
ENDBRANCH   1  19
TORSDOF 2
