REMARK  Name = ZINC10699601
REMARK  8 active torsions:
REMARK  status: ('A' for Active; 'I' for Inactive)
REMARK    1  A    between atoms: C_1  and  C_2
REMARK    2  A    between atoms: C_4  and  C_31
REMARK    3  A    between atoms: C_5  and  C_9
REMARK    4  A    between atoms: C_6  and  C_8
REMARK    5  A    between atoms: C_9  and  C_10
REMARK    6  A    between atoms: N_12  and  C_13
REMARK    7  A    between atoms: C_14  and  C_22
REMARK    8  A    between atoms: C_21  and  N_59
REMARK                            x       y       z     vdW  Elec       q    Type
REMARK                         _______ _______ _______ _____ _____    ______ ____
ROOT
ATOM      1  C   UNL     1       3.162   3.687  -0.333  0.00  0.00    +0.082 A 
ATOM      2  C   UNL     1       1.813   3.371  -0.364  0.00  0.00    +0.039 A 
ATOM      3  C   UNL     1       1.424   2.023  -0.001  0.00  0.00    -0.029 A 
ATOM      4  C   UNL     1       2.428   1.181   0.344  0.00  0.00    -0.021 A 
ATOM      5  S   UNL     1       3.902   2.150   0.192  0.00  0.00    -0.079 S 
ATOM      6  C   UNL     1       2.290  -0.250   0.757  0.00  0.00    -0.036 C 
ATOM      7  C   UNL     1       0.002  -0.004   0.002  0.00  0.00    -0.074 C 
ATOM      8  C   UNL     1      -0.019   1.527   0.010  0.00  0.00    +0.018 C 
ATOM      9  C   UNL     1       0.635  -1.932   1.324  0.00  0.00    -0.096 C 
ATOM     10  N   UNL     1       0.866  -0.489   1.097  0.00  0.00    +0.381 N 
ATOM     11  H   UNL     1       0.637   0.025   1.956  0.00  0.00    -0.082 HD
ENDROOT
BRANCH   2  12
ATOM     12  C   UNL     1       0.807   4.373  -0.754  0.00  0.00    +0.112 A 
ATOM     13  N   UNL     1      -0.501   4.240  -0.843  0.00  0.00    -0.239 NA
ATOM     14  C   UNL     1      -1.308   5.256  -1.212  0.00  0.00    +0.079 A 
ATOM     15  C   UNL     1      -2.717   5.248  -1.342  0.00  0.00    +0.029 A 
ATOM     16  C   UNL     1      -3.389   6.374  -1.738  0.00  0.00    +0.002 A 
ATOM     17  C   UNL     1      -2.720   7.555  -2.025  0.00  0.00    +0.001 A 
ATOM     18  C   UNL     1      -1.343   7.599  -1.909  0.00  0.00    +0.017 A 
ATOM     19  C   UNL     1      -0.660   6.476  -1.513  0.00  0.00    +0.040 A 
ATOM     20  S   UNL     1       1.049   6.077  -1.236  0.00  0.00    -0.067 S 
ENDBRANCH   2  12
BRANCH   1  23
ATOM     21  C   UNL     1       5.122   5.006  -0.542  0.00  0.00    +0.222 C 
ATOM     22  O   UNL     1       5.788   4.052  -0.198  0.00  0.00    -0.275 OA
ATOM     23  N   UNL     1       3.782   4.895  -0.634  0.00  0.00    -0.279 N 
ATOM     24  H   UNL     1       3.250   5.658  -0.909  0.00  0.00    +0.155 HD
BRANCH  21  25
ATOM     25  C   UNL     1       5.794   6.315  -0.869  0.00  0.00    +0.131 C 
BRANCH  25  30
ATOM     26  C   UNL     1      11.506   5.775  -0.178  0.00  0.00    +0.044 C 
ATOM     27  C   UNL     1      10.016   5.916  -0.358  0.00  0.00    -0.050 A 
ATOM     28  C   UNL     1       9.439   5.641  -1.584  0.00  0.00    +0.007 A 
ATOM     29  C   UNL     1       8.072   5.770  -1.749  0.00  0.00    -0.046 A 
ATOM     30  C   UNL     1       7.283   6.174  -0.689  0.00  0.00    -0.033 A 
ATOM     31  C   UNL     1       7.861   6.454   0.536  0.00  0.00    -0.046 A 
ATOM     32  C   UNL     1       9.227   6.320   0.702  0.00  0.00    +0.007 A 
ATOM     33  C   UNL     1       7.001   6.900   1.690  0.00  0.00    +0.044 C 
ATOM     34  C   UNL     1       7.443   5.471  -3.085  0.00  0.00    +0.044 C 
ENDBRANCH  25  30
ENDBRANCH  21  25
ENDBRANCH   1  23
TORSDOF 4
