REMARK  Name = ZINC06669969
REMARK  8 active torsions:
REMARK  status: ('A' for Active; 'I' for Inactive)
REMARK    1  A    between atoms: C_1  and  C_2
REMARK    2  A    between atoms: C_2  and  C_27
REMARK    3  A    between atoms: C_3  and  C_4
REMARK    4  A    between atoms: C_4  and  O_5
REMARK    5  A    between atoms: O_5  and  C_6
REMARK    6  A    between atoms: C_9  and  C_13
REMARK    7  A    between atoms: C_10  and  O_12
REMARK    8  A    between atoms: C_14  and  C_20
REMARK                            x       y       z     vdW  Elec       q    Type
REMARK                         _______ _______ _______ _____ _____    ______ ____
ROOT
ATOM      1  C   UNL     1       8.431   1.954   1.033  0.00  0.00    +0.087 A 
ATOM      2  C   UNL     1       9.181   2.183  -0.139  0.00  0.00    +0.026 A 
ATOM      3  C   UNL     1      10.524   2.533  -0.004  0.00  0.00    +0.125 A 
ATOM      4  N   UNL     1      11.044   2.637   1.208  0.00  0.00    -0.222 NA
ATOM      5  C   UNL     1      10.311   2.415   2.289  0.00  0.00    +0.213 A 
ATOM      6  N   UNL     1       9.031   2.086   2.214  0.00  0.00    -0.214 NA
ATOM      7  N   UNL     1      10.900   2.536   3.536  0.00  0.00    -0.327 N 
ATOM      8  H   UNL     1      11.836   2.781   3.608  0.00  0.00    +0.145 HD
ATOM      9  H   UNL     1      10.377   2.377   4.337  0.00  0.00    +0.145 HD
ENDROOT
BRANCH   2  10
ATOM     10  C   UNL     1       8.558   2.055  -1.477  0.00  0.00    -0.014 A 
ATOM     11  C   UNL     1       7.931   0.865  -1.846  0.00  0.00    +0.010 A 
ATOM     12  C   UNL     1       7.352   0.751  -3.094  0.00  0.00    +0.020 A 
ATOM     13  C   UNL     1       7.394   1.815  -3.978  0.00  0.00    +0.041 A 
ATOM     14  C   UNL     1       8.017   2.998  -3.618  0.00  0.00    +0.020 A 
ATOM     15  C   UNL     1       8.593   3.125  -2.370  0.00  0.00    +0.010 A 
ATOM     16 CL   UNL     1       6.665   1.665  -5.546  0.00  0.00    -0.084 Cl
ENDBRANCH   2  10
BRANCH   1  20
ATOM     17  C   UNL     1       4.323   0.880   0.798  0.00  0.00    +0.124 A 
ATOM     18  C   UNL     1       4.795   1.985   0.100  0.00  0.00    +0.046 A 
ATOM     19  C   UNL     1       6.125   2.336   0.174  0.00  0.00    +0.017 A 
ATOM     20  C   UNL     1       7.003   1.581   0.952  0.00  0.00    +0.043 A 
ATOM     21  C   UNL     1       6.527   0.467   1.655  0.00  0.00    +0.129 A 
ATOM     22  C   UNL     1       5.187   0.126   1.579  0.00  0.00    +0.091 A 
BRANCH  21  23
ATOM     23  O   UNL     1       7.375  -0.273   2.414  0.00  0.00    -0.506 OA
ATOM     24  H   UNL     1       7.447   0.027   3.330  0.00  0.00    +0.292 HD
ENDBRANCH  21  23
BRANCH  17  25
ATOM     25  O   UNL     1       3.010   0.540   0.721  0.00  0.00    -0.488 OA
BRANCH  25  26
ATOM     26  C   UNL     1       2.176   1.358  -0.101  0.00  0.00    +0.256 C 
BRANCH  26  29
ATOM     27  C   UNL     1       0.009   3.142   0.176  0.00  0.00    +0.038 C 
ATOM     28  C   UNL     1      -0.238   1.656   0.121  0.00  0.00    -0.076 C 
ATOM     29  C   UNL     1       0.764   0.832  -0.064  0.00  0.00    +0.012 C 
ATOM     30  C   UNL     1      -1.637   1.118   0.279  0.00  0.00    +0.038 C 
ENDBRANCH  26  29
ENDBRANCH  25  26
ENDBRANCH  17  25
ENDBRANCH   1  20
TORSDOF 6
