REMARK  Name = ZINC22791288
REMARK  10 active torsions:
REMARK  status: ('A' for Active; 'I' for Inactive)
REMARK    1  A    between atoms: C_1  and  C_2
REMARK    2  A    between atoms: C_5  and  C_36
REMARK    3  A    between atoms: N_8  and  S_10
REMARK    4  A    between atoms: S_10  and  C_13
REMARK    5  A    between atoms: C_16  and  N_19
REMARK    6  A    between atoms: C_20  and  C_22
REMARK    7  A    between atoms: C_22  and  N_23
REMARK    8  A    between atoms: N_26  and  C_29
REMARK    9  A    between atoms: C_29  and  C_30
REMARK   10  A    between atoms: N_32  and  C_33
REMARK                            x       y       z     vdW  Elec       q    Type
REMARK                         _______ _______ _______ _____ _____    ______ ____
ROOT
ATOM      1  N   UNL     1      -0.011   0.966   0.007  0.00  0.00    -0.284 N 
ATOM      2  C   UNL     1       1.050   1.777  -0.174  0.00  0.00    +0.231 C 
ATOM      3  O   UNL     1       0.879   2.953  -0.417  0.00  0.00    -0.274 OA
ATOM      4  H   UNL     1       0.140  -0.115   0.144  0.00  0.00    +0.155 HD
ENDROOT
BRANCH   1   8
ATOM      5  C   UNL     1      -3.863   2.553   0.051  0.00  0.00    +0.106 A 
ATOM      6  C   UNL     1      -3.645   1.284  -0.456  0.00  0.00    +0.030 A 
ATOM      7  C   UNL     1      -2.369   0.756  -0.472  0.00  0.00    +0.025 A 
ATOM      8  C   UNL     1      -1.305   1.499   0.022  0.00  0.00    +0.034 A 
ATOM      9  C   UNL     1      -1.528   2.769   0.536  0.00  0.00    +0.025 A 
ATOM     10  C   UNL     1      -2.805   3.295   0.543  0.00  0.00    +0.030 A 
BRANCH   5  11
ATOM     11  S   UNL     1      -5.492   3.224   0.068  0.00  0.00    +0.061 S 
ATOM     12  O   UNL     1      -5.348   4.637   0.091  0.00  0.00    -0.153 OA
ATOM     13  O   UNL     1      -6.221   2.549  -0.948  0.00  0.00    -0.153 OA
BRANCH  11  19
ATOM     14  C   UNL     1      -7.228  -0.509   3.038  0.00  0.00    +0.009 C 
ATOM     15  C   UNL     1      -6.369   0.736   2.808  0.00  0.00    +0.002 C 
ATOM     16  C   UNL     1      -6.378   1.603   4.069  0.00  0.00    +0.009 C 
ATOM     17  C   UNL     1      -5.493   2.833   3.851  0.00  0.00    +0.002 C 
ATOM     18  C   UNL     1      -6.053   3.661   2.690  0.00  0.00    +0.112 C 
ATOM     19  N   UNL     1      -6.183   2.795   1.511  0.00  0.00    -0.176 NA
ATOM     20  C   UNL     1      -6.943   1.544   1.634  0.00  0.00    +0.112 C 
ATOM     21  C   UNL     1      -4.069   2.384   3.518  0.00  0.00    +0.009 C 
ENDBRANCH  11  19
ENDBRANCH   5  11
ENDBRANCH   1   8
BRANCH   2  22
ATOM     22  C   UNL     1       2.448   1.223  -0.076  0.00  0.00    +0.180 C 
BRANCH  22  23
ATOM     23  N   UNL     1       3.419   2.299  -0.312  0.00  0.00    -0.298 NA
ATOM     24  C   UNL     1       3.337   2.789  -1.695  0.00  0.00    +0.066 C 
ATOM     25  C   UNL     1       4.306   3.960  -1.877  0.00  0.00    -0.063 C 
ATOM     26  N   UNL     1       5.670   3.517  -1.559  0.00  0.00    +0.387 N 
ATOM     27  C   UNL     1       5.752   3.027  -0.175  0.00  0.00    -0.063 C 
ATOM     28  C   UNL     1       4.784   1.857   0.007  0.00  0.00    +0.066 C 
ATOM     29  H   UNL     1       5.922   2.683  -2.230  0.00  0.00    -0.081 HD
BRANCH  26  30
ATOM     30  C   UNL     1       6.642   4.594  -1.794  0.00  0.00    +0.019 C 
BRANCH  30  31
ATOM     31  C   UNL     1       6.703   4.901  -3.268  0.00  0.00    +0.197 C 
ATOM     32  O   UNL     1       6.006   4.284  -4.046  0.00  0.00    -0.278 OA
ATOM     33  N   UNL     1       7.532   5.861  -3.723  0.00  0.00    -0.314 N 
ATOM     34  H   UNL     1       8.164   6.421  -3.018  0.00  0.00    +0.149 HD
BRANCH  33  35
ATOM     35  C   UNL     1       7.592   6.160  -5.156  0.00  0.00    +0.073 C 
ATOM     36  C   UNL     1       8.975   6.358  -5.779  0.00  0.00    +0.024 C 
ATOM     37  C   UNL     1       8.051   7.560  -5.567  0.00  0.00    +0.024 C 
ENDBRANCH  33  35
ENDBRANCH  30  31
ENDBRANCH  26  30
ENDBRANCH  22  23
ENDBRANCH   2  22
TORSDOF 8
