REMARK  Name = ZINC12791630
REMARK  11 active torsions:
REMARK  status: ('A' for Active; 'I' for Inactive)
REMARK    1  A    between atoms: C_1  and  C_2
REMARK    2  A    between atoms: C_2  and  C_4
REMARK    3  A    between atoms: C_2  and  O_19
REMARK    4  A    between atoms: C_16  and  C_17
REMARK    5  A    between atoms: C_16  and  C_18
REMARK    6  A    between atoms: O_19  and  C_20
REMARK    7  A    between atoms: C_20  and  C_22
REMARK    8  A    between atoms: C_22  and  C_23
REMARK    9  A    between atoms: C_23  and  N_24
REMARK   10  A    between atoms: N_24  and  S_25
REMARK   11  A    between atoms: S_25  and  C_28
REMARK                            x       y       z     vdW  Elec       q    Type
REMARK                         _______ _______ _______ _____ _____    ______ ____
ROOT
ATOM      1  C   UNL     1      -2.169   2.233   0.766  0.00  0.00    +0.062 C 
ATOM      2  C   UNL     1      -1.310   2.215  -0.499  0.00  0.00    +0.259 C 
ENDROOT
BRANCH   2   3
ATOM      3  C   UNL     1      -0.263   1.137  -0.380  0.00  0.00    +0.261 C 
ATOM      4  O   UNL     1       0.697   1.301   0.343  0.00  0.00    -0.271 OA
ATOM      5  N   UNL     1      -0.390  -0.006  -1.082  0.00  0.00    -0.252 N 
ATOM      6  C   UNL     1      -1.553  -0.278  -1.820  0.00  0.00    +0.059 A 
ATOM      7  C   UNL     1      -2.779   0.232  -1.439  0.00  0.00    +0.025 A 
ATOM      8  C   UNL     1      -3.905  -0.054  -2.189  0.00  0.00    +0.002 A 
ATOM      9  C   UNL     1      -3.805  -0.845  -3.320  0.00  0.00    +0.002 A 
ATOM     10  C   UNL     1      -2.581  -1.354  -3.711  0.00  0.00    +0.025 A 
ATOM     11  C   UNL     1      -1.447  -1.071  -2.967  0.00  0.00    +0.055 A 
ATOM     12  N   UNL     1      -0.197  -1.571  -3.348  0.00  0.00    -0.282 N 
ATOM     13  C   UNL     1       0.846  -1.539  -2.497  0.00  0.00    +0.241 C 
ATOM     14  O   UNL     1       1.931  -1.938  -2.865  0.00  0.00    -0.273 OA
ATOM     15  C   UNL     1       0.682  -1.012  -1.095  0.00  0.00    +0.113 C 
ATOM     16  C   UNL     1       1.992  -0.370  -0.633  0.00  0.00    +0.042 C 
ATOM     17  C   UNL     1       0.316  -2.163  -0.155  0.00  0.00    +0.042 C 
ATOM     18  H   UNL     1      -0.081  -1.946  -4.235  0.00  0.00    +0.155 HD
ENDBRANCH   2   3
BRANCH   2  19
ATOM     19  O   UNL     1      -0.662   3.503  -0.663  0.00  0.00    -0.452 OA
BRANCH  19  20
ATOM     20  C   UNL     1      -1.323   4.433  -1.371  0.00  0.00    +0.309 C 
ATOM     21  O   UNL     1      -2.408   4.177  -1.838  0.00  0.00    -0.251 OA
BRANCH  20  22
ATOM     22  C   UNL     1      -0.713   5.794  -1.583  0.00  0.00    +0.137 C 
BRANCH  22  23
ATOM     23  C   UNL     1      -1.664   6.655  -2.416  0.00  0.00    +0.117 C 
BRANCH  23  24
ATOM     24  N   UNL     1      -1.071   7.979  -2.622  0.00  0.00    -0.189 NA
ATOM     25  H   UNL     1      -0.318   8.263  -2.080  0.00  0.00    +0.148 HD
BRANCH  24  26
ATOM     26  S   UNL     1      -1.685   8.990  -3.781  0.00  0.00    +0.065 S 
ATOM     27  O   UNL     1      -0.924  10.189  -3.718  0.00  0.00    -0.153 OA
ATOM     28  O   UNL     1      -1.800   8.222  -4.971  0.00  0.00    -0.153 OA
BRANCH  26  29
ATOM     29  C   UNL     1      -3.325   9.408  -3.291  0.00  0.00    +0.142 A 
ATOM     30  C   UNL     1      -3.749  10.439  -2.519  0.00  0.00    +0.036 A 
ATOM     31  C   UNL     1      -5.101  10.575  -2.266  0.00  0.00    +0.010 A 
ATOM     32  C   UNL     1      -5.962   9.667  -2.788  0.00  0.00    +0.047 A 
ATOM     33  S   UNL     1      -4.859   8.580  -3.675  0.00  0.00    -0.077 S 
ENDBRANCH  26  29
ENDBRANCH  24  26
ENDBRANCH  23  24
ENDBRANCH  22  23
ENDBRANCH  20  22
ENDBRANCH  19  20
ENDBRANCH   2  19
TORSDOF 8
