REMARK  Name = ZINC11821527
REMARK  10 active torsions:
REMARK  status: ('A' for Active; 'I' for Inactive)
REMARK    1  A    between atoms: C_1  and  C_2
REMARK    2  A    between atoms: C_2  and  O_3
REMARK    3  A    between atoms: O_3  and  C_4
REMARK    4  A    between atoms: C_7  and  C_10
REMARK    5  A    between atoms: C_10  and  N_67
REMARK    6  A    between atoms: C_16  and  C_18
REMARK    7  A    between atoms: C_18  and  C_19
REMARK    8  A    between atoms: N_21  and  C_22
REMARK    9  A    between atoms: C_22  and  C_23
REMARK   10  A    between atoms: C_23  and  N_24
REMARK                            x       y       z     vdW  Elec       q    Type
REMARK                         _______ _______ _______ _____ _____    ______ ____
ROOT
ATOM      1  C   UNL     1       1.867  -1.021  -9.490  0.00  0.00    -0.058 C 
ATOM      2  C   UNL     1       2.818  -1.803 -10.397  0.00  0.00    +0.085 C 
ATOM      3  N   UNL     1       3.136  -3.095  -9.794  0.00  0.00    -0.318 N 
ATOM      4  C   UNL     1       2.946  -3.358  -8.497  0.00  0.00    +0.200 C 
ATOM      5  O   UNL     1       3.266  -4.448  -8.072  0.00  0.00    -0.278 OA
ATOM      6  C   UNL     1       2.353  -2.359  -7.543  0.00  0.00    +0.028 C 
ATOM      7  H   UNL     1       3.501  -3.793 -10.360  0.00  0.00    +0.149 HD
ATOM      8  N   UNL     1       2.439  -1.008  -8.129  0.00  0.00    +0.391 N 
ATOM      9  H   UNL     1       3.425  -0.728  -8.182  0.00  0.00    -0.080 HD
ENDROOT
BRANCH   8  10
ATOM     10  C   UNL     1       1.708  -0.041  -7.279  0.00  0.00    -0.042 C 
BRANCH  10  14
ATOM     11  C   UNL     1       1.625   3.757  -9.237  0.00  0.00    +0.121 A 
ATOM     12  C   UNL     1       0.602   2.844  -9.447  0.00  0.00    +0.046 A 
ATOM     13  C   UNL     1       0.631   1.617  -8.813  0.00  0.00    +0.005 A 
ATOM     14  C   UNL     1       1.679   1.299  -7.969  0.00  0.00    -0.064 A 
ATOM     15  C   UNL     1       2.697   2.209  -7.754  0.00  0.00    +0.005 A 
ATOM     16  C   UNL     1       2.675   3.435  -8.390  0.00  0.00    +0.046 A 
BRANCH  11  17
ATOM     17  O   UNL     1       1.599   4.965  -9.859  0.00  0.00    -0.492 OA
BRANCH  17  19
ATOM     18  C   UNL     1       2.483   7.153 -10.379  0.00  0.00    +0.048 C 
ATOM     19  C   UNL     1       2.685   5.855  -9.596  0.00  0.00    +0.225 C 
ENDBRANCH  17  19
ENDBRANCH  11  17
ENDBRANCH  10  14
ENDBRANCH   8  10
BRANCH   6  20
ATOM     20  C   UNL     1       3.137  -2.384  -6.230  0.00  0.00    +0.089 C 
BRANCH  20  21
ATOM     21  C   UNL     1       4.574  -2.015  -6.496  0.00  0.00    +0.212 C 
ATOM     22  O   UNL     1       4.914  -1.663  -7.606  0.00  0.00    -0.276 OA
ATOM     23  N   UNL     1       5.481  -2.077  -5.501  0.00  0.00    -0.314 N 
ATOM     24  H   UNL     1       5.209  -2.358  -4.613  0.00  0.00    +0.149 HD
BRANCH  23  25
ATOM     25  C   UNL     1       6.878  -1.718  -5.760  0.00  0.00    +0.123 C 
BRANCH  25  26
ATOM     26  C   UNL     1       7.691  -1.873  -4.473  0.00  0.00    +0.124 C 
BRANCH  26  27
ATOM     27  N   UNL     1       9.091  -1.514  -4.732  0.00  0.00    -0.328 N 
ATOM     28  C   UNL     1       9.180  -0.299  -5.544  0.00  0.00    +0.105 C 
ATOM     29  C   UNL     1      10.660   0.041  -5.759  0.00  0.00    +0.024 C 
ATOM     30  C   UNL     1      11.246   0.466  -4.410  0.00  0.00    +0.038 C 
ATOM     31  C   UNL     1      10.839  -0.522  -3.346  0.00  0.00    -0.026 A 
ATOM     32  C   UNL     1       9.814  -1.432  -3.543  0.00  0.00    +0.033 A 
ATOM     33  C   UNL     1       9.478  -2.317  -2.518  0.00  0.00    +0.023 A 
ATOM     34  C   UNL     1      10.161  -2.291  -1.321  0.00  0.00    +0.002 A 
ATOM     35  C   UNL     1      11.187  -1.383  -1.131  0.00  0.00    +0.000 A 
ATOM     36  C   UNL     1      11.522  -0.503  -2.141  0.00  0.00    +0.005 A 
ENDBRANCH  26  27
ENDBRANCH  25  26
ENDBRANCH  23  25
ENDBRANCH  20  21
ENDBRANCH   6  20
TORSDOF 9
