REMARK  Name = ZINC09199444
REMARK  13 active torsions:
REMARK  status: ('A' for Active; 'I' for Inactive)
REMARK    1  A    between atoms: C_1  and  C_2
REMARK    2  A    between atoms: C_2  and  C_3
REMARK    3  A    between atoms: C_3  and  C_4
REMARK    4  A    between atoms: C_4  and  N_5
REMARK    5  A    between atoms: C_9  and  S_30
REMARK    6  A    between atoms: C_13  and  C_14
REMARK    7  A    between atoms: C_14  and  N_65
REMARK    8  A    between atoms: C_18  and  C_20
REMARK    9  A    between atoms: C_22  and  O_28
REMARK   10  A    between atoms: C_25  and  O_26
REMARK   11  A    between atoms: O_26  and  C_27
REMARK   12  A    between atoms: O_28  and  C_29
REMARK   13  A    between atoms: S_30  and  N_33
REMARK                            x       y       z     vdW  Elec       q    Type
REMARK                         _______ _______ _______ _____ _____    ______ ____
ROOT
ATOM      1  N   UNL     1       4.576  -1.103  -2.296  0.00  0.00    -0.329 N 
ATOM      2  C   UNL     1       3.649  -0.911  -1.291  0.00  0.00    +0.069 A 
ATOM      3  C   UNL     1       2.365  -0.386  -1.247  0.00  0.00    +0.030 A 
ATOM      4  C   UNL     1       1.688  -0.336  -0.048  0.00  0.00    +0.030 A 
ATOM      5  C   UNL     1       2.281  -0.807   1.115  0.00  0.00    +0.107 A 
ATOM      6  C   UNL     1       3.546  -1.322   1.092  0.00  0.00    +0.058 A 
ATOM      7  C   UNL     1       4.249  -1.388  -0.114  0.00  0.00    +0.091 A 
ATOM      8  N   UNL     1       5.485  -1.837  -0.453  0.00  0.00    -0.234 NA
ATOM      9  C   UNL     1       5.675  -1.670  -1.730  0.00  0.00    +0.094 A 
ENDROOT
BRANCH   5  10
ATOM     10  S   UNL     1       1.397  -0.733   2.637  0.00  0.00    +0.056 S 
ATOM     11  O   UNL     1       0.433   0.301   2.497  0.00  0.00    -0.153 OA
ATOM     12  O   UNL     1       2.370  -0.732   3.673  0.00  0.00    -0.153 OA
BRANCH  10  13
ATOM     13  N   UNL     1       0.553  -2.150   2.783  0.00  0.00    -0.204 NA
ATOM     14  H   UNL     1       0.615  -2.825   2.088  0.00  0.00    +0.144 HD
ATOM     15  H   UNL     1       0.000  -2.308   3.564  0.00  0.00    +0.144 HD
ENDBRANCH  10  13
ENDBRANCH   5  10
BRANCH   1  16
ATOM     16  C   UNL     1       4.407  -0.760  -3.710  0.00  0.00    +0.123 C 
BRANCH  16  17
ATOM     17  C   UNL     1       4.773   0.710  -3.926  0.00  0.00    +0.021 C 
BRANCH  17  19
ATOM     18  C   UNL     1       5.074   2.508  -5.635  0.00  0.00    +0.004 C 
ATOM     19  C   UNL     1       4.707   1.038  -5.419  0.00  0.00    -0.002 C 
ENDBRANCH  17  19
ENDBRANCH  16  17
ENDBRANCH   1  16
BRANCH   9  20
ATOM     20  C   UNL     1       6.931  -2.049  -2.472  0.00  0.00    -0.002 C 
BRANCH  20  25
ATOM     21  C   UNL     1       7.028  -4.335  -1.639  0.00  0.00    -0.077 C 
ATOM     22  C   UNL     1       7.484  -5.699  -2.199  0.00  0.00    -0.020 C 
ATOM     23  C   UNL     1       8.134  -5.377  -3.560  0.00  0.00    -0.012 C 
ATOM     24  C   UNL     1       8.017  -3.844  -3.708  0.00  0.00    -0.033 C 
ATOM     25  N   UNL     1       6.891  -3.502  -2.831  0.00  0.00    +0.389 N 
ATOM     26  H   UNL     1       6.003  -3.709  -3.303  0.00  0.00    -0.080 HD
BRANCH  24  27
ATOM     27  C   UNL     1       7.732  -3.472  -5.140  0.00  0.00    -0.016 A 
ATOM     28  C   UNL     1       6.430  -3.270  -5.554  0.00  0.00    +0.051 A 
ATOM     29  C   UNL     1       6.167  -2.923  -6.871  0.00  0.00    +0.121 A 
ATOM     30  C   UNL     1       7.212  -2.788  -7.774  0.00  0.00    +0.049 A 
ATOM     31  C   UNL     1       8.513  -2.995  -7.361  0.00  0.00    +0.049 A 
ATOM     32  C   UNL     1       8.776  -3.337  -6.042  0.00  0.00    +0.122 A 
BRANCH  32  33
ATOM     33  O   UNL     1      10.057  -3.541  -5.635  0.00  0.00    -0.495 OA
ATOM     34  C   UNL     1      11.083  -3.385  -6.618  0.00  0.00    +0.277 C 
ENDBRANCH  32  33
BRANCH  29  35
ATOM     35  O   UNL     1       4.886  -2.719  -7.279  0.00  0.00    -0.495 OA
ATOM     36  C   UNL     1       4.689  -2.369  -8.650  0.00  0.00    +0.277 C 
ENDBRANCH  29  35
ENDBRANCH  24  27
ENDBRANCH  20  25
ENDBRANCH   9  20
TORSDOF 10
