REMARK  Name = ZINC04281269
REMARK  7 active torsions:
REMARK  status: ('A' for Active; 'I' for Inactive)
REMARK    1  A    between atoms: C_1  and  C_2
REMARK    2  A    between atoms: C_2  and  C_25
REMARK    3  A    between atoms: C_5  and  C_23
REMARK    4  A    between atoms: C_6  and  N_12
REMARK    5  A    between atoms: C_9  and  C_10
REMARK    6  A    between atoms: C_9  and  C_11
REMARK    7  A    between atoms: C_13  and  C_15
REMARK                            x       y       z     vdW  Elec       q    Type
REMARK                         _______ _______ _______ _____ _____    ______ ____
ROOT
ATOM      1  C   UNL     1      -0.013   1.086   0.008  0.00  0.00    -0.010 C 
ATOM      2  C   UNL     1      -0.730   1.580   1.268  0.00  0.00    -0.069 C 
ATOM      3  C   UNL     1      -2.141   0.984   1.313  0.00  0.00    +0.024 C 
ATOM      4  C   UNL     1      -2.945   1.612   0.183  0.00  0.00    -0.021 A 
ATOM      5  C   UNL     1      -4.036   0.984  -0.530  0.00  0.00    +0.084 A 
ATOM      6  C   UNL     1      -4.644   1.718  -1.542  0.00  0.00    +0.090 A 
ATOM      7  S   UNL     1      -3.773   3.215  -1.524  0.00  0.00    -0.078 S 
ATOM      8  C   UNL     1      -2.640   2.871  -0.209  0.00  0.00    -0.015 A 
ATOM      9  C   UNL     1      -1.575   3.748   0.363  0.00  0.00    -0.041 C 
ATOM     10  C   UNL     1      -2.254   4.935   1.072  0.00  0.00    -0.005 C 
ATOM     11  C   UNL     1      -0.711   4.309  -0.775  0.00  0.00    -0.005 C 
ATOM     12  C   UNL     1       0.045   1.049   2.490  0.00  0.00    -0.010 C 
ATOM     13  N   UNL     1      -0.713   3.062   1.367  0.00  0.00    +0.389 N 
ATOM     14  H   UNL     1       0.254   3.383   1.237  0.00  0.00    -0.084 HD
ATOM     15  H   UNL     1      -1.037   3.326   2.305  0.00  0.00    -0.084 HD
ENDROOT
BRANCH   6  16
ATOM     16  N   UNL     1      -5.696   1.342  -2.364  0.00  0.00    -0.275 N 
ATOM     17  C   UNL     1      -6.158   2.195  -3.300  0.00  0.00    +0.254 C 
ATOM     18  O   UNL     1      -5.654   3.294  -3.422  0.00  0.00    -0.270 OA
ATOM     19  H   UNL     1      -6.098   0.465  -2.267  0.00  0.00    +0.156 HD
BRANCH  17  20
ATOM     20  C   UNL     1      -7.276   1.795  -4.174  0.00  0.00    +0.107 A 
ATOM     21  C   UNL     1      -8.597   2.049  -3.789  0.00  0.00    +0.138 A 
ATOM     22  C   UNL     1      -9.639   1.675  -4.617  0.00  0.00    +0.039 A 
ATOM     23  C   UNL     1      -9.379   1.042  -5.819  0.00  0.00    +0.006 A 
ATOM     24  C   UNL     1      -8.076   0.781  -6.205  0.00  0.00    +0.039 A 
ATOM     25  C   UNL     1      -7.022   1.153  -5.392  0.00  0.00    +0.138 A 
ATOM     26  F   UNL     1      -5.751   0.898  -5.771  0.00  0.00    -0.205 F 
ATOM     27  F   UNL     1      -8.853   2.663  -2.613  0.00  0.00    -0.205 F 
ENDBRANCH  17  20
ENDBRANCH   6  16
BRANCH   5  28
ATOM     28  C   UNL     1      -4.483  -0.340  -0.215  0.00  0.00    +0.102 C 
ATOM     29  N   UNL     1      -4.838  -1.389   0.036  0.00  0.00    -0.191 NA
ENDBRANCH   5  28
TORSDOF 3
