REMARK  Name = ZINC56779538
REMARK  5 active torsions:
REMARK  status: ('A' for Active; 'I' for Inactive)
REMARK    1  A    between atoms: C_1  and  C_2
REMARK    2  A    between atoms: C_5  and  C_7
REMARK    3  A    between atoms: N_17  and  C_18
REMARK    4  A    between atoms: C_18  and  C_20
REMARK    5  A    between atoms: C_18  and  C_21
REMARK                            x       y       z     vdW  Elec       q    Type
REMARK                         _______ _______ _______ _____ _____    ______ ____
ROOT
ATOM      1  C   UNL     1       1.075  -3.942  -0.020  0.00  0.00    +0.253 C 
ATOM      2  O   UNL     1       0.355  -4.904   0.173  0.00  0.00    -0.269 OA
ATOM      3  N   UNL     1       2.408  -4.109  -0.130  0.00  0.00    -0.294 N 
ATOM      4  C   UNL     1       3.310  -2.949  -0.123  0.00  0.00    +0.127 C 
ATOM      5  C   UNL     1       4.351  -3.144   0.986  0.00  0.00    +0.128 C 
ATOM      6  N   UNL     1       4.928  -4.489   0.858  0.00  0.00    -0.283 N 
ATOM      7  C   UNL     1       4.026  -5.649   0.851  0.00  0.00    +0.128 C 
ATOM      8  C   UNL     1       2.985  -5.455  -0.253  0.00  0.00    +0.127 C 
ATOM      9  C   UNL     1       6.261  -4.656   0.747  0.00  0.00    +0.303 C 
ATOM     10  O   UNL     1       7.003  -3.698   0.844  0.00  0.00    -0.253 OA
ATOM     11  N   UNL     1       6.770  -5.885   0.530  0.00  0.00    -0.293 N 
ATOM     12  H   UNL     1       6.185  -6.658   0.524  0.00  0.00    +0.151 HD
ENDROOT
BRANCH   1  17
ATOM     13  C   UNL     1      -0.096   1.439  -0.737  0.00  0.00    +0.051 C 
ATOM     14  C   UNL     1      -0.047  -0.044  -0.476  0.00  0.00    -0.013 A 
ATOM     15  C   UNL     1      -1.064  -0.857  -0.096  0.00  0.00    +0.011 A 
ATOM     16  C   UNL     1      -0.815  -2.195   0.092  0.00  0.00    +0.021 A 
ATOM     17  C   UNL     1       0.492  -2.602  -0.132  0.00  0.00    +0.074 A 
ATOM     18  S   UNL     1       1.277  -1.071  -0.598  0.00  0.00    -0.089 S 
ENDBRANCH   1  17
BRANCH  11  19
ATOM     19  C   UNL     1       8.208  -6.052   0.303  0.00  0.00    +0.102 C 
ATOM     20  C   UNL     1       8.929  -6.151   1.648  0.00  0.00    +0.033 C 
BRANCH  19  21
ATOM     21  C   UNL     1       8.448  -7.311  -0.490  0.00  0.00    -0.027 A 
ATOM     22  C   UNL     1       7.709  -8.447  -0.222  0.00  0.00    +0.005 A 
ATOM     23  C   UNL     1       7.929  -9.602  -0.949  0.00  0.00    +0.000 A 
ATOM     24  C   UNL     1       8.889  -9.620  -1.944  0.00  0.00    +0.000 A 
ATOM     25  C   UNL     1       9.628  -8.483  -2.212  0.00  0.00    +0.000 A 
ATOM     26  C   UNL     1       9.404  -7.327  -1.488  0.00  0.00    +0.005 A 
ENDBRANCH  19  21
ENDBRANCH  11  19
TORSDOF 3
