REMARK  Name = ZINC35745416
REMARK  15 active torsions:
REMARK  status: ('A' for Active; 'I' for Inactive)
REMARK    1  A    between atoms: C_1  and  C_2
REMARK    2  A    between atoms: C_2  and  C_3
REMARK    3  A    between atoms: C_2  and  N_4
REMARK    4  A    between atoms: N_4  and  C_5
REMARK    5  A    between atoms: N_4  and  C_25
REMARK    6  A    between atoms: C_5  and  C_6
REMARK    7  A    between atoms: C_9  and  C_11
REMARK    8  A    between atoms: C_11  and  C_12
REMARK    9  A    between atoms: C_11  and  C_18
REMARK   10  A    between atoms: C_11  and  O_24
REMARK   11  A    between atoms: C_25  and  C_26
REMARK   12  A    between atoms: C_28  and  O_34
REMARK   13  A    between atoms: C_30  and  O_32
REMARK   14  A    between atoms: O_32  and  C_33
REMARK   15  A    between atoms: O_34  and  C_35
REMARK                            x       y       z     vdW  Elec       q    Type
REMARK                         _______ _______ _______ _____ _____    ______ ____
ROOT
ATOM      1  C   UNL     1      -1.549  -2.552   1.129  0.00  0.00    +0.089 A 
ATOM      2  C   UNL     1      -2.122  -2.904   2.294  0.00  0.00    +0.043 A 
ATOM      3  C   UNL     1      -1.156  -3.638   3.021  0.00  0.00    +0.048 A 
ATOM      4  C   UNL     1      -0.050  -3.690   2.256  0.00  0.00    +0.146 A 
ATOM      5  O   UNL     1      -0.296  -3.035   1.109  0.00  0.00    -0.463 OA
ENDROOT
BRANCH   1   6
ATOM      6  C   UNL     1      -2.204  -1.756   0.030  0.00  0.00    -0.002 C 
BRANCH   6   7
ATOM      7  N   UNL     1      -2.484  -0.396   0.511  0.00  0.00    +0.389 N 
ATOM      8  H   UNL     1      -2.984  -0.446   1.386  0.00  0.00    -0.080 HD
BRANCH   7  10
ATOM      9  C   UNL     1      -0.443  -0.316   1.862  0.00  0.00    -0.013 C 
ATOM     10  C   UNL     1      -1.219   0.324   0.709  0.00  0.00    -0.074 C 
ATOM     11  C   UNL     1      -0.385   0.250  -0.571  0.00  0.00    -0.013 C 
ENDBRANCH   7  10
BRANCH   7  12
ATOM     12  C   UNL     1      -3.302   0.315  -0.480  0.00  0.00    -0.042 C 
BRANCH  12  13
ATOM     13  C   UNL     1      -3.748   1.636   0.091  0.00  0.00    -0.057 A 
ATOM     14  C   UNL     1      -4.864   1.694   0.905  0.00  0.00    +0.047 A 
ATOM     15  C   UNL     1      -5.276   2.910   1.432  0.00  0.00    +0.124 A 
ATOM     16  C   UNL     1      -4.569   4.066   1.142  0.00  0.00    +0.091 A 
ATOM     17  C   UNL     1      -3.450   4.005   0.325  0.00  0.00    +0.124 A 
ATOM     18  C   UNL     1      -3.038   2.786  -0.195  0.00  0.00    +0.047 A 
BRANCH  17  19
ATOM     19  O   UNL     1      -2.754   5.137   0.039  0.00  0.00    -0.495 OA
ATOM     20  C   UNL     1      -3.232   6.355   0.613  0.00  0.00    +0.277 C 
ENDBRANCH  17  19
BRANCH  15  21
ATOM     21  O   UNL     1      -6.373   2.967   2.232  0.00  0.00    -0.495 OA
ATOM     22  C   UNL     1      -6.740   4.251   2.739  0.00  0.00    +0.277 C 
ENDBRANCH  15  21
ENDBRANCH  12  13
ENDBRANCH   7  12
ENDBRANCH   6   7
ENDBRANCH   1   6
BRANCH   4  23
ATOM     23  C   UNL     1       1.243  -4.372   2.622  0.00  0.00    +0.174 C 
BRANCH  23  24
ATOM     24  C   UNL     1       1.926  -4.858   1.370  0.00  0.00    -0.004 A 
ATOM     25  C   UNL     1       2.079  -6.214   1.148  0.00  0.00    +0.007 A 
ATOM     26  C   UNL     1       2.706  -6.660   0.000  0.00  0.00    +0.000 A 
ATOM     27  C   UNL     1       3.179  -5.751  -0.927  0.00  0.00    +0.000 A 
ATOM     28  C   UNL     1       3.026  -4.395  -0.705  0.00  0.00    +0.000 A 
ATOM     29  C   UNL     1       2.396  -3.949   0.441  0.00  0.00    +0.007 A 
ENDBRANCH  23  24
BRANCH  23  30
ATOM     30  C   UNL     1       2.141  -3.395   3.337  0.00  0.00    -0.004 A 
ATOM     31  C   UNL     1       1.704  -2.107   3.583  0.00  0.00    +0.007 A 
ATOM     32  C   UNL     1       2.527  -1.211   4.239  0.00  0.00    +0.000 A 
ATOM     33  C   UNL     1       3.788  -1.604   4.650  0.00  0.00    +0.000 A 
ATOM     34  C   UNL     1       4.224  -2.892   4.405  0.00  0.00    +0.000 A 
ATOM     35  C   UNL     1       3.399  -3.789   3.752  0.00  0.00    +0.007 A 
ENDBRANCH  23  30
BRANCH  23  36
ATOM     36  O   UNL     1       0.970  -5.483   3.478  0.00  0.00    -0.372 OA
ATOM     37  H   UNL     1       0.396  -6.153   3.082  0.00  0.00    +0.212 HD
ENDBRANCH  23  36
ENDBRANCH   4  23
TORSDOF 11
