REMARK  Name = ZINC36919999
REMARK  5 active torsions:
REMARK  status: ('A' for Active; 'I' for Inactive)
REMARK    1  A    between atoms: C_1  and  C_2
REMARK    2  A    between atoms: C_2  and  C_4
REMARK    3  A    between atoms: C_2  and  N_11
REMARK    4  A    between atoms: N_11  and  C_12
REMARK    5  A    between atoms: C_20  and  O_22
REMARK                            x       y       z     vdW  Elec       q    Type
REMARK                         _______ _______ _______ _____ _____    ______ ____
ROOT
ATOM      1  N   UNL     1      -1.411  -0.404  -0.026  0.00  0.00    +0.390 N 
ATOM      2  H   UNL     1      -1.899  -0.058  -0.839  0.00  0.00    -0.084 HD
ATOM      3  H   UNL     1      -1.416  -1.413  -0.035  0.00  0.00    -0.084 HD
ENDROOT
BRANCH   1   4
ATOM      4  C   UNL     1      -2.081   0.079   1.189  0.00  0.00    +0.002 C 
ATOM      5  C   UNL     1      -2.390   1.591   1.086  0.00  0.00    +0.218 C 
ATOM      6  O   UNL     1      -3.727   1.608   0.557  0.00  0.00    -0.493 OA
ATOM      7  C   UNL     1      -4.371   0.468   0.927  0.00  0.00    +0.126 A 
ATOM      8  C   UNL     1      -3.470  -0.517   1.316  0.00  0.00    -0.016 A 
ATOM      9  C   UNL     1      -3.908  -1.760   1.718  0.00  0.00    +0.009 A 
ATOM     10  C   UNL     1      -5.262  -2.040   1.747  0.00  0.00    +0.046 A 
ATOM     11  C   UNL     1      -6.175  -1.065   1.369  0.00  0.00    +0.120 A 
ATOM     12  C   UNL     1      -5.733   0.184   0.960  0.00  0.00    +0.091 A 
BRANCH  11  13
ATOM     13  O   UNL     1      -7.506  -1.336   1.399  0.00  0.00    -0.507 OA
ATOM     14  H   UNL     1      -7.931  -1.127   2.242  0.00  0.00    +0.292 HD
ENDBRANCH  11  13
ENDBRANCH   1   4
BRANCH   1  16
ATOM     15  C   UNL     1       0.630  -0.302  -1.375  0.00  0.00    -0.009 C 
ATOM     16  C   UNL     1      -0.024   0.080  -0.046  0.00  0.00    -0.043 C 
BRANCH  16  17
ATOM     17  C   UNL     1       0.742  -0.547   1.090  0.00  0.00    -0.061 A 
ATOM     18  C   UNL     1       0.542  -1.878   1.408  0.00  0.00    +0.002 A 
ATOM     19  C   UNL     1       1.245  -2.453   2.450  0.00  0.00    +0.001 A 
ATOM     20  C   UNL     1       2.148  -1.699   3.175  0.00  0.00    +0.015 A 
ATOM     21  C   UNL     1       2.349  -0.368   2.857  0.00  0.00    +0.018 A 
ATOM     22  C   UNL     1       1.649   0.207   1.811  0.00  0.00    +0.017 A 
ATOM     23 BR   UNL     1       3.583   0.665   3.849  0.00  0.00    -0.050 Br
ENDBRANCH  16  17
ENDBRANCH   1  16
TORSDOF 4
