REMARK  Name = ZINC54621894
REMARK  6 active torsions:
REMARK  status: ('A' for Active; 'I' for Inactive)
REMARK    1  A    between atoms: C_1  and  C_2
REMARK    2  A    between atoms: C_8  and  C_13
REMARK    3  A    between atoms: C_9  and  O_12
REMARK    4  A    between atoms: C_13  and  C_15
REMARK    5  A    between atoms: C_13  and  N_21
REMARK    6  A    between atoms: N_21  and  C_22
REMARK                            x       y       z     vdW  Elec       q    Type
REMARK                         _______ _______ _______ _____ _____    ______ ____
ROOT
ATOM      1  C   UNL     1       0.086  -4.769   3.747  0.00  0.00    +0.135 C 
ENDROOT
BRANCH   1   9
ATOM      2  C   UNL     1       0.207   1.361  -0.217  0.00  0.00    +0.065 C 
ATOM      3  C   UNL     1       0.269  -0.143  -0.166  0.00  0.00    +0.039 A 
ATOM      4  C   UNL     1       0.419  -0.857  -1.353  0.00  0.00    +0.023 A 
ATOM      5  C   UNL     1       0.477  -2.221  -1.325  0.00  0.00    +0.012 A 
ATOM      6  C   UNL     1       0.382  -2.865  -0.076  0.00  0.00    +0.004 A 
ATOM      7  C   UNL     1       0.434  -4.264   0.031  0.00  0.00    +0.010 A 
ATOM      8  C   UNL     1       0.338  -4.852   1.255  0.00  0.00    +0.010 A 
ATOM      9  C   UNL     1       0.189  -4.085   2.408  0.00  0.00    +0.021 A 
ATOM     10  C   UNL     1       0.134  -2.722   2.343  0.00  0.00    +0.148 A 
ATOM     11  C   UNL     1       0.230  -2.078   1.091  0.00  0.00    +0.113 A 
ATOM     12  N   UNL     1       0.186  -0.746   0.996  0.00  0.00    -0.248 NA
BRANCH  10  13
ATOM     13  O   UNL     1      -0.012  -1.990   3.478  0.00  0.00    -0.504 OA
ATOM     14  H   UNL     1       0.824  -1.738   3.894  0.00  0.00    +0.292 HD
ENDBRANCH  10  13
ENDBRANCH   1   9
BRANCH   1  15
ATOM     15  C   UNL     1       1.457  -4.881   4.360  0.00  0.00    -0.023 A 
ATOM     16  C   UNL     1       2.319  -5.881   3.949  0.00  0.00    +0.006 A 
ATOM     17  C   UNL     1       3.577  -5.984   4.511  0.00  0.00    +0.000 A 
ATOM     18  C   UNL     1       3.974  -5.087   5.486  0.00  0.00    +0.000 A 
ATOM     19  C   UNL     1       3.113  -4.087   5.897  0.00  0.00    +0.000 A 
ATOM     20  C   UNL     1       1.856  -3.982   5.331  0.00  0.00    +0.006 A 
ENDBRANCH   1  15
BRANCH   1  21
ATOM     21  N   UNL     1      -0.481  -6.108   3.568  0.00  0.00    -0.332 N 
ATOM     22  H   UNL     1      -0.394  -6.562   2.715  0.00  0.00    +0.147 HD
BRANCH  21  23
ATOM     23  C   UNL     1      -1.147  -6.732   4.627  0.00  0.00    +0.046 A 
ATOM     24  C   UNL     1      -1.277  -6.082   5.847  0.00  0.00    +0.026 A 
ATOM     25  C   UNL     1      -1.936  -6.700   6.891  0.00  0.00    +0.022 A 
ATOM     26  C   UNL     1      -2.466  -7.968   6.724  0.00  0.00    +0.042 A 
ATOM     27  C   UNL     1      -2.337  -8.619   5.510  0.00  0.00    +0.041 A 
ATOM     28  C   UNL     1      -1.685  -8.003   4.459  0.00  0.00    +0.063 A 
ATOM     29 CL   UNL     1      -1.530  -8.817   2.934  0.00  0.00    -0.082 Cl
ATOM     30 CL   UNL     1      -3.293  -8.742   8.039  0.00  0.00    -0.083 Cl
ENDBRANCH  21  23
ENDBRANCH   1  21
TORSDOF 5
