REMARK  Name = ZINC40113041
REMARK  11 active torsions:
REMARK  status: ('A' for Active; 'I' for Inactive)
REMARK    1  A    between atoms: C_1  and  C_2
REMARK    2  A    between atoms: C_2  and  C_4
REMARK    3  A    between atoms: C_2  and  N_12
REMARK    4  A    between atoms: C_4  and  C_5
REMARK    5  A    between atoms: C_13  and  C_15
REMARK    6  A    between atoms: C_15  and  C_17
REMARK    7  A    between atoms: C_15  and  N_28
REMARK    8  A    between atoms: C_17  and  C_18
REMARK    9  A    between atoms: C_29  and  C_31
REMARK   10  A    between atoms: C_31  and  C_32
REMARK   11  A    between atoms: C_31  and  C_33
REMARK                            x       y       z     vdW  Elec       q    Type
REMARK                         _______ _______ _______ _____ _____    ______ ____
ROOT
ATOM      1  C   UNL     1      -3.377  -1.193  -0.572  0.00  0.00    +0.163 C 
ENDROOT
BRANCH   1   3
ATOM      2  N   UNL     1      -1.114  -0.649   0.264  0.00  0.00    -0.311 N 
ATOM      3  C   UNL     1      -2.000  -0.607  -0.750  0.00  0.00    +0.234 C 
ATOM      4  O   UNL     1      -1.690  -0.096  -1.806  0.00  0.00    -0.274 OA
ATOM      5  H   UNL     1      -1.361  -1.058   1.108  0.00  0.00    +0.149 HD
BRANCH   2   7
ATOM      6  C   UNL     1       0.181   1.422   0.387  0.00  0.00    +0.028 C 
ATOM      7  C   UNL     1       0.225  -0.079   0.091  0.00  0.00    +0.074 C 
BRANCH   7   8
ATOM      8  C   UNL     1       1.198  -0.761   1.055  0.00  0.00    +0.057 C 
BRANCH   8   9
ATOM      9  C   UNL     1       1.334  -2.215   0.686  0.00  0.00    -0.044 A 
ATOM     10  C   UNL     1       0.482  -3.152   1.242  0.00  0.00    +0.004 A 
ATOM     11  C   UNL     1       0.606  -4.486   0.904  0.00  0.00    +0.002 A 
ATOM     12  C   UNL     1       1.583  -4.886   0.011  0.00  0.00    +0.020 A 
ATOM     13  C   UNL     1       2.436  -3.949  -0.545  0.00  0.00    +0.041 A 
ATOM     14  C   UNL     1       2.307  -2.612  -0.211  0.00  0.00    +0.023 A 
ATOM     15 CL   UNL     1       3.662  -4.450  -1.667  0.00  0.00    -0.084 Cl
ENDBRANCH   8   9
ENDBRANCH   7   8
ENDBRANCH   2   7
ENDBRANCH   1   3
BRANCH   1  16
ATOM     16  N   UNL     1      -4.282  -0.627  -1.575  0.00  0.00    -0.303 N 
ATOM     17  C   UNL     1      -4.090  -0.891  -2.883  0.00  0.00    +0.216 C 
ATOM     18  O   UNL     1      -3.120  -1.528  -3.236  0.00  0.00    -0.276 OA
ATOM     19  H   UNL     1      -5.020  -0.061  -1.298  0.00  0.00    +0.149 HD
BRANCH  17  20
ATOM     20  C   UNL     1      -5.080  -0.396  -3.905  0.00  0.00    +0.069 C 
ATOM     21  C   UNL     1      -4.747  -0.999  -5.271  0.00  0.00    +0.017 C 
ATOM     22  C   UNL     1      -6.492  -0.816  -3.493  0.00  0.00    +0.017 C 
ENDBRANCH  17  20
ENDBRANCH   1  16
BRANCH   1  23
ATOM     23  C   UNL     1      -3.310  -2.712  -0.745  0.00  0.00    +0.069 C 
BRANCH  23  24
ATOM     24  C   UNL     1      -4.671  -3.307  -0.492  0.00  0.00    -0.020 A 
ATOM     25  C   UNL     1      -5.259  -3.476   0.704  0.00  0.00    +0.087 A 
ATOM     26  N   UNL     1      -6.492  -4.046   0.541  0.00  0.00    -0.360 N 
ATOM     27  H   UNL     1      -7.104  -4.265   1.261  0.00  0.00    +0.165 HD
ATOM     28  C   UNL     1      -6.734  -4.264  -0.797  0.00  0.00    +0.047 A 
ATOM     29  C   UNL     1      -5.607  -3.804  -1.503  0.00  0.00    +0.003 A 
ATOM     30  C   UNL     1      -5.574  -3.893  -2.896  0.00  0.00    +0.010 A 
ATOM     31  C   UNL     1      -6.639  -4.424  -3.567  0.00  0.00    +0.001 A 
ATOM     32  C   UNL     1      -7.755  -4.875  -2.876  0.00  0.00    +0.002 A 
ATOM     33  C   UNL     1      -7.805  -4.805  -1.500  0.00  0.00    +0.026 A 
ENDBRANCH  23  24
ENDBRANCH   1  23
TORSDOF 8
