REMARK  Name = ZINC04973565
REMARK  2 active torsions:
REMARK  status: ('A' for Active; 'I' for Inactive)
REMARK    1  A    between atoms: C_8  and  C_26
REMARK    2  A    between atoms: C_14  and  C_19
REMARK                            x       y       z     vdW  Elec       q    Type
REMARK                         _______ _______ _______ _____ _____    ______ ____
ROOT
ATOM      1  C   UNL     1       1.180   2.076   0.002  0.00  0.00    +0.002 A 
ATOM      2  C   UNL     1       2.384   1.396  -0.013  0.00  0.00    +0.002 A 
ATOM      3  C   UNL     1       2.406   0.011  -0.004  0.00  0.00    +0.025 A 
ATOM      4  C   UNL     1       1.210  -0.685   0.022  0.00  0.00    +0.052 A 
ATOM      5  C   UNL     1       0.002  -0.004   0.002  0.00  0.00    +0.049 A 
ATOM      6  C   UNL     1      -0.017   1.381   0.010  0.00  0.00    +0.025 A 
ATOM      7  N   UNL     1      -1.173  -0.751  -0.080  0.00  0.00    -0.330 N 
ATOM      8  C   UNL     1      -1.462  -1.562  -1.244  0.00  0.00    +0.155 C 
ATOM      9  C   UNL     1      -0.510  -2.712  -1.462  0.00  0.00    +0.038 C 
ATOM     10  C   UNL     1       0.659  -2.901  -0.824  0.00  0.00    +0.017 C 
ATOM     11  N   UNL     1       1.160  -2.070   0.124  0.00  0.00    -0.316 N 
ATOM     12  C   UNL     1       1.516  -4.117  -1.131  0.00  0.00    +0.059 C 
ATOM     13  C   UNL     1       1.358  -4.509  -2.599  0.00  0.00    +0.032 C 
ATOM     14  C   UNL     1      -0.123  -4.827  -2.840  0.00  0.00    +0.088 C 
ATOM     15  C   UNL     1      -0.940  -3.634  -2.446  0.00  0.00    +0.163 C 
ATOM     16  O   UNL     1      -2.011  -3.452  -2.991  0.00  0.00    -0.292 OA
ATOM     17  H   UNL     1      -1.807  -0.726   0.654  0.00  0.00    +0.147 HD
ATOM     18  H   UNL     1       1.509  -2.473   0.934  0.00  0.00    +0.152 HD
ENDROOT
BRANCH  13  19
ATOM     19  C   UNL     1       2.197  -5.724  -2.898  0.00  0.00    -0.043 A 
ATOM     20  C   UNL     1       1.997  -6.894  -2.188  0.00  0.00    +0.005 A 
ATOM     21  C   UNL     1       2.763  -8.010  -2.466  0.00  0.00    +0.020 A 
ATOM     22  C   UNL     1       3.737  -7.954  -3.447  0.00  0.00    +0.041 A 
ATOM     23  C   UNL     1       3.940  -6.782  -4.153  0.00  0.00    +0.020 A 
ATOM     24  C   UNL     1       3.170  -5.668  -3.878  0.00  0.00    +0.005 A 
ATOM     25 CL   UNL     1       4.703  -9.354  -3.792  0.00  0.00    -0.084 Cl
ENDBRANCH  13  19
BRANCH   8  26
ATOM     26  C   UNL     1      -1.422  -0.674  -2.461  0.00  0.00    +0.066 A 
ATOM     27  C   UNL     1      -2.595  -0.382  -3.132  0.00  0.00    +0.025 A 
ATOM     28  C   UNL     1      -2.549   0.440  -4.248  0.00  0.00    +0.003 A 
ATOM     29  C   UNL     1      -1.317   0.931  -4.655  0.00  0.00    +0.020 A 
ATOM     30  C   UNL     1      -0.186   0.592  -3.937  0.00  0.00    +0.111 A 
ATOM     31  N   UNL     1      -0.269  -0.189  -2.877  0.00  0.00    -0.258 NA
ENDBRANCH   8  26
TORSDOF 2
