REMARK  Name = ZINC37282829
REMARK  7 active torsions:
REMARK  status: ('A' for Active; 'I' for Inactive)
REMARK    1  A    between atoms: C_1  and  C_2
REMARK    2  A    between atoms: C_4  and  C_22
REMARK    3  A    between atoms: C_6  and  C_21
REMARK    4  A    between atoms: C_7  and  C_8
REMARK    5  A    between atoms: C_8  and  C_10
REMARK    6  A    between atoms: C_8  and  N_11
REMARK    7  A    between atoms: N_11  and  C_12
REMARK                            x       y       z     vdW  Elec       q    Type
REMARK                         _______ _______ _______ _____ _____    ______ ____
ROOT
ATOM      1  N   UNL     1      -1.311  -0.626   3.494  0.00  0.00    +0.391 N 
ATOM      2  H   UNL     1      -2.160  -1.161   3.394  0.00  0.00    -0.084 HD
ATOM      3  H   UNL     1      -0.557  -1.240   3.764  0.00  0.00    -0.084 HD
ENDROOT
BRANCH   1   4
ATOM      4  C   UNL     1      -1.498   0.401   4.527  0.00  0.00    +0.017 C 
ATOM      5  C   UNL     1      -0.198   0.584   5.313  0.00  0.00    -0.007 C 
ATOM      6  C   UNL     1       0.533  -0.739   5.457  0.00  0.00    +0.000 C 
ATOM      7  C   UNL     1      -0.195  -1.750   6.323  0.00  0.00    +0.019 C 
ATOM      8  C   UNL     1      -1.493  -2.207   5.654  0.00  0.00    +0.104 C 
ATOM      9  N   UNL     1      -2.564  -1.263   6.010  0.00  0.00    -0.317 N 
ATOM     10  C   UNL     1      -2.587  -0.033   5.485  0.00  0.00    +0.199 C 
ATOM     11  O   UNL     1      -3.476   0.738   5.780  0.00  0.00    -0.278 OA
ATOM     12  H   UNL     1      -3.260  -1.534   6.628  0.00  0.00    +0.149 HD
ENDBRANCH   1   4
BRANCH   1  13
ATOM     13  C   UNL     1      -0.984   0.018   2.215  0.00  0.00    -0.041 C 
ATOM     14  C   UNL     1       0.409   0.645   2.302  0.00  0.00    -0.009 C 
BRANCH  13  21
ATOM     15  C   UNL     1       0.429  -2.519   2.529  0.00  0.00    +0.044 C 
ATOM     16  C   UNL     1      -0.333  -2.214   1.265  0.00  0.00    -0.045 A 
ATOM     17  C   UNL     1      -0.385  -3.133   0.228  0.00  0.00    +0.026 A 
ATOM     18  C   UNL     1      -1.094  -2.819  -0.915  0.00  0.00    +0.039 A 
ATOM     19  N   UNL     1      -1.716  -1.661  -1.027  0.00  0.00    -0.257 NA
ATOM     20  C   UNL     1      -1.688  -0.763  -0.061  0.00  0.00    +0.040 A 
ATOM     21  C   UNL     1      -1.005  -1.010   1.114  0.00  0.00    -0.038 A 
ATOM     22  C   UNL     1      -2.416   0.544  -0.239  0.00  0.00    +0.066 C 
ATOM     23  C   UNL     1      -1.157  -3.810  -2.049  0.00  0.00    +0.065 C 
ENDBRANCH  13  21
ENDBRANCH   1  13
TORSDOF 3
