REMARK  Name = ZINC09165213
REMARK  6 active torsions:
REMARK  status: ('A' for Active; 'I' for Inactive)
REMARK    1  A    between atoms: C_1  and  C_2
REMARK    2  A    between atoms: C_5  and  N_9
REMARK    3  A    between atoms: C_6  and  C_8
REMARK    4  A    between atoms: C_10  and  C_12
REMARK    5  A    between atoms: C_13  and  C_25
REMARK    6  A    between atoms: C_17  and  C_19
REMARK                            x       y       z     vdW  Elec       q    Type
REMARK                         _______ _______ _______ _____ _____    ______ ____
ROOT
ATOM      1  C   UNL     1      -0.527  -6.940  -0.714  0.00  0.00    +0.056 C 
ATOM      2  C   UNL     1      -0.784  -7.763  -1.753  0.00  0.00    +0.017 C 
ATOM      3  N   UNL     1      -1.022  -9.093  -1.557  0.00  0.00    -0.300 N 
ATOM      4  C   UNL     1      -1.020  -9.678  -0.352  0.00  0.00    +0.135 C 
ATOM      5  N   UNL     1      -0.779  -8.987   0.780  0.00  0.00    -0.315 N 
ATOM      6  C   UNL     1      -0.505  -7.544   0.675  0.00  0.00    +0.146 C 
ATOM      7  S   UNL     1      -1.334 -11.358  -0.246  0.00  0.00    -0.019 S 
ATOM      8  C   UNL     1      -0.810  -7.204  -3.152  0.00  0.00    +0.061 C 
ATOM      9  H   UNL     1      -1.202  -9.646  -2.333  0.00  0.00    +0.154 HD
ATOM     10  H   UNL     1      -0.782  -9.431   1.643  0.00  0.00    +0.149 HD
ENDROOT
BRANCH   6  11
ATOM     11  C   UNL     1      -1.528  -6.821   1.513  0.00  0.00    +0.015 A 
ATOM     12  C   UNL     1      -1.334  -5.911   2.499  0.00  0.00    +0.013 A 
ATOM     13  C   UNL     1      -2.434  -5.371   3.139  0.00  0.00    +0.008 A 
ATOM     14  C   UNL     1      -3.674  -5.767   2.761  0.00  0.00    +0.045 A 
ATOM     15  S   UNL     1      -3.308  -6.933   1.459  0.00  0.00    -0.099 S 
ENDBRANCH   6  11
BRANCH   1  17
ATOM     16  N   UNL     1      -1.311  -4.714  -1.118  0.00  0.00    -0.281 N 
ATOM     17  C   UNL     1      -0.281  -5.560  -0.916  0.00  0.00    +0.248 C 
ATOM     18  O   UNL     1       0.861  -5.138  -0.908  0.00  0.00    -0.270 OA
ATOM     19  H   UNL     1      -2.224  -5.032  -1.032  0.00  0.00    +0.155 HD
BRANCH  16  24
ATOM     20  C   UNL     1      -0.309   0.702  -2.471  0.00  0.00    +0.044 C 
ATOM     21  C   UNL     1      -0.575  -0.737  -2.112  0.00  0.00    -0.050 A 
ATOM     22  C   UNL     1       0.328  -1.430  -1.327  0.00  0.00    +0.005 A 
ATOM     23  C   UNL     1       0.087  -2.749  -0.995  0.00  0.00    +0.024 A 
ATOM     24  C   UNL     1      -1.064  -3.379  -1.452  0.00  0.00    +0.037 A 
ATOM     25  C   UNL     1      -1.969  -2.680  -2.240  0.00  0.00    -0.029 A 
ATOM     26  C   UNL     1      -1.724  -1.359  -2.563  0.00  0.00    +0.008 A 
ATOM     27  C   UNL     1      -3.219  -3.359  -2.736  0.00  0.00    +0.045 C 
ENDBRANCH  16  24
ENDBRANCH   1  17
TORSDOF 3
