REMARK  Name = ZINC09312698
REMARK  16 active torsions:
REMARK  status: ('A' for Active; 'I' for Inactive)
REMARK    1  A    between atoms: C_1  and  C_2
REMARK    2  A    between atoms: C_2  and  N_77
REMARK    3  A    between atoms: C_3  and  C_4
REMARK    4  A    between atoms: C_3  and  N_77
REMARK    5  A    between atoms: C_5  and  C_6
REMARK    6  A    between atoms: C_5  and  N_77
REMARK    7  A    between atoms: C_6  and  C_7
REMARK    8  A    between atoms: C_7  and  N_8
REMARK    9  A    between atoms: C_9  and  C_29
REMARK   10  A    between atoms: C_12  and  C_13
REMARK   11  A    between atoms: C_12  and  O_24
REMARK   12  A    between atoms: C_20  and  C_23
REMARK   13  A    between atoms: C_32  and  C_35
REMARK   14  A    between atoms: C_35  and  C_36
REMARK   15  A    between atoms: C_35  and  C_37
REMARK   16  A    between atoms: C_35  and  C_38
REMARK                            x       y       z     vdW  Elec       q    Type
REMARK                         _______ _______ _______ _____ _____    ______ ____
ROOT
ATOM      1  N   UNL     1       1.806  -2.450  -4.462  0.00  0.00    -0.284 N 
ATOM      2  C   UNL     1       2.298  -1.104  -4.156  0.00  0.00    +0.144 C 
ATOM      3  C   UNL     1       1.924  -0.230  -5.331  0.00  0.00    +0.071 C 
ATOM      4  C   UNL     1       2.188   1.119  -5.479  0.00  0.00    +0.133 C 
ATOM      5  C   UNL     1       1.257  -1.062  -6.241  0.00  0.00    +0.249 C 
ATOM      6  O   UNL     1       0.799  -0.723  -7.317  0.00  0.00    -0.282 OA
ATOM      7  C   UNL     1       1.205  -2.433  -5.664  0.00  0.00    +0.288 C 
ATOM      8  O   UNL     1       0.693  -3.395  -6.200  0.00  0.00    -0.266 OA
ENDROOT
BRANCH   4   9
ATOM      9  C   UNL     1       1.855   1.799  -6.740  0.00  0.00    +0.017 A 
ATOM     10  C   UNL     1       2.246   1.245  -7.965  0.00  0.00    +0.015 A 
ATOM     11  C   UNL     1       1.926   1.877  -9.142  0.00  0.00    +0.046 A 
ATOM     12  C   UNL     1       1.221   3.083  -9.129  0.00  0.00    +0.124 A 
ATOM     13  C   UNL     1       0.846   3.636  -7.907  0.00  0.00    -0.002 A 
ATOM     14  C   UNL     1       1.151   3.010  -6.725  0.00  0.00    +0.019 A 
ATOM     15  C   UNL     1       0.126   4.936  -8.212  0.00  0.00    +0.083 C 
ATOM     16  C   UNL     1       0.523   5.183  -9.687  0.00  0.00    +0.175 C 
ATOM     17  O   UNL     1       0.806   3.857 -10.167  0.00  0.00    -0.488 OA
ATOM     18  C   UNL     1       1.768   6.067  -9.773  0.00  0.00    +0.052 C 
ENDBRANCH   4   9
BRANCH   2  19
ATOM     19  C   UNL     1       1.643  -0.589  -2.900  0.00  0.00    -0.022 A 
ATOM     20  C   UNL     1       2.377   0.150  -1.992  0.00  0.00    +0.006 A 
ATOM     21  C   UNL     1       1.776   0.624  -0.840  0.00  0.00    +0.004 A 
ATOM     22  C   UNL     1       0.441   0.358  -0.597  0.00  0.00    -0.042 A 
ATOM     23  C   UNL     1      -0.291  -0.387  -1.503  0.00  0.00    +0.004 A 
ATOM     24  C   UNL     1       0.308  -0.855  -2.658  0.00  0.00    +0.006 A 
BRANCH  22  25
ATOM     25  C   UNL     1      -0.214   0.873   0.658  0.00  0.00    -0.013 C 
ATOM     26  C   UNL     1      -0.131   2.401   0.686  0.00  0.00    +0.015 C 
ATOM     27  C   UNL     1       0.506   0.301   1.881  0.00  0.00    +0.015 C 
ATOM     28  C   UNL     1      -1.681   0.442   0.682  0.00  0.00    +0.015 C 
ENDBRANCH  22  25
ENDBRANCH   2  19
BRANCH   4  29
ATOM     29  O   UNL     1       2.750   1.812  -4.465  0.00  0.00    -0.506 OA
ATOM     30  H   UNL     1       2.869   2.766  -4.740  0.00  0.00    +0.292 HD
ENDBRANCH   4  29
BRANCH   1  31
ATOM     31  C   UNL     1       1.948  -3.625  -3.599  0.00  0.00    +0.107 C 
BRANCH  31  32
ATOM     32  C   UNL     1       0.740  -3.720  -2.664  0.00  0.00    +0.000 C 
BRANCH  32  33
ATOM     33  C   UNL     1       0.888  -4.946  -1.762  0.00  0.00    -0.077 C 
BRANCH  33  34
ATOM     34  N   UNL     1      -0.295  -5.035  -0.880  0.00  0.00    +0.379 N 
ATOM     35  H   UNL     1      -1.144  -4.984  -1.456  0.00  0.00    -0.082 HD
BRANCH  34  37
ATOM     36  C   UNL     1      -0.748  -7.427  -1.101  0.00  0.00    -0.017 C 
ATOM     37  C   UNL     1      -0.286  -6.321  -0.151  0.00  0.00    -0.082 C 
ENDBRANCH  34  37
BRANCH  34  38
ATOM     38  C   UNL     1      -0.296  -3.911   0.079  0.00  0.00    -0.082 C 
ATOM     39  C   UNL     1      -1.686  -3.805   0.710  0.00  0.00    -0.017 C 
ENDBRANCH  34  38
ENDBRANCH  33  34
ENDBRANCH  32  33
ENDBRANCH  31  32
ENDBRANCH   1  31
TORSDOF 10
