REMARK  Name = ZINC36531199
REMARK  16 active torsions:
REMARK  status: ('A' for Active; 'I' for Inactive)
REMARK    1  A    between atoms: C_1  and  C_2
REMARK    2  A    between atoms: C_5  and  C_8
REMARK    3  A    between atoms: C_8  and  C_10
REMARK    4  A    between atoms: C_8  and  N_21
REMARK    5  A    between atoms: N_12  and  C_13
REMARK    6  A    between atoms: C_13  and  C_14
REMARK    7  A    between atoms: C_13  and  C_15
REMARK    8  A    between atoms: C_13  and  C_16
REMARK    9  A    between atoms: C_16  and  C_17
REMARK   10  A    between atoms: C_17  and  C_18
REMARK   11  A    between atoms: C_17  and  C_19
REMARK   12  A    between atoms: C_17  and  C_20
REMARK   13  A    between atoms: N_21  and  C_22
REMARK   14  A    between atoms: C_23  and  C_25
REMARK   15  A    between atoms: C_26  and  O_32
REMARK   16  A    between atoms: C_30  and  O_31
REMARK                            x       y       z     vdW  Elec       q    Type
REMARK                         _______ _______ _______ _____ _____    ______ ____
ROOT
ATOM      1  C   UNL     1      -0.744  -3.552  -0.698  0.00  0.00    +0.192 C 
ENDROOT
BRANCH   1   6
ATOM      2  C   UNL     1      -3.380   0.539   2.418  0.00  0.00    +0.044 C 
ATOM      3  C   UNL     1      -2.693  -0.528   1.606  0.00  0.00    -0.050 A 
ATOM      4  C   UNL     1      -2.936  -1.863   1.871  0.00  0.00    +0.004 A 
ATOM      5  C   UNL     1      -2.305  -2.841   1.125  0.00  0.00    +0.006 A 
ATOM      6  C   UNL     1      -1.432  -2.485   0.114  0.00  0.00    -0.018 A 
ATOM      7  C   UNL     1      -1.190  -1.150  -0.151  0.00  0.00    +0.006 A 
ATOM      8  C   UNL     1      -1.824  -0.172   0.591  0.00  0.00    +0.004 A 
ENDBRANCH   1   6
BRANCH   1   9
ATOM      9  C   UNL     1      -1.694  -4.699  -0.927  0.00  0.00    +0.238 C 
ATOM     10  O   UNL     1      -1.413  -5.809  -0.526  0.00  0.00    -0.273 OA
ATOM     11  N   UNL     1      -2.856  -4.492  -1.579  0.00  0.00    -0.308 N 
ATOM     12  H   UNL     1      -3.080  -3.605  -1.900  0.00  0.00    +0.149 HD
BRANCH  11  13
ATOM     13  C   UNL     1      -3.779  -5.608  -1.803  0.00  0.00    +0.030 C 
ATOM     14  C   UNL     1      -3.193  -6.552  -2.854  0.00  0.00    +0.031 C 
ATOM     15  C   UNL     1      -3.985  -6.369  -0.492  0.00  0.00    +0.031 C 
BRANCH  13  16
ATOM     16  C   UNL     1      -5.122  -5.066  -2.295  0.00  0.00    +0.031 C 
BRANCH  16  17
ATOM     17  C   UNL     1      -5.309  -3.632  -1.795  0.00  0.00    -0.036 C 
ATOM     18  C   UNL     1      -4.442  -2.685  -2.627  0.00  0.00    +0.010 C 
ATOM     19  C   UNL     1      -6.779  -3.232  -1.933  0.00  0.00    +0.010 C 
ATOM     20  C   UNL     1      -4.892  -3.546  -0.326  0.00  0.00    +0.010 C 
ENDBRANCH  16  17
ENDBRANCH  13  16
ENDBRANCH  11  13
ENDBRANCH   1   9
BRANCH   1  21
ATOM     21  N   UNL     1       0.435  -4.032   0.026  0.00  0.00    -0.285 N 
ATOM     22  C   UNL     1       0.277  -4.725   1.308  0.00  0.00    +0.133 C 
ATOM     23  C   UNL     1       1.666  -3.837  -0.486  0.00  0.00    +0.254 C 
ATOM     24  O   UNL     1       1.798  -3.261  -1.550  0.00  0.00    -0.270 OA
BRANCH  23  25
ATOM     25  C   UNL     1       2.852  -4.319   0.242  0.00  0.00    +0.119 A 
ATOM     26  C   UNL     1       3.350  -5.609   0.004  0.00  0.00    +0.133 A 
ATOM     27  C   UNL     1       4.466  -6.052   0.694  0.00  0.00    +0.046 A 
ATOM     28  C   UNL     1       5.089  -5.229   1.614  0.00  0.00    +0.007 A 
ATOM     29  C   UNL     1       4.606  -3.957   1.856  0.00  0.00    +0.046 A 
ATOM     30  C   UNL     1       3.494  -3.491   1.173  0.00  0.00    +0.133 A 
BRANCH  30  31
ATOM     31  O   UNL     1       3.026  -2.239   1.408  0.00  0.00    -0.506 OA
ATOM     32  H   UNL     1       2.369  -2.192   2.116  0.00  0.00    +0.292 HD
ENDBRANCH  30  31
BRANCH  26  33
ATOM     33  O   UNL     1       2.741  -6.418  -0.898  0.00  0.00    -0.506 OA
ATOM     34  H   UNL     1       3.085  -6.334  -1.797  0.00  0.00    +0.292 HD
ENDBRANCH  26  33
ENDBRANCH  23  25
ENDBRANCH   1  21
TORSDOF 9
