REMARK  Name = ZINC44385603
REMARK  5 active torsions:
REMARK  status: ('A' for Active; 'I' for Inactive)
REMARK    1  A    between atoms: C_1  and  C_2
REMARK    2  A    between atoms: C_2  and  C_4
REMARK    3  A    between atoms: C_2  and  N_11
REMARK    4  A    between atoms: C_12  and  C_14
REMARK    5  A    between atoms: C_14  and  C_20
REMARK                            x       y       z     vdW  Elec       q    Type
REMARK                         _______ _______ _______ _____ _____    ______ ____
ROOT
ATOM      1  N   UNL     1       0.688  -0.476  -1.203  0.00  0.00    -0.307 N 
ATOM      2  C   UNL     1       0.006  -0.608  -2.358  0.00  0.00    +0.234 C 
ATOM      3  O   UNL     1      -1.175  -0.336  -2.400  0.00  0.00    -0.274 OA
ATOM      4  H   UNL     1       1.632  -0.695  -1.170  0.00  0.00    +0.149 HD
ENDROOT
BRANCH   2   5
ATOM      5  C   UNL     1       0.712  -1.094  -3.598  0.00  0.00    +0.133 C 
ATOM      6  C   UNL     1       1.849  -0.133  -3.948  0.00  0.00    +0.031 C 
ATOM      7  C   UNL     1       2.565  -0.626  -5.207  0.00  0.00    +0.002 C 
ATOM      8  C   UNL     1       1.572  -0.685  -6.369  0.00  0.00    +0.000 C 
ATOM      9  C   UNL     1       0.434  -1.646  -6.019  0.00  0.00    +0.002 C 
ATOM     10  C   UNL     1      -0.282  -1.153  -4.761  0.00  0.00    +0.031 C 
BRANCH   5  11
ATOM     11  C   UNL     1       1.262  -2.438  -3.355  0.00  0.00    +0.079 C 
ATOM     12  N   UNL     1       1.687  -3.474  -3.167  0.00  0.00    -0.195 NA
ENDBRANCH   5  11
ENDBRANCH   2   5
BRANCH   1  14
ATOM     13  C   UNL     1      -0.019   1.526   0.010  0.00  0.00    +0.033 C 
ATOM     14  C   UNL     1       0.002  -0.004   0.002  0.00  0.00    +0.100 C 
BRANCH  14  15
ATOM     15  C   UNL     1       0.731  -0.503   1.223  0.00  0.00    -0.027 A 
ATOM     16  C   UNL     1       2.113  -0.514   1.246  0.00  0.00    +0.006 A 
ATOM     17  C   UNL     1       2.782  -0.971   2.366  0.00  0.00    +0.015 A 
ATOM     18  C   UNL     1       2.068  -1.418   3.463  0.00  0.00    +0.018 A 
ATOM     19  C   UNL     1       0.685  -1.408   3.439  0.00  0.00    +0.015 A 
ATOM     20  C   UNL     1       0.017  -0.945   2.321  0.00  0.00    +0.006 A 
ATOM     21 BR   UNL     1       2.983  -2.045   4.995  0.00  0.00    -0.050 Br
ENDBRANCH  14  15
ENDBRANCH   1  14
TORSDOF 4
