REMARK  Name = ZINC59926835
REMARK  9 active torsions:
REMARK  status: ('A' for Active; 'I' for Inactive)
REMARK    1  A    between atoms: C_1  and  C_2
REMARK    2  A    between atoms: C_4  and  C_27
REMARK    3  A    between atoms: C_6  and  S_10
REMARK    4  A    between atoms: C_7  and  C_8
REMARK    5  A    between atoms: S_10  and  C_11
REMARK    6  A    between atoms: C_11  and  C_12
REMARK    7  A    between atoms: N_16  and  C_17
REMARK    8  A    between atoms: C_20  and  O_23
REMARK    9  A    between atoms: O_23  and  C_24
REMARK                            x       y       z     vdW  Elec       q    Type
REMARK                         _______ _______ _______ _____ _____    ______ ____
ROOT
ATOM      1  C   UNL     1       0.096  -5.715   3.259  0.00  0.00    +0.167 A 
ATOM      2  N   UNL     1       1.158  -6.170   3.872  0.00  0.00    -0.112 NA
ATOM      3  N   UNL     1       0.825  -6.931   4.851  0.00  0.00    -0.023 NA
ATOM      4  N   UNL     1      -0.460  -7.015   4.933  0.00  0.00    -0.039 NA
ATOM      5  N   UNL     1      -0.982  -6.219   3.898  0.00  0.00    -0.196 N 
ENDROOT
BRANCH   5   6
ATOM      6  C   UNL     1      -2.334  -5.998   3.593  0.00  0.00    +0.069 A 
ATOM      7  C   UNL     1      -2.743  -4.763   3.108  0.00  0.00    +0.031 A 
ATOM      8  C   UNL     1      -4.073  -4.546   2.808  0.00  0.00    +0.048 A 
ATOM      9  C   UNL     1      -5.001  -5.561   2.990  0.00  0.00    +0.127 A 
ATOM     10  C   UNL     1      -4.592  -6.795   3.476  0.00  0.00    +0.048 A 
ATOM     11  C   UNL     1      -3.262  -7.015   3.771  0.00  0.00    +0.031 A 
BRANCH   9  12
ATOM     12  O   UNL     1      -6.310  -5.347   2.695  0.00  0.00    -0.434 OA
BRANCH  12  13
ATOM     13  C   UNL     1      -7.210  -6.437   2.907  0.00  0.00    +0.541 C 
ATOM     14  F   UNL     1      -6.819  -7.525   2.119  0.00  0.00    -0.166 F 
ATOM     15  F   UNL     1      -7.185  -6.806   4.256  0.00  0.00    -0.166 F 
ENDBRANCH  12  13
ENDBRANCH   9  12
ENDBRANCH   5   6
BRANCH   1  16
ATOM     16  C   UNL     1       0.078  -4.794   2.067  0.00  0.00    +0.154 C 
BRANCH  16  17
ATOM     17  S   UNL     1       0.057  -3.071   2.633  0.00  0.00    -0.097 S 
BRANCH  17  23
ATOM     18  C   UNL     1      -0.018   1.503   0.010  0.00  0.00    +0.045 C 
ATOM     19  C   UNL     1       0.002  -0.004   0.002  0.00  0.00    -0.029 A 
ATOM     20  C   UNL     1       0.006  -0.707  -1.191  0.00  0.00    +0.027 A 
ATOM     21  C   UNL     1       0.025  -2.089  -1.167  0.00  0.00    +0.040 A 
ATOM     22  N   UNL     1       0.040  -2.754  -0.028  0.00  0.00    -0.244 NA
ATOM     23  C   UNL     1       0.037  -2.133   1.142  0.00  0.00    +0.115 A 
ATOM     24  C   UNL     1       0.023  -0.727   1.200  0.00  0.00    +0.086 A 
ATOM     25  C   UNL     1       0.029  -2.851  -2.467  0.00  0.00    +0.065 C 
BRANCH  24  26
ATOM     26  C   UNL     1       0.026  -0.049   2.461  0.00  0.00    +0.102 C 
ATOM     27  N   UNL     1       0.028   0.489   3.462  0.00  0.00    -0.191 NA
ENDBRANCH  24  26
ENDBRANCH  17  23
ENDBRANCH  16  17
ENDBRANCH   1  16
TORSDOF 7
