REMARK  Name = ZINC13552346
REMARK  8 active torsions:
REMARK  status: ('A' for Active; 'I' for Inactive)
REMARK    1  A    between atoms: C_1  and  C_2
REMARK    2  A    between atoms: C_4  and  C_36
REMARK    3  A    between atoms: C_11  and  C_13
REMARK    4  A    between atoms: C_19  and  C_25
REMARK    5  A    between atoms: C_22  and  O_24
REMARK    6  A    between atoms: C_28  and  O_31
REMARK    7  A    between atoms: O_31  and  C_32
REMARK    8  A    between atoms: C_32  and  C_33
REMARK                            x       y       z     vdW  Elec       q    Type
REMARK                         _______ _______ _______ _____ _____    ______ ____
ROOT
ATOM      1  C   UNL     1       0.245   2.187   0.577  0.00  0.00    +0.066 C 
ATOM      2  C   UNL     1       0.338   0.693   0.398  0.00  0.00    +0.044 A 
ATOM      3  C   UNL     1       0.376   0.140  -0.873  0.00  0.00    +0.046 A 
ATOM      4  C   UNL     1       0.462  -1.239  -0.992  0.00  0.00    +0.044 A 
ATOM      5  N   UNL     1       0.504  -1.980   0.103  0.00  0.00    -0.216 NA
ATOM      6  C   UNL     1       0.465  -1.419   1.301  0.00  0.00    +0.254 A 
ATOM      7  N   UNL     1       0.389  -0.106   1.451  0.00  0.00    -0.216 NA
ATOM      8  N   UNL     1       0.511  -2.230   2.433  0.00  0.00    -0.179 N 
ATOM      9  C   UNL     1       0.475  -1.806   3.720  0.00  0.00    +0.167 A 
ATOM     10  C   UNL     1       0.532  -2.923   4.523  0.00  0.00    +0.032 A 
ATOM     11  C   UNL     1       0.615  -4.043   3.698  0.00  0.00    +0.099 A 
ATOM     12  N   UNL     1       0.597  -3.631   2.442  0.00  0.00    -0.162 NA
ATOM     13  C   UNL     1       0.496  -2.821   6.027  0.00  0.00    +0.064 C 
ATOM     14  C   UNL     1       1.116  -1.473   6.416  0.00  0.00    +0.108 C 
ATOM     15  C   UNL     1       0.646  -0.373   5.508  0.00  0.00    +0.190 C 
ATOM     16  N   UNL     1       0.376  -0.553   4.250  0.00  0.00    -0.197 NA
ATOM     17  C   UNL     1       0.506  -1.886  -2.353  0.00  0.00    +0.066 C 
ENDROOT
BRANCH  11  18
ATOM     18  C   UNL     1       0.701  -5.453   4.151  0.00  0.00    +0.002 A 
ATOM     19  C   UNL     1      -0.136  -5.915   5.164  0.00  0.00    +0.010 A 
ATOM     20  C   UNL     1      -0.052  -7.228   5.581  0.00  0.00    +0.001 A 
ATOM     21  C   UNL     1       0.862  -8.085   4.995  0.00  0.00    +0.000 A 
ATOM     22  C   UNL     1       1.697  -7.632   3.990  0.00  0.00    +0.001 A 
ATOM     23  C   UNL     1       1.617  -6.322   3.561  0.00  0.00    +0.010 A 
ENDBRANCH  11  18
BRANCH  13  24
ATOM     24  C   UNL     1       1.294  -3.946   6.634  0.00  0.00    -0.039 A 
ATOM     25  C   UNL     1       2.594  -4.172   6.221  0.00  0.00    +0.008 A 
ATOM     26  C   UNL     1       3.327  -5.203   6.776  0.00  0.00    +0.046 A 
ATOM     27  C   UNL     1       2.758  -6.012   7.749  0.00  0.00    +0.121 A 
ATOM     28  C   UNL     1       1.454  -5.783   8.162  0.00  0.00    +0.046 A 
ATOM     29  C   UNL     1       0.727  -4.747   7.608  0.00  0.00    +0.008 A 
BRANCH  27  30
ATOM     30  O   UNL     1       3.477  -7.027   8.296  0.00  0.00    -0.483 OA
BRANCH  30  31
ATOM     31  C   UNL     1       2.827  -7.819   9.293  0.00  0.00    +0.324 C 
BRANCH  31  32
ATOM     32  C   UNL     1       3.772  -8.887   9.780  0.00  0.00    +0.248 C 
ATOM     33  O   UNL     1       4.891  -8.963   9.320  0.00  0.00    -0.272 OA
ATOM     34  N   UNL     1       3.372  -9.758  10.728  0.00  0.00    -0.327 N 
ATOM     35  H   UNL     1       2.477  -9.697  11.096  0.00  0.00    +0.145 HD
ATOM     36  H   UNL     1       3.980 -10.446  11.042  0.00  0.00    +0.145 HD
ENDBRANCH  31  32
ENDBRANCH  30  31
ENDBRANCH  27  30
ENDBRANCH  13  24
BRANCH  15  37
ATOM     37  O   UNL     1       0.495   0.863   6.026  0.00  0.00    -0.495 OA
ATOM     38  H   UNL     1       0.190   1.522   5.387  0.00  0.00    +0.293 HD
ENDBRANCH  15  37
TORSDOF 6
