REMARK  Name = ZINC20912817
REMARK  9 active torsions:
REMARK  status: ('A' for Active; 'I' for Inactive)
REMARK    1  A    between atoms: C_4  and  N_7
REMARK    2  A    between atoms: N_7  and  C_8
REMARK    3  A    between atoms: C_14  and  C_16
REMARK    4  A    between atoms: C_16  and  C_17
REMARK    5  A    between atoms: C_17  and  S_18
REMARK    6  A    between atoms: S_18  and  C_19
REMARK    7  A    between atoms: N_23  and  N_24
REMARK    8  A    between atoms: N_25  and  N_26
REMARK    9  A    between atoms: C_27  and  C_28
REMARK                            x       y       z     vdW  Elec       q    Type
REMARK                         _______ _______ _______ _____ _____    ______ ____
ROOT
ATOM      1  C   UNL     1       0.080   2.490  -0.092  0.00  0.00    +0.210 A 
ATOM      2  N   UNL     1      -1.143   2.962  -0.157  0.00  0.00    -0.119 NA
ATOM      3  N   UNL     1      -1.069   4.361  -0.137  0.00  0.00    -0.109 NA
ATOM      4  C   UNL     1       0.196   4.699  -0.069  0.00  0.00    +0.254 A 
ATOM      5  N   UNL     1       0.939   3.551  -0.040  0.00  0.00    -0.211 N 
ATOM      6  N   UNL     1       0.693   5.993  -0.034  0.00  0.00    -0.204 N 
ATOM      7  H   UNL     1       1.779   6.164   0.022  0.00  0.00    +0.177 HD
ENDROOT
BRANCH   5   8
ATOM      8  N   UNL     1       2.301   3.478   0.030  0.00  0.00    -0.294 N 
ATOM      9  H   UNL     1       2.900   4.400   0.068  0.00  0.00    +0.163 HD
ATOM     10  H   UNL     1       2.799   2.498   0.049  0.00  0.00    +0.163 HD
ENDBRANCH   5   8
BRANCH   6  11
ATOM     11  N   UNL     1      -0.186   7.083  -0.071  0.00  0.00    -0.187 NA
ATOM     12  C   UNL     1       0.280   8.296  -0.039  0.00  0.00    +0.139 C 
BRANCH  12  13
ATOM     13  C   UNL     1      -0.643   9.440  -0.077  0.00  0.00    +0.002 A 
ATOM     14  C   UNL     1      -0.159  10.740  -0.164  0.00  0.00    +0.010 A 
ATOM     15  C   UNL     1      -1.034  11.817  -0.207  0.00  0.00    +0.001 A 
ATOM     16  C   UNL     1      -2.384  11.649  -0.153  0.00  0.00    +0.008 A 
ATOM     17  C   UNL     1      -2.943  10.364  -0.059  0.00  0.00    -0.017 A 
ATOM     18  C   UNL     1      -2.090   9.234  -0.020  0.00  0.00    -0.009 A 
ATOM     19  C   UNL     1      -2.643   7.952   0.073  0.00  0.00    +0.009 A 
ATOM     20  C   UNL     1      -3.997   7.804   0.124  0.00  0.00    +0.001 A 
ATOM     21  C   UNL     1      -4.839   8.913   0.086  0.00  0.00    +0.001 A 
ATOM     22  C   UNL     1      -4.335  10.174  -0.004  0.00  0.00    +0.008 A 
ENDBRANCH  12  13
ENDBRANCH   6  11
BRANCH   1  23
ATOM     23  S   UNL     1       0.534   0.788  -0.081  0.00  0.00    -0.084 S 
BRANCH  23  24
ATOM     24  C   UNL     1      -1.104   0.025  -0.171  0.00  0.00    +0.087 C 
BRANCH  24  25
ATOM     25  C   UNL     1      -0.958  -1.498  -0.175  0.00  0.00    +0.108 C 
BRANCH  25  27
ATOM     26  N   UNL     1      -2.437  -3.472  -0.363  0.00  0.00    -0.240 N 
ATOM     27  C   UNL     1      -2.322  -2.134  -0.250  0.00  0.00    +0.225 C 
ATOM     28  O   UNL     1      -3.317  -1.441  -0.208  0.00  0.00    -0.275 OA
BRANCH  26  32
ATOM     29  C   UNL     1      -6.193  -5.207  -0.862  0.00  0.00    +0.000 A 
ATOM     30  C   UNL     1      -5.192  -5.450  -1.785  0.00  0.00    +0.002 A 
ATOM     31  C   UNL     1      -3.946  -4.877  -1.623  0.00  0.00    +0.024 A 
ATOM     32  C   UNL     1      -3.699  -4.055  -0.531  0.00  0.00    +0.041 A 
ATOM     33  C   UNL     1      -4.704  -3.817   0.397  0.00  0.00    +0.024 A 
ATOM     34  C   UNL     1      -5.949  -4.389   0.226  0.00  0.00    +0.002 A 
ENDBRANCH  26  32
BRANCH  26  35
ATOM     35  C   UNL     1      -1.294  -4.279  -0.313  0.00  0.00    +0.041 A 
ATOM     36  C   UNL     1      -0.345  -4.205  -1.324  0.00  0.00    +0.024 A 
ATOM     37  C   UNL     1       0.784  -4.999  -1.269  0.00  0.00    +0.002 A 
ATOM     38  C   UNL     1       0.964  -5.876  -0.214  0.00  0.00    +0.000 A 
ATOM     39  C   UNL     1       0.018  -5.956   0.791  0.00  0.00    +0.002 A 
ATOM     40  C   UNL     1      -1.110  -5.160   0.745  0.00  0.00    +0.024 A 
ENDBRANCH  26  35
ENDBRANCH  25  27
ENDBRANCH  24  25
ENDBRANCH  23  24
ENDBRANCH   1  23
TORSDOF 9
