REMARK  Name = ZINC66523273
REMARK  7 active torsions:
REMARK  status: ('A' for Active; 'I' for Inactive)
REMARK    1  A    between atoms: C_1  and  C_2
REMARK    2  A    between atoms: C_2  and  C_3
REMARK    3  A    between atoms: C_3  and  C_5
REMARK    4  A    between atoms: C_3  and  N_15
REMARK    5  A    between atoms: C_16  and  C_18
REMARK    6  A    between atoms: N_21  and  C_23
REMARK    7  A    between atoms: C_26  and  N_29
REMARK                            x       y       z     vdW  Elec       q    Type
REMARK                         _______ _______ _______ _____ _____    ______ ____
ROOT
ATOM      1  N   UNL     1      -2.082  -0.162   1.273  0.00  0.00    -0.301 N 
ATOM      2  C   UNL     1      -2.664   1.047   1.400  0.00  0.00    +0.248 C 
ATOM      3  O   UNL     1      -2.651   1.829   0.469  0.00  0.00    -0.270 OA
ATOM      4  H   UNL     1      -2.092  -0.785   2.016  0.00  0.00    +0.150 HD
ENDROOT
BRANCH   2   5
ATOM      5  C   UNL     1      -3.316   1.421   2.668  0.00  0.00    +0.074 A 
ATOM      6  C   UNL     1      -3.405   0.625   3.833  0.00  0.00    +0.147 A 
ATOM      7  N   UNL     1      -4.054   1.304   4.738  0.00  0.00    -0.174 NA
ATOM      8  N   UNL     1      -4.407   2.549   4.205  0.00  0.00    -0.239 N 
ATOM      9  C   UNL     1      -3.949   2.617   2.942  0.00  0.00    +0.127 A 
BRANCH   8  10
ATOM     10  C   UNL     1      -5.114   3.556   4.876  0.00  0.00    +0.065 A 
ATOM     11  C   UNL     1      -5.408   4.749   4.229  0.00  0.00    +0.030 A 
ATOM     12  C   UNL     1      -6.105   5.740   4.892  0.00  0.00    +0.035 A 
ATOM     13  C   UNL     1      -6.510   5.545   6.200  0.00  0.00    +0.126 A 
ATOM     14  C   UNL     1      -6.219   4.358   6.847  0.00  0.00    +0.035 A 
ATOM     15  C   UNL     1      -5.528   3.361   6.187  0.00  0.00    +0.030 A 
BRANCH  13  16
ATOM     16  N   UNL     1      -7.256   6.609   6.908  0.00  0.00    +0.056 N 
ATOM     17  O   UNL     1      -7.510   7.648   6.343  0.00  0.00    -0.126 OA
ATOM     18  O   UNL     1      -7.611   6.440   8.052  0.00  0.00    -0.126 OA
ENDBRANCH  13  16
ENDBRANCH   8  10
ENDBRANCH   2   5
BRANCH   1  19
ATOM     19  C   UNL     1      -1.433  -0.534   0.013  0.00  0.00    +0.139 C 
BRANCH  19  20
ATOM     20  C   UNL     1      -1.416  -2.035  -0.119  0.00  0.00    +0.129 A 
ATOM     21  N   UNL     1      -2.014  -2.900   0.743  0.00  0.00    -0.340 N 
ATOM     22  H   UNL     1      -2.518  -2.663   1.538  0.00  0.00    +0.167 HD
ATOM     23  C   UNL     1      -1.771  -4.177   0.279  0.00  0.00    +0.066 A 
ATOM     24  C   UNL     1      -2.115  -5.448   0.719  0.00  0.00    +0.028 A 
ATOM     25  C   UNL     1      -1.702  -6.553   0.006  0.00  0.00    +0.002 A 
ATOM     26  C   UNL     1      -0.947  -6.402  -1.149  0.00  0.00    +0.002 A 
ATOM     27  C   UNL     1      -0.599  -5.160  -1.597  0.00  0.00    +0.030 A 
ATOM     28  C   UNL     1      -1.007  -4.025  -0.890  0.00  0.00    +0.089 A 
ATOM     29  N   UNL     1      -0.831  -2.692  -1.078  0.00  0.00    -0.231 NA
ENDBRANCH  19  20
BRANCH  19  31
ATOM     30  C   UNL     1      -0.019   1.526   0.010  0.00  0.00    +0.006 C 
ATOM     31  C   UNL     1       0.002  -0.004   0.002  0.00  0.00    +0.027 C 
ENDBRANCH  19  31
ENDBRANCH   1  19
TORSDOF 6
