REMARK  Name = ZINC02310744
REMARK  9 active torsions:
REMARK  status: ('A' for Active; 'I' for Inactive)
REMARK    1  A    between atoms: C_1  and  C_2
REMARK    2  A    between atoms: C_2  and  C_3
REMARK    3  A    between atoms: C_3  and  C_4
REMARK    4  A    between atoms: C_4  and  C_5
REMARK    5  A    between atoms: C_5  and  C_6
REMARK    6  A    between atoms: C_6  and  C_7
REMARK    7  A    between atoms: C_7  and  C_15
REMARK    8  A    between atoms: C_8  and  C_9
REMARK    9  A    between atoms: N_16  and  N_17
REMARK                            x       y       z     vdW  Elec       q    Type
REMARK                         _______ _______ _______ _____ _____    ______ ____
ROOT
ATOM      1  N   UNL     1       3.995   4.287   1.136  0.00  0.00    -0.143 N 
ATOM      2  C   UNL     1       3.729   3.739   2.338  0.00  0.00    +0.301 A 
ATOM      3  O   UNL     1       4.638   3.371   3.061  0.00  0.00    -0.263 OA
ATOM      4  C   UNL     1       2.381   3.593   2.754  0.00  0.00    +0.131 A 
ATOM      5  C   UNL     1       1.378   4.022   1.904  0.00  0.00    +0.081 A 
ATOM      6  C   UNL     1       0.109   3.753   2.579  0.00  0.00    +0.027 A 
ATOM      7  C   UNL     1      -1.230   3.965   2.234  0.00  0.00    +0.050 A 
ATOM      8  C   UNL     1      -2.227   3.588   3.107  0.00  0.00    +0.124 A 
ATOM      9  C   UNL     1      -1.908   3.010   4.330  0.00  0.00    +0.040 A 
ATOM     10  C   UNL     1      -0.595   2.800   4.686  0.00  0.00    +0.029 A 
ATOM     11  C   UNL     1       0.430   3.167   3.817  0.00  0.00    +0.049 A 
ATOM     12  N   UNL     1       1.803   3.079   3.903  0.00  0.00    -0.349 N 
ATOM     13  H   UNL     1       2.291   2.712   4.657  0.00  0.00    +0.166 HD
ATOM     14  F   UNL     1      -3.522   3.787   2.774  0.00  0.00    -0.205 F 
ATOM     15  N   UNL     1       1.712   4.577   0.682  0.00  0.00    -0.304 N 
ATOM     16  H   UNL     1       1.014   4.880   0.081  0.00  0.00    +0.171 HD
ATOM     17  C   UNL     1       3.005   4.698   0.325  0.00  0.00    +0.351 A 
ATOM     18  O   UNL     1       3.282   5.188  -0.752  0.00  0.00    -0.245 OA
ENDROOT
BRANCH   1  20
ATOM     19  C   UNL     1       6.082   3.380   0.584  0.00  0.00    +0.137 C 
ATOM     20  N   UNL     1       5.327   4.431   0.725  0.00  0.00    -0.168 NA
BRANCH  19  21
ATOM     21  C   UNL     1       7.457   3.531   0.272  0.00  0.00    -0.027 C 
ATOM     22  C   UNL     1       8.243   2.443   0.140  0.00  0.00    +0.013 C 
BRANCH  22  23
ATOM     23  C   UNL     1       7.644   1.099   0.139  0.00  0.00    -0.025 A 
ATOM     24  C   UNL     1       8.272   0.049   0.816  0.00  0.00    +0.008 A 
ATOM     25  C   UNL     1       7.702  -1.207   0.815  0.00  0.00    +0.001 A 
ATOM     26  C   UNL     1       6.517  -1.432   0.137  0.00  0.00    +0.000 A 
ATOM     27  C   UNL     1       5.892  -0.399  -0.540  0.00  0.00    +0.001 A 
ATOM     28  C   UNL     1       6.446   0.863  -0.544  0.00  0.00    +0.008 A 
ENDBRANCH  22  23
BRANCH  21  29
ATOM     29  C   UNL     1       8.041   4.909   0.089  0.00  0.00    +0.037 C 
BRANCH  29  30
ATOM     30  C   UNL     1       7.814   5.371  -1.352  0.00  0.00    +0.005 C 
BRANCH  30  31
ATOM     31  C   UNL     1       8.406   6.769  -1.538  0.00  0.00    +0.000 C 
BRANCH  31  32
ATOM     32  C   UNL     1       8.180   7.231  -2.979  0.00  0.00    -0.000 C 
BRANCH  32  34
ATOM     33  C   UNL     1       8.546   9.092  -4.606  0.00  0.00    +0.004 C 
ATOM     34  C   UNL     1       8.772   8.630  -3.165  0.00  0.00    -0.003 C 
ENDBRANCH  32  34
ENDBRANCH  31  32
ENDBRANCH  30  31
ENDBRANCH  29  30
ENDBRANCH  21  29
ENDBRANCH  19  21
ENDBRANCH   1  20
TORSDOF 8
