REMARK  Name = ZINC39971076
REMARK  9 active torsions:
REMARK  status: ('A' for Active; 'I' for Inactive)
REMARK    1  A    between atoms: C_1  and  C_2
REMARK    2  A    between atoms: N_12  and  S_13
REMARK    3  A    between atoms: S_13  and  C_16
REMARK    4  A    between atoms: C_19  and  N_22
REMARK    5  A    between atoms: N_22  and  C_23
REMARK    6  A    between atoms: C_23  and  N_25
REMARK    7  A    between atoms: N_25  and  C_26
REMARK    8  A    between atoms: C_26  and  C_27
REMARK    9  A    between atoms: C_30  and  C_33
REMARK                            x       y       z     vdW  Elec       q    Type
REMARK                         _______ _______ _______ _____ _____    ______ ____
ROOT
ATOM      1  C   UNL     1      -0.421  -2.843   2.090  0.00  0.00    +0.109 A 
ATOM      2  C   UNL     1      -1.236  -3.205   1.034  0.00  0.00    +0.030 A 
ATOM      3  C   UNL     1      -1.439  -4.539   0.742  0.00  0.00    +0.025 A 
ATOM      4  C   UNL     1      -0.823  -5.518   1.510  0.00  0.00    +0.033 A 
ATOM      5  C   UNL     1      -0.004  -5.151   2.571  0.00  0.00    +0.025 A 
ATOM      6  C   UNL     1       0.199  -3.815   2.854  0.00  0.00    +0.030 A 
ENDROOT
BRANCH   1   7
ATOM      7  S   UNL     1      -0.165  -1.139   2.459  0.00  0.00    +0.075 S 
ATOM      8  O   UNL     1       0.209  -1.072   3.829  0.00  0.00    -0.150 OA
ATOM      9  O   UNL     1      -1.287  -0.438   1.941  0.00  0.00    -0.150 OA
BRANCH   7  20
ATOM     10  C   UNL     1       3.309  -1.806   1.643  0.00  0.00    +0.030 C 
ATOM     11  C   UNL     1       2.490  -0.635   2.188  0.00  0.00    +0.095 C 
ATOM     12  C   UNL     1       3.167   0.691   1.816  0.00  0.00    +0.029 C 
ATOM     13  C   UNL     1       3.337   0.749   0.298  0.00  0.00    +0.039 C 
ATOM     14  C   UNL     1       2.030   0.457  -0.390  0.00  0.00    -0.022 A 
ATOM     15  C   UNL     1       1.855   0.872  -1.700  0.00  0.00    +0.043 A 
ATOM     16  C   UNL     1       0.667   0.616  -2.361  0.00  0.00    +0.124 A 
ATOM     17  C   UNL     1      -0.355  -0.059  -1.715  0.00  0.00    +0.040 A 
ATOM     18  C   UNL     1      -0.188  -0.475  -0.409  0.00  0.00    +0.028 A 
ATOM     19  C   UNL     1       1.005  -0.216   0.257  0.00  0.00    +0.055 A 
ATOM     20  N   UNL     1       1.150  -0.641   1.585  0.00  0.00    -0.200 N 
ATOM     21  F   UNL     1       0.504   1.025  -3.638  0.00  0.00    -0.205 F 
ENDBRANCH   7  20
ENDBRANCH   1   7
BRANCH   4  22
ATOM     22  N   UNL     1      -1.026  -6.871   1.218  0.00  0.00    -0.297 N 
ATOM     23  H   UNL     1      -1.144  -7.511   1.937  0.00  0.00    +0.154 HD
BRANCH  22  24
ATOM     24  C   UNL     1      -1.058  -7.285  -0.064  0.00  0.00    +0.135 C 
ATOM     25  S   UNL     1      -0.703  -6.187  -1.328  0.00  0.00    -0.019 S 
BRANCH  24  26
ATOM     26  N   UNL     1      -1.370  -8.565  -0.351  0.00  0.00    -0.322 N 
ATOM     27  H   UNL     1      -1.571  -9.187   0.365  0.00  0.00    +0.148 HD
BRANCH  26  28
ATOM     28  C   UNL     1      -1.405  -9.015  -1.745  0.00  0.00    +0.138 C 
BRANCH  28  29
ATOM     29  C   UNL     1      -1.777 -10.475  -1.792  0.00  0.00    -0.030 A 
ATOM     30  C   UNL     1      -0.787 -11.440  -1.740  0.00  0.00    +0.006 A 
ATOM     31  C   UNL     1      -1.120 -12.778  -1.783  0.00  0.00    +0.015 A 
ATOM     32  C   UNL     1      -2.461 -13.158  -1.878  0.00  0.00    +0.063 A 
ATOM     33  C   UNL     1      -3.455 -12.178  -1.929  0.00  0.00    +0.015 A 
ATOM     34  C   UNL     1      -3.108 -10.844  -1.880  0.00  0.00    +0.006 A 
BRANCH  32  35
ATOM     35  C   UNL     1      -2.825 -14.587  -1.925  0.00  0.00    +0.387 C 
ATOM     36  O   UNL     1      -1.952 -15.442  -1.880  0.00  0.00    -0.241 OA
ATOM     37  O   UNL     1      -4.000 -14.916  -2.008  0.00  0.00    -0.241 OA
ENDBRANCH  32  35
ENDBRANCH  28  29
ENDBRANCH  26  28
ENDBRANCH  24  26
ENDBRANCH  22  24
ENDBRANCH   4  22
TORSDOF 8
