REMARK  Name = ZINC02920069
REMARK  11 active torsions:
REMARK  status: ('A' for Active; 'I' for Inactive)
REMARK    1  A    between atoms: C_1  and  C_2
REMARK    2  A    between atoms: C_2  and  C_3
REMARK    3  A    between atoms: C_3  and  C_5
REMARK    4  A    between atoms: C_3  and  N_6
REMARK    5  A    between atoms: C_7  and  C_9
REMARK    6  A    between atoms: C_11  and  S_23
REMARK    7  A    between atoms: C_14  and  S_15
REMARK    8  A    between atoms: S_15  and  C_16
REMARK    9  A    between atoms: S_23  and  N_26
REMARK   10  A    between atoms: C_28  and  C_35
REMARK   11  A    between atoms: C_31  and  C_34
REMARK                            x       y       z     vdW  Elec       q    Type
REMARK                         _______ _______ _______ _____ _____    ______ ____
ROOT
ATOM      1  C   UNL     1      -3.544   3.039   5.626  0.00  0.00    +0.052 A 
ATOM      2  C   UNL     1      -3.287   2.082   4.641  0.00  0.00    +0.042 A 
ATOM      3  C   UNL     1      -2.058   1.462   4.589  0.00  0.00    +0.106 A 
ATOM      4  C   UNL     1      -1.074   1.777   5.513  0.00  0.00    +0.029 A 
ATOM      5  C   UNL     1      -1.309   2.723   6.489  0.00  0.00    +0.018 A 
ATOM      6  C   UNL     1      -2.543   3.360   6.558  0.00  0.00    +0.025 A 
ENDROOT
BRANCH   1   8
ATOM      7  N   UNL     1      -5.814   3.393   4.792  0.00  0.00    -0.309 N 
ATOM      8  C   UNL     1      -4.857   3.706   5.688  0.00  0.00    +0.245 C 
ATOM      9  O   UNL     1      -5.076   4.538   6.547  0.00  0.00    -0.270 OA
ATOM     10  H   UNL     1      -5.639   2.730   4.107  0.00  0.00    +0.149 HD
BRANCH   7  11
ATOM     11  C   UNL     1      -7.119   4.056   4.853  0.00  0.00    +0.070 C 
ATOM     12  C   UNL     1      -7.052   5.386   4.098  0.00  0.00    +0.028 C 
BRANCH  11  14
ATOM     13  C   UNL     1      -8.334   1.881   5.039  0.00  0.00    +0.005 C 
ATOM     14  C   UNL     1      -8.178   3.158   4.211  0.00  0.00    +0.018 C 
ENDBRANCH  11  14
ENDBRANCH   7  11
ENDBRANCH   1   8
BRANCH   3  15
ATOM     15  S   UNL     1      -1.737   0.256   3.345  0.00  0.00    +0.061 S 
ATOM     16  O   UNL     1      -2.999  -0.260   2.944  0.00  0.00    -0.153 OA
ATOM     17  O   UNL     1      -0.698  -0.575   3.843  0.00  0.00    -0.153 OA
BRANCH  15  18
ATOM     18  N   UNL     1      -1.115   1.056   2.035  0.00  0.00    -0.176 NA
ATOM     19  C   UNL     1       0.334   1.258   1.900  0.00  0.00    +0.112 C 
ATOM     20  C   UNL     1       0.779   0.729   0.533  0.00  0.00    +0.002 C 
ATOM     21  C   UNL     1      -0.053   1.395  -0.564  0.00  0.00    +0.009 C 
ATOM     22  C   UNL     1      -1.530   1.046  -0.369  0.00  0.00    +0.002 C 
ATOM     23  C   UNL     1      -2.003   1.579   0.987  0.00  0.00    +0.112 C 
ATOM     24  C   UNL     1      -2.358   1.685  -1.486  0.00  0.00    +0.009 C 
ATOM     25  C   UNL     1       2.259   1.052   0.318  0.00  0.00    +0.009 C 
ENDBRANCH  15  18
ENDBRANCH   3  15
BRANCH   6  26
ATOM     26  S   UNL     1      -2.850   4.565   7.806  0.00  0.00    -0.089 S 
BRANCH  26  27
ATOM     27  C   UNL     1      -2.713   6.103   6.958  0.00  0.00    +0.014 A 
ATOM     28  C   UNL     1      -2.293   6.133   5.633  0.00  0.00    +0.015 A 
ATOM     29  C   UNL     1      -2.192   7.339   4.969  0.00  0.00    +0.003 A 
ATOM     30  C   UNL     1      -2.497   8.519   5.624  0.00  0.00    +0.020 A 
ATOM     31  C   UNL     1      -2.911   8.494   6.944  0.00  0.00    +0.042 A 
ATOM     32  C   UNL     1      -3.019   7.289   7.613  0.00  0.00    +0.035 A 
ATOM     33 CL   UNL     1      -3.292   9.977   7.762  0.00  0.00    -0.084 Cl
ENDBRANCH  26  27
ENDBRANCH   6  26
TORSDOF 7
