REMARK  Name = ZINC28057277
REMARK  2 active torsions:
REMARK  status: ('A' for Active; 'I' for Inactive)
REMARK    1  A    between atoms: C_5  and  C_7
REMARK    2  A    between atoms: C_18  and  C_20
REMARK                            x       y       z     vdW  Elec       q    Type
REMARK                         _______ _______ _______ _____ _____    ______ ____
ROOT
ATOM      1  C   UNL     1       2.730  -0.166   2.267  0.00  0.00    +0.177 C 
ATOM      2  C   UNL     1       3.059   1.013   1.385  0.00  0.00    +0.026 C 
ATOM      3  C   UNL     1       3.828   2.022   1.799  0.00  0.00    +0.050 C 
ATOM      4  C   UNL     1       4.112   3.127   0.852  0.00  0.00    +0.038 A 
ATOM      5  C   UNL     1       4.601   4.351   1.290  0.00  0.00    +0.013 A 
ATOM      6  C   UNL     1       4.851   5.353   0.370  0.00  0.00    +0.001 A 
ATOM      7  C   UNL     1       4.618   5.138  -0.977  0.00  0.00    +0.004 A 
ATOM      8  C   UNL     1       4.130   3.922  -1.421  0.00  0.00    +0.046 A 
ATOM      9  C   UNL     1       3.873   2.913  -0.512  0.00  0.00    +0.131 A 
ATOM     10  O   UNL     1       3.389   1.708  -0.906  0.00  0.00    -0.479 OA
ATOM     11  C   UNL     1       2.490   1.047  -0.016  0.00  0.00    +0.234 C 
ATOM     12  N   UNL     1       4.383   2.061   3.083  0.00  0.00    -0.282 N 
ATOM     13  C   UNL     1       4.351   0.891   3.825  0.00  0.00    +0.240 A 
ATOM     14  N   UNL     1       3.583  -0.165   3.446  0.00  0.00    -0.201 N 
ATOM     15  N   UNL     1       3.811  -1.152   4.404  0.00  0.00    -0.042 NA
ATOM     16  N   UNL     1       4.649  -0.653   5.254  0.00  0.00    -0.021 NA
ATOM     17  N   UNL     1       4.969   0.550   4.918  0.00  0.00    -0.092 NA
ATOM     18  H   UNL     1       4.821   2.995   3.465  0.00  0.00    +0.155 HD
ENDROOT
BRANCH   1  23
ATOM     19  C   UNL     1      -0.476   1.093   3.813  0.00  0.00    +0.001 A 
ATOM     20  C   UNL     1      -1.359   0.079   3.487  0.00  0.00    +0.003 A 
ATOM     21  C   UNL     1      -0.919  -1.014   2.766  0.00  0.00    +0.039 A 
ATOM     22  C   UNL     1       0.405  -1.093   2.365  0.00  0.00    +0.129 A 
ATOM     23  C   UNL     1       1.288  -0.080   2.697  0.00  0.00    +0.017 A 
ATOM     24  C   UNL     1       0.846   1.013   3.419  0.00  0.00    +0.009 A 
ATOM     25  F   UNL     1       0.834  -2.159   1.655  0.00  0.00    -0.205 F 
ENDBRANCH   1  23
BRANCH  11  26
ATOM     26  C   UNL     1       1.175   1.783   0.000  0.00  0.00    -0.003 A 
ATOM     27  C   UNL     1      -0.011   1.082  -0.118  0.00  0.00    +0.008 A 
ATOM     28  C   UNL     1      -1.217   1.757  -0.108  0.00  0.00    +0.015 A 
ATOM     29  C   UNL     1      -1.238   3.134   0.030  0.00  0.00    +0.018 A 
ATOM     30  C   UNL     1      -0.051   3.834   0.148  0.00  0.00    +0.015 A 
ATOM     31  C   UNL     1       1.155   3.159   0.134  0.00  0.00    +0.008 A 
ATOM     32 BR   UNL     1      -2.888   4.057   0.050  0.00  0.00    -0.050 Br
ENDBRANCH  11  26
TORSDOF 2
