REMARK  Name = ZINC36013928
REMARK  15 active torsions:
REMARK  status: ('A' for Active; 'I' for Inactive)
REMARK    1  A    between atoms: C_1  and  C_2
REMARK    2  A    between atoms: C_2  and  N_3
REMARK    3  A    between atoms: C_4  and  C_25
REMARK    4  A    between atoms: C_5  and  C_20
REMARK    5  A    between atoms: C_6  and  C_11
REMARK    6  A    between atoms: C_14  and  C_17
REMARK    7  A    between atoms: C_17  and  C_18
REMARK    8  A    between atoms: C_17  and  C_19
REMARK    9  A    between atoms: C_20  and  O_22
REMARK   10  A    between atoms: O_22  and  C_23
REMARK   11  A    between atoms: C_23  and  C_24
REMARK   12  A    between atoms: C_25  and  N_26
REMARK   13  A    between atoms: N_34  and  C_35
REMARK   14  A    between atoms: C_35  and  C_36
REMARK   15  A    between atoms: C_35  and  C_37
REMARK                            x       y       z     vdW  Elec       q    Type
REMARK                         _______ _______ _______ _____ _____    ______ ____
ROOT
ATOM      1  N   UNL     1      -1.319  -0.393   0.035  0.00  0.00    -0.258 N 
ATOM      2  C   UNL     1      -1.962  -0.542   1.231  0.00  0.00    +0.041 C 
ATOM      3  C   UNL     1      -3.233  -0.995   1.287  0.00  0.00    +0.080 C 
ATOM      4  C   UNL     1      -3.920  -1.333  -0.021  0.00  0.00    +0.144 C 
ATOM      5  N   UNL     1      -3.140  -1.137  -1.254  0.00  0.00    -0.288 N 
ATOM      6  C   UNL     1      -1.879  -0.671  -1.149  0.00  0.00    +0.307 C 
ATOM      7  O   UNL     1      -1.228  -0.503  -2.161  0.00  0.00    -0.252 OA
ATOM      8  H   UNL     1      -3.525  -1.335  -2.122  0.00  0.00    +0.151 HD
ENDROOT
BRANCH   4   9
ATOM      9  C   UNL     1      -5.166  -0.491  -0.122  0.00  0.00    -0.022 A 
ATOM     10  C   UNL     1      -5.079   0.826  -0.531  0.00  0.00    +0.006 A 
ATOM     11  C   UNL     1      -6.222   1.598  -0.624  0.00  0.00    +0.004 A 
ATOM     12  C   UNL     1      -7.452   1.053  -0.307  0.00  0.00    -0.045 A 
ATOM     13  C   UNL     1      -7.539  -0.265   0.102  0.00  0.00    +0.004 A 
ATOM     14  C   UNL     1      -6.397  -1.038   0.190  0.00  0.00    +0.006 A 
BRANCH  12  15
ATOM     15  C   UNL     1      -8.698   1.895  -0.407  0.00  0.00    +0.013 C 
ATOM     16  C   UNL     1      -9.663   1.260  -1.410  0.00  0.00    +0.012 C 
ATOM     17  C   UNL     1      -9.370   1.977   0.965  0.00  0.00    +0.012 C 
ENDBRANCH  12  15
ENDBRANCH   4   9
BRANCH   1  19
ATOM     18  C   UNL     1       0.051   1.631  -0.034  0.00  0.00    +0.025 C 
ATOM     19  C   UNL     1       0.059   0.104   0.049  0.00  0.00    +0.111 C 
ENDBRANCH   1  19
BRANCH   3  20
ATOM     20  C   UNL     1      -3.900  -1.150   2.525  0.00  0.00    +0.339 C 
ATOM     21  O   UNL     1      -3.952  -2.244   3.055  0.00  0.00    -0.245 OA
BRANCH  20  22
ATOM     22  O   UNL     1      -4.479  -0.085   3.118  0.00  0.00    -0.462 OA
BRANCH  22  23
ATOM     23  C   UNL     1      -5.135  -0.314   4.366  0.00  0.00    +0.229 C 
ATOM     24  C   UNL     1      -5.725   1.000   4.881  0.00  0.00    +0.048 C 
ENDBRANCH  22  23
ENDBRANCH  20  22
ENDBRANCH   3  20
BRANCH   2  25
ATOM     25  C   UNL     1      -1.242  -0.194   2.508  0.00  0.00    +0.136 C 
BRANCH  25  26
ATOM     26  N   UNL     1      -0.130  -1.132   2.714  0.00  0.00    -0.294 NA
ATOM     27  C   UNL     1      -0.626  -2.495   2.944  0.00  0.00    +0.104 C 
ATOM     28  C   UNL     1       0.557  -3.468   2.972  0.00  0.00    +0.124 C 
ATOM     29  N   UNL     1       1.534  -2.987   3.961  0.00  0.00    -0.283 N 
ATOM     30  C   UNL     1       1.976  -1.586   3.878  0.00  0.00    +0.124 C 
ATOM     31  C   UNL     1       0.737  -0.688   3.813  0.00  0.00    +0.104 C 
ATOM     32  C   UNL     1       2.011  -3.807   4.918  0.00  0.00    +0.302 C 
ATOM     33  O   UNL     1       1.706  -4.984   4.917  0.00  0.00    -0.253 OA
ATOM     34  N   UNL     1       2.827  -3.323   5.875  0.00  0.00    -0.297 N 
ATOM     35  H   UNL     1       3.124  -2.400   5.838  0.00  0.00    +0.150 HD
BRANCH  34  36
ATOM     36  C   UNL     1       3.266  -4.190   6.971  0.00  0.00    +0.068 C 
ATOM     37  C   UNL     1       4.592  -3.672   7.532  0.00  0.00    +0.027 C 
ATOM     38  C   UNL     1       2.209  -4.189   8.077  0.00  0.00    +0.027 C 
ENDBRANCH  34  36
ENDBRANCH  25  26
ENDBRANCH   2  25
TORSDOF 9
