REMARK  Name = ZINC22296308
REMARK  7 active torsions:
REMARK  status: ('A' for Active; 'I' for Inactive)
REMARK    1  A    between atoms: C_1  and  C_2
REMARK    2  A    between atoms: C_5  and  C_31
REMARK    3  A    between atoms: N_8  and  C_10
REMARK    4  A    between atoms: C_10  and  C_11
REMARK    5  A    between atoms: C_17  and  C_19
REMARK    6  A    between atoms: C_19  and  N_20
REMARK    7  A    between atoms: C_22  and  C_27
REMARK                            x       y       z     vdW  Elec       q    Type
REMARK                         _______ _______ _______ _____ _____    ______ ____
ROOT
ATOM      1  C   UNL     1       6.951  -2.495  -4.786  0.00  0.00    +0.034 A 
ATOM      2  C   UNL     1       6.037  -1.990  -5.650  0.00  0.00    +0.070 A 
ATOM      3  S   UNL     1       4.830  -1.332  -4.508  0.00  0.00    -0.060 S 
ATOM      4  C   UNL     1       5.644  -1.773  -3.039  0.00  0.00    +0.165 A 
ATOM      5  N   UNL     1       6.728  -2.373  -3.492  0.00  0.00    -0.231 NA
ATOM      6  N   UNL     1       5.251  -1.556  -1.724  0.00  0.00    -0.263 N 
ATOM      7  C   UNL     1       4.094  -0.917  -1.463  0.00  0.00    +0.239 C 
ATOM      8  O   UNL     1       3.395  -0.530  -2.376  0.00  0.00    -0.273 OA
ATOM      9  H   UNL     1       5.885  -1.907  -0.895  0.00  0.00    +0.157 HD
ENDROOT
BRANCH   1  10
ATOM     10  C   UNL     1       8.193  -3.182  -5.292  0.00  0.00    -0.022 C 
BRANCH  10  16
ATOM     11  C   UNL     1      13.014  -2.555  -6.041  0.00  0.00    +0.005 C 
ATOM     12  C   UNL     1      11.679  -1.849  -5.792  0.00  0.00    -0.031 C 
ATOM     13  C   UNL     1      11.784  -0.989  -4.530  0.00  0.00    +0.003 C 
ATOM     14  C   UNL     1      10.427  -0.334  -4.255  0.00  0.00    -0.031 C 
ATOM     15  C   UNL     1       9.361  -1.422  -4.109  0.00  0.00    -0.075 C 
ATOM     16  N   UNL     1       9.300  -2.217  -5.343  0.00  0.00    +0.384 N 
ATOM     17  C   UNL     1      10.577  -2.893  -5.602  0.00  0.00    -0.075 C 
ATOM     18  C   UNL     1      10.506   0.481  -2.962  0.00  0.00    +0.005 C 
ATOM     19  H   UNL     1       9.110  -1.526  -6.178  0.00  0.00    -0.081 HD
ENDBRANCH  10  16
ENDBRANCH   1  10
BRANCH   7  20
ATOM     20  C   UNL     1       3.668  -0.681  -0.037  0.00  0.00    +0.220 C 
BRANCH  20  21
ATOM     21  N   UNL     1       2.385   0.027  -0.021  0.00  0.00    -0.306 N 
ATOM     22  C   UNL     1       2.369   1.385  -0.014  0.00  0.00    +0.102 A 
ATOM     23  C   UNL     1       1.197   2.062   0.002  0.00  0.00    +0.071 A 
ATOM     24  C   UNL     1      -0.016   1.360   0.009  0.00  0.00    +0.019 A 
ATOM     25  C   UNL     1       0.002  -0.004   0.002  0.00  0.00    +0.071 A 
ATOM     26  C   UNL     1       1.237  -0.675  -0.013  0.00  0.00    +0.252 A 
ATOM     27  O   UNL     1       1.268  -1.895  -0.021  0.00  0.00    -0.268 OA
BRANCH  23  28
ATOM     28  C   UNL     1       1.197   3.569   0.010  0.00  0.00    +0.419 C 
ATOM     29  F   UNL     1       1.069   4.042  -1.300  0.00  0.00    -0.166 F 
ATOM     30  F   UNL     1       0.123   4.031   0.779  0.00  0.00    -0.166 F 
ATOM     31  F   UNL     1       2.397   4.032   0.558  0.00  0.00    -0.166 F 
ENDBRANCH  23  28
ENDBRANCH  20  21
ENDBRANCH   7  20
TORSDOF 5
