REMARK  Name = ZINC25795625
REMARK  10 active torsions:
REMARK  status: ('A' for Active; 'I' for Inactive)
REMARK    1  A    between atoms: C_1  and  C_2
REMARK    2  A    between atoms: C_2  and  C_4
REMARK    3  A    between atoms: C_2  and  N_14
REMARK    4  A    between atoms: C_7  and  S_10
REMARK    5  A    between atoms: S_10  and  N_13
REMARK    6  A    between atoms: N_14  and  C_15
REMARK    7  A    between atoms: N_14  and  C_16
REMARK    8  A    between atoms: C_16  and  C_17
REMARK    9  A    between atoms: N_19  and  C_20
REMARK   10  A    between atoms: C_23  and  N_26
REMARK                            x       y       z     vdW  Elec       q    Type
REMARK                         _______ _______ _______ _____ _____    ______ ____
ROOT
ATOM      1  N   UNL     1      -2.454   4.456   5.688  0.00  0.00    +0.388 N 
ATOM      2  C   UNL     1      -2.432   5.890   5.370  0.00  0.00    -0.095 C 
ATOM      3  H   UNL     1      -1.421   4.081   5.631  0.00  0.00    -0.081 HD
ENDROOT
BRANCH   1   5
ATOM      4  C   UNL     1      -4.628   4.381   4.563  0.00  0.00    -0.008 C 
ATOM      5  C   UNL     1      -3.260   3.712   4.711  0.00  0.00    -0.041 C 
BRANCH   5   6
ATOM      6  C   UNL     1      -2.555   3.708   3.379  0.00  0.00    -0.061 A 
ATOM      7  C   UNL     1      -3.291   3.713   2.208  0.00  0.00    +0.004 A 
ATOM      8  C   UNL     1      -2.644   3.709   0.986  0.00  0.00    +0.029 A 
ATOM      9  C   UNL     1      -1.263   3.701   0.935  0.00  0.00    +0.105 A 
ATOM     10  C   UNL     1      -0.528   3.691   2.105  0.00  0.00    +0.029 A 
ATOM     11  C   UNL     1      -1.174   3.699   3.327  0.00  0.00    +0.004 A 
BRANCH   9  12
ATOM     12  S   UNL     1      -0.440   3.696  -0.623  0.00  0.00    +0.056 S 
ATOM     13  O   UNL     1      -1.354   3.150  -1.564  0.00  0.00    -0.153 OA
ATOM     14  O   UNL     1       0.848   3.137  -0.400  0.00  0.00    -0.153 OA
BRANCH  12  15
ATOM     15  N   UNL     1      -0.202   5.276  -1.056  0.00  0.00    -0.204 NA
ATOM     16  H   UNL     1       0.312   5.316  -2.028  0.00  0.00    +0.144 HD
ATOM     17  H   UNL     1       0.414   5.776  -0.294  0.00  0.00    +0.144 HD
ENDBRANCH  12  15
ENDBRANCH   9  12
ENDBRANCH   5   6
ENDBRANCH   1   5
BRANCH   1  18
ATOM     18  C   UNL     1      -2.942   4.228   7.055  0.00  0.00    +0.019 C 
BRANCH  18  19
ATOM     19  C   UNL     1      -1.956   4.800   8.042  0.00  0.00    +0.201 C 
ATOM     20  O   UNL     1      -0.947   5.343   7.646  0.00  0.00    -0.278 OA
ATOM     21  N   UNL     1      -2.196   4.707   9.365  0.00  0.00    -0.287 N 
ATOM     22  H   UNL     1      -3.149   4.290   9.723  0.00  0.00    +0.155 HD
BRANCH  21  23
ATOM     23  C   UNL     1      -1.232   5.141  10.284  0.00  0.00    +0.033 A 
ATOM     24  C   UNL     1       0.118   5.016   9.986  0.00  0.00    +0.025 A 
ATOM     25  C   UNL     1       1.068   5.449  10.889  0.00  0.00    +0.025 A 
ATOM     26  C   UNL     1       0.673   6.000  12.101  0.00  0.00    +0.030 A 
ATOM     27  C   UNL     1      -0.677   6.120  12.402  0.00  0.00    +0.025 A 
ATOM     28  C   UNL     1      -1.627   5.691  11.497  0.00  0.00    +0.025 A 
BRANCH  26  29
ATOM     29  N   UNL     1       1.636   6.434  13.019  0.00  0.00    -0.330 N 
ATOM     30  C   UNL     1       1.527   7.896  13.253  0.00  0.00    +0.105 C 
ATOM     31  C   UNL     1       2.249   8.093  14.610  0.00  0.00    +0.020 C 
ATOM     32  C   UNL     1       1.839   6.833  15.405  0.00  0.00    +0.020 C 
ATOM     33  C   UNL     1       1.434   5.798  14.339  0.00  0.00    +0.105 C 
ENDBRANCH  26  29
ENDBRANCH  21  23
ENDBRANCH  18  19
ENDBRANCH   1  18
TORSDOF 8
