REMARK  Name = ZINC20884204
REMARK  12 active torsions:
REMARK  status: ('A' for Active; 'I' for Inactive)
REMARK    1  A    between atoms: C_1  and  C_2
REMARK    2  A    between atoms: C_2  and  C_3
REMARK    3  A    between atoms: C_3  and  O_4
REMARK    4  A    between atoms: O_4  and  C_5
REMARK    5  A    between atoms: C_8  and  C_11
REMARK    6  A    between atoms: C_16  and  C_26
REMARK    7  A    between atoms: C_29  and  O_35
REMARK    8  A    between atoms: C_30  and  O_32
REMARK    9  A    between atoms: O_32  and  C_33
REMARK   10  A    between atoms: C_33  and  C_34
REMARK   11  A    between atoms: O_35  and  C_36
REMARK   12  A    between atoms: C_36  and  C_37
REMARK                            x       y       z     vdW  Elec       q    Type
REMARK                         _______ _______ _______ _____ _____    ______ ____
ROOT
ATOM      1  C   UNL     1       3.873   3.303  -1.795  0.00  0.00    +0.032 C 
ATOM      2  C   UNL     1       2.432   3.354  -1.290  0.00  0.00    +0.059 C 
ATOM      3  C   UNL     1       1.970   1.957  -0.904  0.00  0.00    +0.017 C 
ATOM      4  C   UNL     1       2.417   0.886  -1.579  0.00  0.00    +0.036 C 
ATOM      5  C   UNL     1       2.009  -0.548  -1.337  0.00  0.00    +0.136 C 
ATOM      6  N   UNL     1       1.264  -0.756  -0.113  0.00  0.00    -0.331 N 
ATOM      7  C   UNL     1       0.007  -0.185   0.070  0.00  0.00    +0.049 A 
ATOM      8  C   UNL     1      -1.135  -0.967   0.153  0.00  0.00    +0.025 A 
ATOM      9  C   UNL     1      -2.371  -0.356   0.270  0.00  0.00    +0.002 A 
ATOM     10  C   UNL     1      -2.471   1.023   0.304  0.00  0.00    +0.002 A 
ATOM     11  C   UNL     1      -1.331   1.807   0.239  0.00  0.00    +0.025 A 
ATOM     12  C   UNL     1      -0.094   1.196   0.140  0.00  0.00    +0.052 A 
ATOM     13  N   UNL     1       1.095   1.920   0.133  0.00  0.00    -0.316 N 
ATOM     14  C   UNL     1       3.358   1.042  -2.624  0.00  0.00    +0.163 C 
ATOM     15  O   UNL     1       3.735   0.054  -3.224  0.00  0.00    -0.292 OA
ATOM     16  C   UNL     1       3.908   2.380  -3.018  0.00  0.00    +0.088 C 
ATOM     17  H   UNL     1       1.690  -1.374   0.692  0.00  0.00    +0.147 HD
ATOM     18  H   UNL     1       1.304   2.490   1.050  0.00  0.00    +0.152 HD
ENDROOT
BRANCH   1  22
ATOM     19  C   UNL     1       5.157   7.225  -2.904  0.00  0.00    +0.121 A 
ATOM     20  C   UNL     1       5.829   6.529  -1.910  0.00  0.00    +0.046 A 
ATOM     21  C   UNL     1       5.412   5.261  -1.553  0.00  0.00    +0.007 A 
ATOM     22  C   UNL     1       4.326   4.686  -2.186  0.00  0.00    -0.043 A 
ATOM     23  C   UNL     1       3.657   5.376  -3.180  0.00  0.00    +0.007 A 
ATOM     24  C   UNL     1       4.067   6.646  -3.537  0.00  0.00    +0.046 A 
BRANCH  19  25
ATOM     25  O   UNL     1       5.565   8.473  -3.256  0.00  0.00    -0.492 OA
BRANCH  25  26
ATOM     26  C   UNL     1       4.826   9.130  -4.287  0.00  0.00    +0.229 C 
BRANCH  26  28
ATOM     27  C   UNL     1       4.636  11.217  -5.648  0.00  0.00    +0.007 C 
ATOM     28  C   UNL     1       5.428  10.513  -4.544  0.00  0.00    +0.038 C 
ENDBRANCH  26  28
ENDBRANCH  25  26
ENDBRANCH  19  25
ENDBRANCH   1  22
BRANCH   5  29
ATOM     29  C   UNL     1       1.163  -1.008  -2.496  0.00  0.00    -0.019 A 
ATOM     30  C   UNL     1      -0.072  -0.430  -2.720  0.00  0.00    +0.009 A 
ATOM     31  C   UNL     1      -0.850  -0.845  -3.786  0.00  0.00    +0.050 A 
ATOM     32  C   UNL     1      -0.396  -1.850  -4.625  0.00  0.00    +0.162 A 
ATOM     33  C   UNL     1       0.845  -2.436  -4.395  0.00  0.00    +0.162 A 
ATOM     34  C   UNL     1       1.622  -2.012  -3.329  0.00  0.00    +0.055 A 
BRANCH  33  35
ATOM     35  O   UNL     1       1.295  -3.423  -5.215  0.00  0.00    -0.489 OA
BRANCH  35  36
ATOM     36  C   UNL     1       2.577  -3.979  -4.919  0.00  0.00    +0.226 C 
ATOM     37  C   UNL     1       2.910  -5.067  -5.942  0.00  0.00    +0.048 C 
ENDBRANCH  35  36
ENDBRANCH  33  35
BRANCH  32  38
ATOM     38  O   UNL     1      -1.162  -2.263  -5.670  0.00  0.00    -0.489 OA
BRANCH  38  39
ATOM     39  C   UNL     1      -2.424  -1.617  -5.844  0.00  0.00    +0.226 C 
ATOM     40  C   UNL     1      -3.137  -2.210  -7.061  0.00  0.00    +0.048 C 
ENDBRANCH  38  39
ENDBRANCH  32  38
ENDBRANCH   5  29
TORSDOF 9
