REMARK  Name = ZINC41604883
REMARK  4 active torsions:
REMARK  status: ('A' for Active; 'I' for Inactive)
REMARK    1  A    between atoms: C_1  and  C_2
REMARK    2  A    between atoms: N_5  and  C_8
REMARK    3  A    between atoms: C_8  and  C_9
REMARK    4  A    between atoms: C_12  and  N_15
REMARK                            x       y       z     vdW  Elec       q    Type
REMARK                         _______ _______ _______ _____ _____    ______ ____
ROOT
ATOM      1  C   UNL     1      -0.135  -4.415   2.715  0.00  0.00    -0.064 A 
ATOM      2  C   UNL     1       1.178  -4.846   2.766  0.00  0.00    +0.003 A 
ATOM      3  C   UNL     1       1.735  -5.228   3.970  0.00  0.00    +0.023 A 
ATOM      4  C   UNL     1       0.975  -5.178   5.132  0.00  0.00    +0.034 A 
ATOM      5  C   UNL     1      -0.344  -4.744   5.077  0.00  0.00    +0.023 A 
ATOM      6  C   UNL     1      -0.893  -4.359   3.870  0.00  0.00    +0.003 A 
ENDROOT
BRANCH   4   7
ATOM      7  N   UNL     1       1.535  -5.565   6.353  0.00  0.00    -0.285 N 
ATOM      8  C   UNL     1       2.864  -5.337   6.601  0.00  0.00    +0.200 A 
ATOM      9  N   UNL     1       3.430  -5.822   7.739  0.00  0.00    -0.295 N 
ATOM     10  H   UNL     1       2.899  -6.327   8.375  0.00  0.00    +0.172 HD
ATOM     11  C   UNL     1       4.734  -5.593   7.972  0.00  0.00    +0.257 A 
ATOM     12  O   UNL     1       5.257  -6.021   8.987  0.00  0.00    -0.267 OA
ATOM     13  C   UNL     1       5.502  -4.853   7.034  0.00  0.00    +0.049 A 
ATOM     14  C   UNL     1       4.887  -4.394   5.917  0.00  0.00    +0.064 A 
ATOM     15  N   UNL     1       3.578  -4.659   5.735  0.00  0.00    -0.219 NA
ATOM     16  C   UNL     1       5.742  -3.601   4.928  0.00  0.00    +0.125 C 
ATOM     17  S   UNL     1       7.219  -3.199   5.948  0.00  0.00    -0.150 S 
ATOM     18  C   UNL     1       6.988  -4.533   7.194  0.00  0.00    +0.111 C 
ATOM     19  H   UNL     1       0.984  -5.994   7.026  0.00  0.00    +0.155 HD
ENDBRANCH   4   7
BRANCH   1  20
ATOM     20  C   UNL     1      -0.739  -3.999   1.398  0.00  0.00    -0.043 C 
BRANCH  20  25
ATOM     21  C   UNL     1       0.636   1.225  -0.430  0.00  0.00    +0.007 C 
ATOM     22  C   UNL     1       0.458  -0.291  -0.328  0.00  0.00    -0.018 C 
ATOM     23  C   UNL     1      -1.033  -0.624  -0.218  0.00  0.00    -0.016 C 
ATOM     24  C   UNL     1      -1.200  -2.135  -0.036  0.00  0.00    -0.078 C 
ATOM     25  N   UNL     1      -0.510  -2.563   1.186  0.00  0.00    +0.382 N 
ATOM     26  C   UNL     1       0.931  -2.312   1.059  0.00  0.00    -0.078 C 
ATOM     27  C   UNL     1       1.180  -0.809   0.919  0.00  0.00    -0.016 C 
ATOM     28  H   UNL     1      -0.872  -2.047   1.974  0.00  0.00    -0.081 HD
ENDBRANCH  20  25
ENDBRANCH   1  20
TORSDOF 3
