REMARK  Name = ZINC41604634
REMARK  3 active torsions:
REMARK  status: ('A' for Active; 'I' for Inactive)
REMARK    1  A    between atoms: C_3  and  N_14
REMARK    2  A    between atoms: C_6  and  C_7
REMARK    3  A    between atoms: C_7  and  N_8
REMARK                            x       y       z     vdW  Elec       q    Type
REMARK                         _______ _______ _______ _____ _____    ______ ____
ROOT
ATOM      1  N   UNL     1       3.583   2.123  -0.021  0.00  0.00    -0.285 N 
ATOM      2  C   UNL     1       3.628   3.395   0.486  0.00  0.00    +0.200 A 
ATOM      3  N   UNL     1       4.774   4.121   0.376  0.00  0.00    -0.295 N 
ATOM      4  H   UNL     1       5.553   3.742  -0.062  0.00  0.00    +0.172 HD
ATOM      5  C   UNL     1       4.819   5.370   0.880  0.00  0.00    +0.256 A 
ATOM      6  O   UNL     1       5.838   6.036   0.792  0.00  0.00    -0.267 OA
ATOM      7  C   UNL     1       3.673   5.899   1.511  0.00  0.00    +0.038 A 
ATOM      8  C   UNL     1       2.554   5.133   1.585  0.00  0.00    +0.053 A 
ATOM      9  N   UNL     1       2.562   3.899   1.068  0.00  0.00    -0.220 NA
ATOM     10  C   UNL     1       1.277   5.619   2.220  0.00  0.00    +0.056 C 
ATOM     11  C   UNL     1       1.549   6.824   3.119  0.00  0.00    +0.006 C 
ATOM     12  C   UNL     1       2.354   7.854   2.317  0.00  0.00    +0.005 C 
ATOM     13  C   UNL     1       3.753   7.290   2.078  0.00  0.00    +0.042 C 
ATOM     14  H   UNL     1       4.388   1.715  -0.378  0.00  0.00    +0.155 HD
ENDROOT
BRANCH   1  17
ATOM     15  C   UNL     1      -0.013   1.382  -0.207  0.00  0.00    +0.007 A 
ATOM     16  C   UNL     1       1.176   2.086  -0.203  0.00  0.00    +0.023 A 
ATOM     17  C   UNL     1       2.378   1.414  -0.025  0.00  0.00    +0.034 A 
ATOM     18  C   UNL     1       2.381   0.036   0.149  0.00  0.00    +0.023 A 
ATOM     19  C   UNL     1       1.189  -0.662   0.144  0.00  0.00    +0.007 A 
ATOM     20  C   UNL     1      -0.006   0.010  -0.033  0.00  0.00    -0.033 A 
BRANCH  20  21
ATOM     21  C   UNL     1      -1.305  -0.754  -0.038  0.00  0.00    +0.119 C 
BRANCH  21  22
ATOM     22  N   UNL     1      -1.621  -1.175  -1.409  0.00  0.00    -0.294 NA
ATOM     23  C   UNL     1      -1.903  -0.014  -2.265  0.00  0.00    +0.113 C 
ATOM     24  C   UNL     1      -2.167  -0.493  -3.695  0.00  0.00    +0.175 C 
ATOM     25  O   UNL     1      -3.244  -1.434  -3.686  0.00  0.00    -0.377 OA
ATOM     26  C   UNL     1      -3.003  -2.578  -2.863  0.00  0.00    +0.175 C 
ATOM     27  C   UNL     1      -2.747  -2.120  -1.424  0.00  0.00    +0.113 C 
ENDBRANCH  21  22
ENDBRANCH  20  21
ENDBRANCH   1  17
TORSDOF 3
