REMARK  Name = ZINC08488936
REMARK  9 active torsions:
REMARK  status: ('A' for Active; 'I' for Inactive)
REMARK    1  A    between atoms: C_1  and  C_2
REMARK    2  A    between atoms: C_2  and  C_4
REMARK    3  A    between atoms: C_2  and  N_11
REMARK    4  A    between atoms: N_11  and  S_12
REMARK    5  A    between atoms: S_12  and  C_15
REMARK    6  A    between atoms: C_18  and  C_21
REMARK    7  A    between atoms: C_21  and  C_22
REMARK    8  A    between atoms: C_21  and  C_23
REMARK    9  A    between atoms: C_21  and  C_24
REMARK                            x       y       z     vdW  Elec       q    Type
REMARK                         _______ _______ _______ _____ _____    ______ ____
ROOT
ATOM      1  S   UNL     1      -0.020   1.652   0.011  0.00  0.00    +0.059 S 
ATOM      2  O   UNL     1      -0.589   2.057  -1.227  0.00  0.00    -0.153 OA
ATOM      3  O   UNL     1      -0.565   2.044   1.264  0.00  0.00    -0.153 OA
ENDROOT
BRANCH   1   4
ATOM      4  C   UNL     1       1.655   2.196  -0.002  0.00  0.00    +0.105 A 
ATOM      5  C   UNL     1       2.323   2.408   1.190  0.00  0.00    +0.029 A 
ATOM      6  C   UNL     1       3.639   2.830   1.180  0.00  0.00    +0.006 A 
ATOM      7  C   UNL     1       4.285   3.050  -0.022  0.00  0.00    -0.042 A 
ATOM      8  C   UNL     1       3.616   2.842  -1.214  0.00  0.00    +0.006 A 
ATOM      9  C   UNL     1       2.301   2.415  -1.204  0.00  0.00    +0.029 A 
BRANCH   7  10
ATOM     10  C   UNL     1       5.718   3.515  -0.034  0.00  0.00    -0.013 C 
ATOM     11  C   UNL     1       5.811   4.864  -0.750  0.00  0.00    +0.015 C 
ATOM     12  C   UNL     1       6.217   3.665   1.405  0.00  0.00    +0.015 C 
ATOM     13  C   UNL     1       6.582   2.487  -0.768  0.00  0.00    +0.015 C 
ENDBRANCH   7  10
ENDBRANCH   1   4
BRANCH   1  14
ATOM     14  N   UNL     1       0.002  -0.004   0.002  0.00  0.00    -0.183 NA
ATOM     15  H   UNL     1      -0.354  -0.490  -0.759  0.00  0.00    +0.149 HD
BRANCH  14  17
ATOM     16  C   UNL     1      -0.569  -1.120   2.102  0.00  0.00    +0.031 C 
ATOM     17  C   UNL     1       0.559  -0.735   1.143  0.00  0.00    +0.103 C 
BRANCH  17  18
ATOM     18  C   UNL     1       1.248  -1.983   0.652  0.00  0.00    -0.029 A 
ATOM     19  C   UNL     1       0.681  -2.732  -0.362  0.00  0.00    +0.006 A 
ATOM     20  C   UNL     1       1.315  -3.873  -0.816  0.00  0.00    +0.020 A 
ATOM     21  C   UNL     1       2.512  -4.271  -0.249  0.00  0.00    +0.041 A 
ATOM     22  C   UNL     1       3.077  -3.524   0.770  0.00  0.00    +0.020 A 
ATOM     23  C   UNL     1       2.444  -2.380   1.219  0.00  0.00    +0.006 A 
ATOM     24 CL   UNL     1       3.306  -5.707  -0.815  0.00  0.00    -0.084 Cl
ENDBRANCH  17  18
ENDBRANCH  14  17
ENDBRANCH   1  14
TORSDOF 5
