REMARK  Name = ZINC03455321
REMARK  11 active torsions:
REMARK  status: ('A' for Active; 'I' for Inactive)
REMARK    1  A    between atoms: C_1  and  C_2
REMARK    2  A    between atoms: C_2  and  C_4
REMARK    3  A    between atoms: C_2  and  S_10
REMARK    4  A    between atoms: S_10  and  C_11
REMARK    5  A    between atoms: C_15  and  O_32
REMARK    6  A    between atoms: C_16  and  O_30
REMARK    7  A    between atoms: N_21  and  C_22
REMARK    8  A    between atoms: C_22  and  C_23
REMARK    9  A    between atoms: C_23  and  C_24
REMARK   10  A    between atoms: O_30  and  C_31
REMARK   11  A    between atoms: O_32  and  C_33
REMARK                            x       y       z     vdW  Elec       q    Type
REMARK                         _______ _______ _______ _____ _____    ______ ____
ROOT
ATOM      1  C   UNL     1      -5.141   0.755   0.658  0.00  0.00    +0.173 A 
ATOM      2  N   UNL     1      -4.901  -0.478   0.289  0.00  0.00    -0.223 NA
ATOM      3  C   UNL     1      -5.871  -1.424   0.303  0.00  0.00    +0.083 A 
ATOM      4  C   UNL     1      -5.612  -2.739  -0.086  0.00  0.00    +0.078 A 
ATOM      5  C   UNL     1      -6.629  -3.673  -0.064  0.00  0.00    +0.164 A 
ATOM      6  C   UNL     1      -7.918  -3.315   0.346  0.00  0.00    +0.162 A 
ATOM      7  C   UNL     1      -8.193  -2.021   0.734  0.00  0.00    +0.064 A 
ATOM      8  C   UNL     1      -7.175  -1.065   0.716  0.00  0.00    +0.069 A 
ATOM      9  C   UNL     1      -7.416   0.325   1.119  0.00  0.00    +0.263 A 
ATOM     10  O   UNL     1      -8.518   0.694   1.485  0.00  0.00    -0.267 OA
ATOM     11  N   UNL     1      -6.371   1.183   1.070  0.00  0.00    -0.287 N 
ENDROOT
BRANCH   6  12
ATOM     12  O   UNL     1      -8.906  -4.250   0.361  0.00  0.00    -0.491 OA
ATOM     13  C   UNL     1     -10.200  -3.819   0.790  0.00  0.00    +0.277 C 
ENDBRANCH   6  12
BRANCH   5  14
ATOM     14  O   UNL     1      -6.375  -4.953  -0.442  0.00  0.00    -0.491 OA
ATOM     15  C   UNL     1      -5.039  -5.256  -0.849  0.00  0.00    +0.277 C 
ENDBRANCH   5  14
BRANCH   1  16
ATOM     16  S   UNL     1      -3.818   1.918   0.614  0.00  0.00    -0.075 S 
BRANCH  16  18
ATOM     17  C   UNL     1      -2.799   0.384  -1.403  0.00  0.00    +0.029 C 
ATOM     18  C   UNL     1      -2.482   0.853   0.018  0.00  0.00    +0.137 C 
BRANCH  18  19
ATOM     19  C   UNL     1      -1.187   1.624   0.017  0.00  0.00    +0.233 C 
ATOM     20  O   UNL     1      -1.204   2.836   0.023  0.00  0.00    -0.274 OA
ATOM     21  N   UNL     1      -0.011   0.966   0.007  0.00  0.00    -0.239 N 
ATOM     22  C   UNL     1       1.147   1.655   0.000  0.00  0.00    +0.303 C 
ATOM     23  O   UNL     1       1.130   2.871   0.007  0.00  0.00    -0.253 OA
ATOM     24  N   UNL     1       2.323   0.998  -0.015  0.00  0.00    -0.313 N 
ATOM     25  H   UNL     1       0.002  -0.004   0.002  0.00  0.00    +0.159 HD
ATOM     26  H   UNL     1       2.336   0.028  -0.020  0.00  0.00    +0.146 HD
ATOM     27  H   UNL     1       3.156   1.494  -0.020  0.00  0.00    +0.146 HD
ENDBRANCH  18  19
ENDBRANCH  16  18
ENDBRANCH   1  16
BRANCH  11  28
ATOM     28  C   UNL     1      -6.560   2.582   1.463  0.00  0.00    +0.131 C 
BRANCH  28  29
ATOM     29  C   UNL     1      -6.965   3.405   0.238  0.00  0.00    +0.052 C 
BRANCH  29  30
ATOM     30  C   UNL     1      -7.159   4.843   0.642  0.00  0.00    -0.072 C 
ATOM     31  C   UNL     1      -6.164   5.657   0.489  0.00  0.00    -0.028 C 
ATOM     32  C   UNL     1      -6.203   7.112   0.854  0.00  0.00    +0.027 C 
ATOM     33  C   UNL     1      -7.652   7.576   1.014  0.00  0.00    +0.004 C 
ATOM     34  C   UNL     1      -8.382   6.583   1.928  0.00  0.00    +0.005 C 
ATOM     35  C   UNL     1      -8.497   5.246   1.191  0.00  0.00    +0.030 C 
ENDBRANCH  29  30
ENDBRANCH  28  29
ENDBRANCH  11  28
TORSDOF 8
