REMARK  Name = ZINC43225349
REMARK  12 active torsions:
REMARK  status: ('A' for Active; 'I' for Inactive)
REMARK    1  A    between atoms: C_1  and  C_2
REMARK    2  A    between atoms: C_2  and  C_3
REMARK    3  A    between atoms: C_3  and  C_4
REMARK    4  A    between atoms: C_4  and  C_5
REMARK    5  A    between atoms: C_5  and  C_6
REMARK    6  A    between atoms: C_7  and  C_23
REMARK    7  A    between atoms: C_8  and  C_20
REMARK    8  A    between atoms: C_9  and  C_19
REMARK    9  A    between atoms: N_10  and  C_11
REMARK   10  A    between atoms: C_11  and  C_12
REMARK   11  A    between atoms: C_12  and  C_13
REMARK   12  A    between atoms: C_26  and  C_29
REMARK                            x       y       z     vdW  Elec       q    Type
REMARK                         _______ _______ _______ _____ _____    ______ ____
ROOT
ATOM      1  C   UNL     1      -2.828  -4.100   0.007  0.00  0.00    +0.027 A 
ATOM      2  C   UNL     1      -2.821  -4.886  -1.101  0.00  0.00    +0.015 A 
ATOM      3  C   UNL     1      -2.800  -6.277  -0.613  0.00  0.00    +0.065 A 
ATOM      4  C   UNL     1      -2.795  -6.198   0.751  0.00  0.00    +0.029 A 
ATOM      5  N   UNL     1      -2.806  -4.900   1.109  0.00  0.00    -0.346 N 
ATOM      6  C   UNL     1      -2.774  -7.371   1.698  0.00  0.00    +0.064 C 
ENDROOT
BRANCH   2   7
ATOM      7  C   UNL     1      -2.834  -4.436  -2.513  0.00  0.00    -0.015 A 
ATOM      8  C   UNL     1      -3.939  -3.749  -3.016  0.00  0.00    +0.009 A 
ATOM      9  C   UNL     1      -3.951  -3.331  -4.328  0.00  0.00    +0.009 A 
ATOM     10  C   UNL     1      -2.859  -3.595  -5.154  0.00  0.00    -0.018 A 
ATOM     11  C   UNL     1      -1.754  -4.282  -4.651  0.00  0.00    +0.009 A 
ATOM     12  C   UNL     1      -1.740  -4.695  -3.337  0.00  0.00    +0.009 A 
BRANCH  10  13
ATOM     13  C   UNL     1      -2.872  -3.145  -6.567  0.00  0.00    -0.018 A 
ATOM     14  C   UNL     1      -3.972  -2.453  -7.071  0.00  0.00    +0.008 A 
ATOM     15  C   UNL     1      -3.979  -2.037  -8.387  0.00  0.00    +0.001 A 
ATOM     16  C   UNL     1      -2.896  -2.305  -9.205  0.00  0.00    +0.000 A 
ATOM     17  C   UNL     1      -1.802  -2.991  -8.711  0.00  0.00    +0.001 A 
ATOM     18  C   UNL     1      -1.782  -3.407  -7.395  0.00  0.00    +0.008 A 
ENDBRANCH  10  13
ENDBRANCH   2   7
BRANCH   3  19
ATOM     19  C   UNL     1      -2.787  -7.500  -1.429  0.00  0.00    +0.244 C 
ATOM     20  O   UNL     1      -1.728  -7.992  -1.772  0.00  0.00    -0.270 OA
ATOM     21  N   UNL     1      -3.948  -8.077  -1.797  0.00  0.00    -0.325 N 
ATOM     22  H   UNL     1      -4.792  -7.686  -1.524  0.00  0.00    +0.145 HD
ATOM     23  H   UNL     1      -3.939  -8.884  -2.336  0.00  0.00    +0.145 HD
ENDBRANCH   3  19
BRANCH   1  24
ATOM     24  C   UNL     1      -2.848  -2.593   0.015  0.00  0.00    +0.054 C 
BRANCH  24  25
ATOM     25  C   UNL     1      -1.413  -2.063   0.004  0.00  0.00    +0.006 C 
BRANCH  25  26
ATOM     26  C   UNL     1      -1.433  -0.534   0.013  0.00  0.00    +0.000 C 
BRANCH  26  28
ATOM     27  C   UNL     1      -0.019   1.526   0.010  0.00  0.00    +0.004 C 
ATOM     28  C   UNL     1       0.002  -0.004   0.002  0.00  0.00    -0.003 C 
ENDBRANCH  26  28
ENDBRANCH  25  26
ENDBRANCH  24  25
ENDBRANCH   1  24
BRANCH   5  29
ATOM     29  C   UNL     1      -2.800  -4.416   2.492  0.00  0.00    +0.128 C 
BRANCH  29  30
ATOM     30  C   UNL     1      -4.241  -4.267   2.986  0.00  0.00    +0.076 C 
BRANCH  30  31
ATOM     31  C   UNL     1      -4.235  -3.769   4.409  0.00  0.00    +0.037 A 
ATOM     32  C   UNL     1      -4.114  -4.518   5.521  0.00  0.00    +0.133 A 
ATOM     33  N   UNL     1      -4.156  -3.697   6.581  0.00  0.00    -0.244 NA
ATOM     34  C   UNL     1      -4.298  -2.468   6.167  0.00  0.00    +0.196 A 
ATOM     35  N   UNL     1      -4.345  -2.468   4.818  0.00  0.00    -0.348 N 
ATOM     36  H   UNL     1      -4.442  -1.691   4.245  0.00  0.00    +0.166 HD
ENDBRANCH  30  31
ENDBRANCH  29  30
ENDBRANCH   5  29
TORSDOF 10
