REMARK  Name = ZINC63782757
REMARK  9 active torsions:
REMARK  status: ('A' for Active; 'I' for Inactive)
REMARK    1  A    between atoms: C_3  and  O_11
REMARK    2  A    between atoms: C_6  and  C_7
REMARK    3  A    between atoms: C_7  and  C_8
REMARK    4  A    between atoms: O_11  and  C_12
REMARK    5  A    between atoms: C_12  and  C_13
REMARK    6  A    between atoms: C_15  and  C_19
REMARK    7  A    between atoms: N_21  and  C_22
REMARK    8  A    between atoms: C_22  and  C_23
REMARK    9  A    between atoms: C_23  and  C_24
REMARK                            x       y       z     vdW  Elec       q    Type
REMARK                         _______ _______ _______ _____ _____    ______ ____
ROOT
ATOM      1  C   UNL     1       5.940   2.274  -0.043  0.00  0.00    +0.141 C 
ATOM      2  N   UNL     1       7.167   1.884  -0.062  0.00  0.00    -0.336 N 
ATOM      3  C   UNL     1       8.038   3.065  -0.064  0.00  0.00    +0.329 C 
ATOM      4  O   UNL     1       7.147   4.191  -0.043  0.00  0.00    -0.239 OA
ATOM      5  N   UNL     1       5.841   3.635  -0.036  0.00  0.00    -0.248 N 
ATOM      6  H   UNL     1       5.013   4.139  -0.025  0.00  0.00    +0.196 HD
ATOM      7  H   UNL     1       7.466   0.961  -0.073  0.00  0.00    +0.164 HD
ENDROOT
BRANCH   3   8
ATOM      8  C   UNL     1       8.884   3.089  -1.311  0.00  0.00    +0.265 C 
ATOM      9  O   UNL     1       8.677   3.921  -2.169  0.00  0.00    -0.271 OA
ATOM     10  N   UNL     1       9.872   2.186  -1.472  0.00  0.00    -0.311 N 
ATOM     11  H   UNL     1      10.038   1.521  -0.786  0.00  0.00    +0.149 HD
BRANCH  10  12
ATOM     12  C   UNL     1      10.695   2.209  -2.684  0.00  0.00    +0.108 C 
BRANCH  12  13
ATOM     13  C   UNL     1      11.733   1.088  -2.616  0.00  0.00    +0.052 C 
BRANCH  13  14
ATOM     14  C   UNL     1      12.580   1.111  -3.863  0.00  0.00    -0.040 C 
ATOM     15  C   UNL     1      13.780   1.716  -4.020  0.00  0.00    +0.000 A 
ATOM     16  C   UNL     1      14.623   2.502  -3.112  0.00  0.00    +0.030 A 
ATOM     17  C   UNL     1      15.800   2.990  -3.567  0.00  0.00    +0.042 A 
ATOM     18  C   UNL     1      16.234   2.762  -4.882  0.00  0.00    +0.022 A 
ATOM     19  C   UNL     1      15.514   2.050  -5.773  0.00  0.00    +0.027 A 
ATOM     20  C   UNL     1      14.260   1.490  -5.402  0.00  0.00    +0.043 A 
ATOM     21  N   UNL     1      13.391   0.774  -6.073  0.00  0.00    -0.380 N 
ATOM     22  C   UNL     1      12.263   0.459  -5.190  0.00  0.00    +0.144 C 
ATOM     23 CL   UNL     1      16.801   3.921  -2.496  0.00  0.00    -0.084 Cl
ATOM     24  H   UNL     1      13.480   0.496  -6.998  0.00  0.00    +0.160 HD
ENDBRANCH  13  14
ENDBRANCH  12  13
ENDBRANCH  10  12
ENDBRANCH   3   8
BRANCH   1  25
ATOM     25  C   UNL     1       4.756   1.341  -0.036  0.00  0.00    +0.302 C 
BRANCH  25  26
ATOM     26  O   UNL     1       3.548   2.104  -0.021  0.00  0.00    -0.484 OA
BRANCH  26  29
ATOM     27  C   UNL     1      -0.017   1.378   0.010  0.00  0.00    +0.007 A 
ATOM     28  C   UNL     1       1.169   2.087   0.002  0.00  0.00    +0.046 A 
ATOM     29  C   UNL     1       2.380   1.409  -0.013  0.00  0.00    +0.121 A 
ATOM     30  C   UNL     1       2.396   0.022  -0.021  0.00  0.00    +0.046 A 
ATOM     31  C   UNL     1       1.207  -0.681  -0.013  0.00  0.00    +0.007 A 
ATOM     32  C   UNL     1       0.002  -0.004   0.002  0.00  0.00    -0.038 A 
BRANCH  32  33
ATOM     33  C   UNL     1      -1.293  -0.774   0.011  0.00  0.00    +0.130 C 
BRANCH  33  34
ATOM     34  C   UNL     1      -1.739  -1.023  -1.407  0.00  0.00    +0.215 C 
ATOM     35  O   UNL     1      -1.071  -0.615  -2.333  0.00  0.00    -0.276 OA
ATOM     36  N   UNL     1      -2.881  -1.699  -1.646  0.00  0.00    -0.329 N 
ATOM     37  H   UNL     1      -3.415  -2.025  -0.905  0.00  0.00    +0.145 HD
ATOM     38  H   UNL     1      -3.168  -1.859  -2.558  0.00  0.00    +0.145 HD
ENDBRANCH  33  34
ENDBRANCH  32  33
ENDBRANCH  26  29
ENDBRANCH  25  26
ENDBRANCH   1  25
TORSDOF 9
