REMARK  Name = ZINC38775845
REMARK  5 active torsions:
REMARK  status: ('A' for Active; 'I' for Inactive)
REMARK    1  A    between atoms: C_4  and  C_7
REMARK    2  A    between atoms: C_13  and  C_21
REMARK    3  A    between atoms: C_24  and  O_27
REMARK    4  A    between atoms: O_27  and  C_28
REMARK    5  A    between atoms: C_28  and  C_29
REMARK                            x       y       z     vdW  Elec       q    Type
REMARK                         _______ _______ _______ _____ _____    ______ ____
ROOT
ATOM      1  C   UNL     1       3.696  -0.684  -0.038  0.00  0.00    +0.154 C 
ATOM      2  N   UNL     1       4.795   0.045  -0.041  0.00  0.00    -0.160 NA
ATOM      3  C   UNL     1       6.013  -0.505   0.011  0.00  0.00    +0.249 C 
ATOM      4  O   UNL     1       7.021   0.174  -0.018  0.00  0.00    -0.273 OA
ATOM      5  C   UNL     1       6.074  -2.015   0.107  0.00  0.00    +0.148 C 
ATOM      6  C   UNL     1       6.941  -2.534  -1.042  0.00  0.00    +0.047 C 
ATOM      7  C   UNL     1       7.149  -4.039  -0.856  0.00  0.00    +0.105 C 
ATOM      8  C   UNL     1       5.844  -4.734  -0.593  0.00  0.00    +0.219 C 
ATOM      9  O   UNL     1       5.781  -5.933  -0.768  0.00  0.00    -0.275 OA
ATOM     10  N   UNL     1       4.744  -4.088  -0.173  0.00  0.00    -0.273 N 
ATOM     11  C   UNL     1       4.744  -2.738  -0.006  0.00  0.00    +0.116 C 
ATOM     12  N   UNL     1       3.656  -2.021  -0.045  0.00  0.00    -0.218 NA
ATOM     13  H   UNL     1       3.939  -4.591   0.027  0.00  0.00    +0.156 HD
ENDROOT
BRANCH   1  17
ATOM     14  C   UNL     1      -0.017   1.380   0.010  0.00  0.00    +0.000 A 
ATOM     15  C   UNL     1       1.168   2.094   0.002  0.00  0.00    +0.001 A 
ATOM     16  C   UNL     1       2.377   1.431  -0.013  0.00  0.00    +0.011 A 
ATOM     17  C   UNL     1       2.404   0.034  -0.021  0.00  0.00    +0.017 A 
ATOM     18  C   UNL     1       1.204  -0.681  -0.013  0.00  0.00    +0.011 A 
ATOM     19  C   UNL     1       0.002  -0.004   0.002  0.00  0.00    +0.001 A 
ENDBRANCH   1  17
BRANCH   6  20
ATOM     20  C   UNL     1       8.273  -1.830  -1.028  0.00  0.00    -0.042 A 
ATOM     21  C   UNL     1       9.097  -1.934   0.078  0.00  0.00    +0.007 A 
ATOM     22  C   UNL     1      10.319  -1.289   0.093  0.00  0.00    +0.046 A 
ATOM     23  C   UNL     1      10.719  -0.538  -1.002  0.00  0.00    +0.121 A 
ATOM     24  C   UNL     1       9.891  -0.436  -2.110  0.00  0.00    +0.046 A 
ATOM     25  C   UNL     1       8.672  -1.087  -2.123  0.00  0.00    +0.007 A 
BRANCH  23  26
ATOM     26  O   UNL     1      11.920   0.098  -0.989  0.00  0.00    -0.487 OA
BRANCH  26  27
ATOM     27  C   UNL     1      12.267   0.854  -2.151  0.00  0.00    +0.266 C 
BRANCH  27  28
ATOM     28  C   UNL     1      13.622   1.482  -1.956  0.00  0.00    +0.008 A 
ATOM     29  C   UNL     1      14.319   1.271  -0.781  0.00  0.00    +0.008 A 
ATOM     30  C   UNL     1      15.563   1.847  -0.601  0.00  0.00    +0.000 A 
ATOM     31  C   UNL     1      16.110   2.635  -1.597  0.00  0.00    +0.001 A 
ATOM     32  C   UNL     1      15.414   2.847  -2.772  0.00  0.00    +0.020 A 
ATOM     33  C   UNL     1      14.172   2.266  -2.954  0.00  0.00    +0.047 A 
ATOM     34 CL   UNL     1      13.300   2.526  -4.432  0.00  0.00    -0.083 Cl
ENDBRANCH  27  28
ENDBRANCH  26  27
ENDBRANCH  23  26
ENDBRANCH   6  20
TORSDOF 5
