REMARK  Name = ZINC20927768
REMARK  12 active torsions:
REMARK  status: ('A' for Active; 'I' for Inactive)
REMARK    1  A    between atoms: C_1  and  O_2
REMARK    2  A    between atoms: O_2  and  C_3
REMARK    3  A    between atoms: C_8  and  C_9
REMARK    4  A    between atoms: C_10  and  C_11
REMARK    5  A    between atoms: N_12  and  N_13
REMARK    6  A    between atoms: N_13  and  C_14
REMARK    7  A    between atoms: C_17  and  S_23
REMARK    8  A    between atoms: C_19  and  N_20
REMARK    9  A    between atoms: S_23  and  N_26
REMARK   10  A    between atoms: N_26  and  C_27
REMARK   11  A    between atoms: C_32  and  O_33
REMARK   12  A    between atoms: O_33  and  C_34
REMARK                            x       y       z     vdW  Elec       q    Type
REMARK                         _______ _______ _______ _____ _____    ______ ____
ROOT
ATOM      1  C   UNL     1       1.717   4.500   3.520  0.00  0.00    +0.079 A 
ATOM      2  C   UNL     1       1.080   5.038   2.399  0.00  0.00    +0.029 A 
ATOM      3  C   UNL     1       0.939   4.277   1.258  0.00  0.00    +0.031 A 
ATOM      4  C   UNL     1       1.419   2.978   1.226  0.00  0.00    +0.111 A 
ATOM      5  C   UNL     1       2.052   2.439   2.333  0.00  0.00    +0.063 A 
ATOM      6  C   UNL     1       2.203   3.191   3.478  0.00  0.00    +0.150 A 
ENDROOT
BRANCH   6   7
ATOM      7  N   UNL     1       2.879   2.614   4.662  0.00  0.00    +0.058 N 
ATOM      8  O   UNL     1       3.441   1.425   4.584  0.00  0.00    -0.126 OA
ATOM      9  O   UNL     1       2.920   3.288   5.792  0.00  0.00    -0.126 OA
ENDBRANCH   6   7
BRANCH   4  10
ATOM     10  S   UNL     1       1.230   2.009  -0.234  0.00  0.00    +0.073 S 
ATOM     11  O   UNL     1       2.250   1.020  -0.201  0.00  0.00    -0.150 OA
ATOM     12  O   UNL     1       1.091   2.924  -1.313  0.00  0.00    -0.150 OA
BRANCH  10  13
ATOM     13  N   UNL     1      -0.212   1.206  -0.106  0.00  0.00    -0.213 N 
ATOM     14  H   UNL     1      -0.232   0.107  -0.111  0.00  0.00    +0.174 HD
BRANCH  13  15
ATOM     15  C   UNL     1      -1.407   1.927   0.008  0.00  0.00    +0.090 A 
ATOM     16  C   UNL     1      -1.563   3.127  -0.671  0.00  0.00    +0.028 A 
ATOM     17  C   UNL     1      -2.745   3.834  -0.560  0.00  0.00    +0.002 A 
ATOM     18  C   UNL     1      -3.770   3.354   0.234  0.00  0.00    +0.004 A 
ATOM     19  C   UNL     1      -3.619   2.162   0.918  0.00  0.00    +0.047 A 
ATOM     20  C   UNL     1      -2.440   1.445   0.809  0.00  0.00    +0.142 A 
BRANCH  20  21
ATOM     21  O   UNL     1      -2.290   0.273   1.482  0.00  0.00    -0.493 OA
ATOM     22  C   UNL     1      -3.391  -0.161   2.284  0.00  0.00    +0.277 C 
ENDBRANCH  20  21
ENDBRANCH  13  15
ENDBRANCH  10  13
ENDBRANCH   4  10
BRANCH   1  23
ATOM     23  N   UNL     1       1.865   5.258   4.663  0.00  0.00    -0.236 N 
ATOM     24  H   UNL     1       2.284   4.804   5.573  0.00  0.00    +0.174 HD
BRANCH  23  26
ATOM     25  C   UNL     1       1.656   7.236   5.776  0.00  0.00    +0.130 C 
ATOM     26  N   UNL     1       1.512   6.499   4.664  0.00  0.00    -0.190 NA
BRANCH  25  28
ATOM     27  C   UNL     1       1.434   9.325   6.946  0.00  0.00    +0.013 C 
ATOM     28  C   UNL     1       1.283   8.550   5.777  0.00  0.00    +0.022 C 
BRANCH  27  34
ATOM     29  C   UNL     1       1.197  11.489   8.156  0.00  0.00    +0.127 A 
ATOM     30  C   UNL     1       0.809  12.822   8.113  0.00  0.00    +0.046 A 
ATOM     31  C   UNL     1       0.288  13.352   6.951  0.00  0.00    +0.004 A 
ATOM     32  C   UNL     1       0.144  12.579   5.803  0.00  0.00    +0.001 A 
ATOM     33  C   UNL     1       0.511  11.270   5.783  0.00  0.00    +0.011 A 
ATOM     34  C   UNL     1       1.051  10.672   6.947  0.00  0.00    +0.017 A 
BRANCH  29  36
ATOM     35  C   UNL     1       1.811  11.821  10.423  0.00  0.00    +0.277 C 
ATOM     36  O   UNL     1       1.703  10.956   9.291  0.00  0.00    -0.495 OA
ENDBRANCH  29  36
ENDBRANCH  27  34
ENDBRANCH  25  28
ENDBRANCH  23  26
ENDBRANCH   1  23
TORSDOF 10
