REMARK  Name = ZINC33594316
REMARK  7 active torsions:
REMARK  status: ('A' for Active; 'I' for Inactive)
REMARK    1  A    between atoms: C_1  and  C_2
REMARK    2  A    between atoms: C_2  and  C_3
REMARK    3  A    between atoms: C_4  and  C_20
REMARK    4  A    between atoms: C_5  and  C_17
REMARK    5  A    between atoms: C_6  and  C_16
REMARK    6  A    between atoms: N_7  and  C_8
REMARK    7  A    between atoms: C_23  and  C_26
REMARK                            x       y       z     vdW  Elec       q    Type
REMARK                         _______ _______ _______ _____ _____    ______ ____
ROOT
ATOM      1  C   UNL     1      -2.137   1.033   1.202  0.00  0.00    +0.027 A 
ATOM      2  C   UNL     1      -3.204   1.543   0.532  0.00  0.00    +0.015 A 
ATOM      3  C   UNL     1      -4.369   0.743   0.952  0.00  0.00    +0.065 A 
ATOM      4  C   UNL     1      -3.893  -0.174   1.846  0.00  0.00    +0.029 A 
ATOM      5  N   UNL     1      -2.566   0.007   1.987  0.00  0.00    -0.344 N 
ATOM      6  C   UNL     1      -4.718  -1.217   2.557  0.00  0.00    +0.064 C 
ENDROOT
BRANCH   5   7
ATOM      7  C   UNL     1      -1.703  -0.789   2.863  0.00  0.00    +0.087 C 
ATOM      8  C   UNL     1      -1.647  -2.230   2.351  0.00  0.00    +0.025 C 
ATOM      9  C   UNL     1      -0.467  -2.956   3.000  0.00  0.00    +0.002 C 
ATOM     10  C   UNL     1       0.763  -2.045   2.987  0.00  0.00    +0.000 C 
ATOM     11  C   UNL     1       1.122  -1.654   4.422  0.00  0.00    +0.000 C 
ATOM     12  C   UNL     1       0.141  -0.591   4.921  0.00  0.00    +0.000 C 
ATOM     13  C   UNL     1      -1.195  -1.252   5.265  0.00  0.00    +0.002 C 
ATOM     14  C   UNL     1      -2.269  -0.775   4.285  0.00  0.00    +0.025 C 
ENDBRANCH   5   7
BRANCH   2  15
ATOM     15  C   UNL     1      -3.197   2.672  -0.426  0.00  0.00    -0.015 A 
ATOM     16  C   UNL     1      -2.877   3.958   0.013  0.00  0.00    +0.010 A 
ATOM     17  C   UNL     1      -2.866   5.003  -0.874  0.00  0.00    +0.019 A 
ATOM     18  C   UNL     1      -3.187   4.783  -2.217  0.00  0.00    +0.052 A 
ATOM     19  C   UNL     1      -3.512   3.495  -2.655  0.00  0.00    +0.019 A 
ATOM     20  C   UNL     1      -3.517   2.451  -1.767  0.00  0.00    +0.010 A 
BRANCH  18  21
ATOM     21  C   UNL     1      -3.182   5.875  -3.144  0.00  0.00    +0.099 C 
ATOM     22  N   UNL     1      -3.178   6.741  -3.879  0.00  0.00    -0.191 NA
ENDBRANCH  18  21
ENDBRANCH   2  15
BRANCH   3  23
ATOM     23  C   UNL     1      -5.761   0.903   0.504  0.00  0.00    +0.244 C 
ATOM     24  O   UNL     1      -6.512   1.645   1.107  0.00  0.00    -0.270 OA
ATOM     25  N   UNL     1      -6.203   0.226  -0.575  0.00  0.00    -0.325 N 
ATOM     26  H   UNL     1      -7.244   0.346  -0.910  0.00  0.00    +0.145 HD
ATOM     27  H   UNL     1      -5.524  -0.445  -1.120  0.00  0.00    +0.145 HD
ENDBRANCH   3  23
BRANCH   1  29
ATOM     28  C   UNL     1       0.005   0.764  -0.018  0.00  0.00    +0.010 C 
ATOM     29  C   UNL     1      -0.716   1.524   1.096  0.00  0.00    +0.050 C 
ENDBRANCH   1  29
TORSDOF 5
