REMARK  Name = ZINC59015509
REMARK  9 active torsions:
REMARK  status: ('A' for Active; 'I' for Inactive)
REMARK    1  A    between atoms: C_1  and  C_2
REMARK    2  A    between atoms: C_2  and  O_3
REMARK    3  A    between atoms: O_3  and  C_4
REMARK    4  A    between atoms: C_7  and  N_10
REMARK    5  A    between atoms: C_11  and  C_13
REMARK    6  A    between atoms: C_13  and  S_14
REMARK    7  A    between atoms: S_14  and  C_15
REMARK    8  A    between atoms: N_20  and  N_21
REMARK    9  A    between atoms: C_22  and  C_23
REMARK                            x       y       z     vdW  Elec       q    Type
REMARK                         _______ _______ _______ _____ _____    ______ ____
ROOT
ATOM      1  C   UNL     1      -5.185 -10.176   0.443  0.00  0.00    +0.211 A 
ATOM      2  N   UNL     1      -6.285 -10.929   0.549  0.00  0.00    -0.186 NA
ATOM      3  C   UNL     1      -5.947 -12.200   0.614  0.00  0.00    +0.232 A 
ATOM      4  N   UNL     1      -4.600 -12.277   0.548  0.00  0.00    -0.245 N 
ATOM      5  N   UNL     1      -4.132 -10.959   0.433  0.00  0.00    -0.144 NA
ATOM      6  N   UNL     1      -6.817 -13.268   0.729  0.00  0.00    -0.205 N 
ATOM      7  H   UNL     1      -6.472 -14.174   0.769  0.00  0.00    +0.177 HD
ATOM      8  H   UNL     1      -4.063 -13.085   0.572  0.00  0.00    +0.192 HD
ENDROOT
BRANCH   6   9
ATOM      9  N   UNL     1      -8.199 -13.043   0.786  0.00  0.00    -0.188 NA
ATOM     10  C   UNL     1      -9.017 -14.045   0.894  0.00  0.00    +0.138 C 
BRANCH  10  11
ATOM     11  C   UNL     1     -10.471 -13.808   0.954  0.00  0.00    -0.005 A 
ATOM     12  C   UNL     1     -10.972 -12.505   0.889  0.00  0.00    +0.010 A 
ATOM     13  C   UNL     1     -12.333 -12.290   0.946  0.00  0.00    +0.016 A 
ATOM     14  C   UNL     1     -13.202 -13.362   1.066  0.00  0.00    +0.018 A 
ATOM     15  C   UNL     1     -12.712 -14.655   1.131  0.00  0.00    +0.016 A 
ATOM     16  C   UNL     1     -11.353 -14.885   1.070  0.00  0.00    +0.010 A 
ATOM     17 BR   UNL     1     -15.067 -13.057   1.143  0.00  0.00    -0.050 Br
ENDBRANCH  10  11
ENDBRANCH   6   9
BRANCH   1  18
ATOM     18  S   UNL     1      -5.155  -8.418   0.327  0.00  0.00    -0.075 S 
BRANCH  18  19
ATOM     19  C   UNL     1      -3.391  -8.017   0.200  0.00  0.00    +0.173 C 
BRANCH  19  21
ATOM     20  N   UNL     1      -1.989  -5.990  -0.012  0.00  0.00    -0.285 N 
ATOM     21  C   UNL     1      -3.222  -6.523   0.093  0.00  0.00    +0.227 C 
ATOM     22  O   UNL     1      -4.196  -5.800   0.102  0.00  0.00    -0.275 OA
ATOM     23  H   UNL     1      -1.215  -6.569  -0.096  0.00  0.00    +0.155 HD
BRANCH  20  27
ATOM     24  C   UNL     1      -1.496  -1.849   0.025  0.00  0.00    +0.121 A 
ATOM     25  C   UNL     1      -2.510  -2.434   0.771  0.00  0.00    +0.047 A 
ATOM     26  C   UNL     1      -2.673  -3.805   0.759  0.00  0.00    +0.027 A 
ATOM     27  C   UNL     1      -1.823  -4.598   0.001  0.00  0.00    +0.034 A 
ATOM     28  C   UNL     1      -0.809  -4.013  -0.746  0.00  0.00    +0.027 A 
ATOM     29  C   UNL     1      -0.650  -2.641  -0.737  0.00  0.00    +0.047 A 
BRANCH  24  30
ATOM     30  O   UNL     1      -1.336  -0.499   0.037  0.00  0.00    -0.492 OA
BRANCH  30  32
ATOM     31  C   UNL     1      -1.908   1.744   0.732  0.00  0.00    +0.048 C 
ATOM     32  C   UNL     1      -2.242   0.255   0.845  0.00  0.00    +0.225 C 
ENDBRANCH  30  32
ENDBRANCH  24  30
ENDBRANCH  20  27
ENDBRANCH  19  21
ENDBRANCH  18  19
ENDBRANCH   1  18
TORSDOF 8
