REMARK  Name = ZINC33821685
REMARK  6 active torsions:
REMARK  status: ('A' for Active; 'I' for Inactive)
REMARK    1  A    between atoms: N_7  and  C_8
REMARK    2  A    between atoms: C_8  and  C_9
REMARK    3  A    between atoms: C_9  and  O_10
REMARK    4  A    between atoms: O_10  and  C_11
REMARK    5  A    between atoms: C_28  and  C_31
REMARK    6  A    between atoms: C_35  and  C_37
REMARK                            x       y       z     vdW  Elec       q    Type
REMARK                         _______ _______ _______ _____ _____    ______ ____
ROOT
ATOM      1  C   UNL     1       1.137   7.366  -1.396  0.00  0.00    +0.121 A 
ATOM      2  C   UNL     1       0.842   8.269  -0.385  0.00  0.00    +0.047 A 
ATOM      3  C   UNL     1       1.170   9.604  -0.521  0.00  0.00    +0.027 A 
ATOM      4  C   UNL     1       1.792  10.056  -1.674  0.00  0.00    +0.031 A 
ATOM      5  C   UNL     1       2.073   9.132  -2.700  0.00  0.00    -0.019 A 
ATOM      6  C   UNL     1       1.753   7.810  -2.560  0.00  0.00    +0.051 A 
ATOM      7  C   UNL     1       2.710   9.743  -3.889  0.00  0.00    +0.029 C 
ATOM      8  C   UNL     1       2.736   9.019  -5.242  0.00  0.00    -0.003 C 
ATOM      9  C   UNL     1       4.025   9.687  -5.874  0.00  0.00    +0.004 C 
ATOM     10  C   UNL     1       3.610  11.174  -5.988  0.00  0.00    +0.004 C 
ATOM     11  C   UNL     1       2.092  11.236  -5.665  0.00  0.00    -0.005 C 
ATOM     12  C   UNL     1       1.669   9.771  -6.104  0.00  0.00    +0.008 C 
ATOM     13  C   UNL     1       1.879  11.027  -4.170  0.00  0.00    +0.024 C 
ATOM     14  C   UNL     1       2.258  12.053  -3.148  0.00  0.00    +0.105 C 
ATOM     15  N   UNL     1       2.150  11.402  -1.822  0.00  0.00    -0.336 N 
ATOM     16  H   UNL     1       2.354  11.978  -0.907  0.00  0.00    +0.147 HD
ENDROOT
BRANCH  14  17
ATOM     17  C   UNL     1       3.674  12.513  -3.381  0.00  0.00    -0.026 A 
ATOM     18  C   UNL     1       3.916  13.647  -4.136  0.00  0.00    +0.005 A 
ATOM     19  C   UNL     1       5.213  14.076  -4.355  0.00  0.00    +0.001 A 
ATOM     20  C   UNL     1       6.274  13.375  -3.821  0.00  0.00    +0.015 A 
ATOM     21  C   UNL     1       6.037  12.230  -3.058  0.00  0.00    +0.063 A 
ATOM     22  C   UNL     1       4.726  11.806  -2.837  0.00  0.00    +0.020 A 
BRANCH  21  23
ATOM     23  C   UNL     1       7.169  11.474  -2.484  0.00  0.00    +0.387 C 
ATOM     24  O   UNL     1       6.960  10.478  -1.821  0.00  0.00    -0.241 OA
ATOM     25  O   UNL     1       8.433  11.889  -2.695  0.00  0.00    -0.241 OA
ENDBRANCH  21  23
ENDBRANCH  14  17
BRANCH   1  26
ATOM     26  O   UNL     1       0.821   6.051  -1.250  0.00  0.00    -0.490 OA
BRANCH  26  27
ATOM     27  C   UNL     1       0.190   5.668  -0.026  0.00  0.00    +0.247 C 
BRANCH  27  28
ATOM     28  C   UNL     1      -0.088   4.164  -0.045  0.00  0.00    +0.144 C 
BRANCH  28  35
ATOM     29  C   UNL     1      -0.008  -0.031  -0.109  0.00  0.00    +0.005 A 
ATOM     30  C   UNL     1       1.221  -0.679  -0.134  0.00  0.00    +0.018 A 
ATOM     31  C   UNL     1       2.380   0.070  -0.138  0.00  0.00    +0.084 A 
ATOM     32  N   UNL     1       2.334   1.389  -0.117  0.00  0.00    -0.350 N 
ATOM     33  C   UNL     1       1.183   2.043  -0.093  0.00  0.00    +0.096 A 
ATOM     34  C   UNL     1      -0.024   1.352  -0.088  0.00  0.00    +0.041 A 
ATOM     35  N   UNL     1       1.182   3.433  -0.072  0.00  0.00    -0.327 N 
ATOM     36  H   UNL     1       2.134   3.985  -0.076  0.00  0.00    +0.148 HD
ATOM     37  H   UNL     1       3.267   1.972  -0.120  0.00  0.00    +0.166 HD
ENDBRANCH  28  35
ENDBRANCH  27  28
ENDBRANCH  26  27
ENDBRANCH   1  26
TORSDOF 6
