REMARK  Name = ZINC60109054
REMARK  10 active torsions:
REMARK  status: ('A' for Active; 'I' for Inactive)
REMARK    1  A    between atoms: C_1  and  C_2
REMARK    2  A    between atoms: C_2  and  C_4
REMARK    3  A    between atoms: C_2  and  O_35
REMARK    4  A    between atoms: N_6  and  C_7
REMARK    5  A    between atoms: C_12  and  C_13
REMARK    6  A    between atoms: C_13  and  C_14
REMARK    7  A    between atoms: C_14  and  C_15
REMARK    8  A    between atoms: C_14  and  C_25
REMARK    9  A    between atoms: O_35  and  C_36
REMARK   10  A    between atoms: C_36  and  C_37
REMARK                            x       y       z     vdW  Elec       q    Type
REMARK                         _______ _______ _______ _____ _____    ______ ____
ROOT
ATOM      1  C   UNL     1      -2.117  -0.926   4.789  0.00  0.00    +0.057 C 
ENDROOT
BRANCH   1   2
ATOM      2  C   UNL     1      -2.106  -2.010   5.835  0.00  0.00    -0.015 A 
ATOM      3  C   UNL     1      -2.205  -1.840   7.163  0.00  0.00    +0.087 A 
ATOM      4  N   UNL     1      -2.158  -3.054   7.793  0.00  0.00    -0.360 N 
ATOM      5  H   UNL     1      -2.211  -3.186   8.753  0.00  0.00    +0.165 HD
ATOM      6  C   UNL     1      -2.023  -4.060   6.863  0.00  0.00    +0.047 A 
ATOM      7  C   UNL     1      -1.991  -3.451   5.595  0.00  0.00    +0.003 A 
ATOM      8  C   UNL     1      -1.866  -4.237   4.448  0.00  0.00    +0.010 A 
ATOM      9  C   UNL     1      -1.779  -5.596   4.563  0.00  0.00    +0.001 A 
ATOM     10  C   UNL     1      -1.814  -6.202   5.811  0.00  0.00    +0.002 A 
ATOM     11  C   UNL     1      -1.928  -5.444   6.957  0.00  0.00    +0.026 A 
ENDBRANCH   1   2
BRANCH   1  12
ATOM     12  C   UNL     1      -3.411  -0.158   4.875  0.00  0.00    -0.015 A 
ATOM     13  C   UNL     1      -3.862   0.530   5.935  0.00  0.00    +0.087 A 
ATOM     14  N   UNL     1      -5.073   1.096   5.643  0.00  0.00    -0.360 N 
ATOM     15  H   UNL     1      -5.596   1.640   6.253  0.00  0.00    +0.165 HD
ATOM     16  C   UNL     1      -5.440   0.778   4.354  0.00  0.00    +0.047 A 
ATOM     17  C   UNL     1      -4.411  -0.016   3.814  0.00  0.00    +0.003 A 
ATOM     18  C   UNL     1      -4.509  -0.486   2.503  0.00  0.00    +0.010 A 
ATOM     19  C   UNL     1      -5.604  -0.168   1.749  0.00  0.00    +0.001 A 
ATOM     20  C   UNL     1      -6.619   0.618   2.276  0.00  0.00    +0.002 A 
ATOM     21  C   UNL     1      -6.547   1.085   3.570  0.00  0.00    +0.026 A 
ENDBRANCH   1  12
BRANCH   1  22
ATOM     22  C   UNL     1      -0.943   0.026   5.029  0.00  0.00    +0.050 C 
BRANCH  22  28
ATOM     23  C   UNL     1       0.888  -0.838   3.546  0.00  0.00    +0.037 A 
ATOM     24  C   UNL     1       2.086  -1.515   3.361  0.00  0.00    +0.023 A 
ATOM     25  C   UNL     1       2.740  -2.068   4.444  0.00  0.00    +0.002 A 
ATOM     26  C   UNL     1       2.202  -1.949   5.713  0.00  0.00    +0.000 A 
ATOM     27  C   UNL     1       1.009  -1.276   5.901  0.00  0.00    +0.005 A 
ATOM     28  C   UNL     1       0.354  -0.714   4.822  0.00  0.00    -0.025 A 
BRANCH  23  31
ATOM     29  C   UNL     1       0.914   0.062   1.344  0.00  0.00    +0.246 C 
ATOM     30  O   UNL     1       2.124  -0.027   1.334  0.00  0.00    -0.273 OA
ATOM     31  N   UNL     1       0.223  -0.277   2.451  0.00  0.00    -0.283 N 
ATOM     32  H   UNL     1      -0.735  -0.131   2.487  0.00  0.00    +0.155 HD
BRANCH  29  34
ATOM     33  C   UNL     1      -0.501   1.882   0.431  0.00  0.00    +0.048 C 
ATOM     34  C   UNL     1       0.184   0.550   0.119  0.00  0.00    +0.201 C 
BRANCH  34  35
ATOM     35  O   UNL     1       1.115   0.731  -0.949  0.00  0.00    -0.364 OA
BRANCH  35  36
ATOM     36  C   UNL     1       0.557   0.525  -2.248  0.00  0.00    +0.187 C 
BRANCH  36  37
ATOM     37  C   UNL     1       1.621   0.742  -3.293  0.00  0.00    -0.007 C 
ATOM     38  C   UNL     1       1.746  -0.104  -4.285  0.00  0.00    +0.006 C 
ENDBRANCH  36  37
ENDBRANCH  35  36
ENDBRANCH  34  35
ENDBRANCH  29  34
ENDBRANCH  23  31
ENDBRANCH  22  28
ENDBRANCH   1  22
TORSDOF 9
