REMARK  Name = ZINC25062034
REMARK  3 active torsions:
REMARK  status: ('A' for Active; 'I' for Inactive)
REMARK    1  A    between atoms: C_4  and  C_7
REMARK    2  A    between atoms: C_18  and  C_20
REMARK    3  A    between atoms: C_20  and  N_21
REMARK                            x       y       z     vdW  Elec       q    Type
REMARK                         _______ _______ _______ _____ _____    ______ ____
ROOT
ATOM      1  C   UNL     1       4.612   0.832  -3.092  0.00  0.00    +0.122 C 
ATOM      2  C   UNL     1       4.626  -0.652  -2.695  0.00  0.00    +0.102 C 
ATOM      3  S   UNL     1       6.136  -0.949  -1.726  0.00  0.00    -0.121 S 
ATOM      4  C   UNL     1       6.161   0.403  -0.592  0.00  0.00    +0.029 A 
ATOM      5  C   UNL     1       6.998   0.339   0.516  0.00  0.00    +0.016 A 
ATOM      6  C   UNL     1       7.041   1.385   1.416  0.00  0.00    +0.001 A 
ATOM      7  C   UNL     1       6.249   2.501   1.214  0.00  0.00    +0.002 A 
ATOM      8  C   UNL     1       5.413   2.571   0.118  0.00  0.00    +0.024 A 
ATOM      9  C   UNL     1       5.361   1.525  -0.797  0.00  0.00    +0.050 A 
ATOM     10  N   UNL     1       4.489   1.640  -1.882  0.00  0.00    -0.261 N 
ATOM     11  C   UNL     1       3.491   2.542  -1.811  0.00  0.00    +0.238 C 
ATOM     12  O   UNL     1       2.824   2.788  -2.794  0.00  0.00    -0.273 OA
ENDROOT
BRANCH   1  16
ATOM     13  C   UNL     1       1.292   1.595  -5.669  0.00  0.00    +0.000 A 
ATOM     14  C   UNL     1       2.553   2.045  -6.014  0.00  0.00    +0.000 A 
ATOM     15  C   UNL     1       3.627   1.798  -5.181  0.00  0.00    +0.005 A 
ATOM     16  C   UNL     1       3.441   1.101  -4.001  0.00  0.00    -0.026 A 
ATOM     17  C   UNL     1       2.181   0.647  -3.658  0.00  0.00    +0.005 A 
ATOM     18  C   UNL     1       1.106   0.898  -4.490  0.00  0.00    +0.000 A 
ENDBRANCH   1  16
BRANCH  11  19
ATOM     19  C   UNL     1       3.203   3.247  -0.511  0.00  0.00    +0.214 C 
BRANCH  19  20
ATOM     20  N   UNL     1       1.769   3.535  -0.418  0.00  0.00    -0.215 N 
ATOM     21  C   UNL     1       1.193   4.669  -0.867  0.00  0.00    +0.252 C 
ATOM     22  O   UNL     1       1.741   5.608  -1.403  0.00  0.00    -0.272 OA
ATOM     23  C   UNL     1      -0.279   4.522  -0.560  0.00  0.00    +0.144 C 
ATOM     24  C   UNL     1      -1.096   4.551  -1.848  0.00  0.00    +0.081 C 
ATOM     25  C   UNL     1      -1.166   6.002  -2.342  0.00  0.00    +0.232 C 
ATOM     26  O   UNL     1      -1.870   6.777  -1.371  0.00  0.00    -0.492 OA
ATOM     27  C   UNL     1      -1.492   6.671  -0.071  0.00  0.00    +0.126 A 
ATOM     28  C   UNL     1      -0.729   5.606   0.379  0.00  0.00    +0.027 A 
ATOM     29  C   UNL     1      -0.371   5.532   1.714  0.00  0.00    +0.010 A 
ATOM     30  C   UNL     1      -0.768   6.517   2.599  0.00  0.00    +0.001 A 
ATOM     31  C   UNL     1      -1.526   7.583   2.151  0.00  0.00    +0.004 A 
ATOM     32  C   UNL     1      -1.887   7.662   0.821  0.00  0.00    +0.046 A 
ATOM     33  N   UNL     1      -0.381   3.204   0.080  0.00  0.00    -0.281 N 
ATOM     34  C   UNL     1       0.869   2.705   0.123  0.00  0.00    +0.310 C 
ATOM     35  O   UNL     1       1.147   1.621   0.596  0.00  0.00    -0.252 OA
ATOM     36  H   UNL     1      -1.361   2.827   0.409  0.00  0.00    +0.152 HD
ENDBRANCH  19  20
ENDBRANCH  11  19
TORSDOF 3
