REMARK  Name = ZINC04089234
REMARK  6 active torsions:
REMARK  status: ('A' for Active; 'I' for Inactive)
REMARK    1  A    between atoms: C_1  and  C_2
REMARK    2  A    between atoms: C_9  and  C_30
REMARK    3  A    between atoms: C_10  and  C_17
REMARK    4  A    between atoms: C_15  and  C_16
REMARK    5  A    between atoms: C_17  and  C_18
REMARK    6  A    between atoms: N_20  and  C_21
REMARK                            x       y       z     vdW  Elec       q    Type
REMARK                         _______ _______ _______ _____ _____    ______ ____
ROOT
ATOM      1  C   UNL     1       0.539   7.670   5.076  0.00  0.00    +0.047 C 
ATOM      2  C   UNL     1      -0.508   6.615   5.318  0.00  0.00    -0.005 A 
ATOM      3  C   UNL     1      -1.414   6.592   6.304  0.00  0.00    +0.199 A 
ATOM      4  O   UNL     1      -2.185   5.495   6.204  0.00  0.00    -0.462 OA
ATOM      5  C   UNL     1      -1.820   4.743   5.145  0.00  0.00    +0.141 A 
ATOM      6  C   UNL     1      -0.741   5.402   4.521  0.00  0.00    +0.024 A 
ATOM      7  C   UNL     1      -0.145   4.861   3.391  0.00  0.00    +0.023 A 
ATOM      8  C   UNL     1      -0.626   3.657   2.875  0.00  0.00    +0.022 A 
ATOM      9  C   UNL     1      -0.016   3.054   1.686  0.00  0.00    -0.029 A 
ATOM     10  C   UNL     1      -0.527   1.883   1.227  0.00  0.00    +0.049 A 
ATOM     11  C   UNL     1      -1.609   1.278   1.900  0.00  0.00    +0.341 A 
ATOM     12  O   UNL     1      -2.055   0.226   1.480  0.00  0.00    -0.245 OA
ATOM     13  O   UNL     1      -2.161   1.831   2.991  0.00  0.00    -0.422 OA
ATOM     14  C   UNL     1      -1.705   2.998   3.499  0.00  0.00    +0.146 A 
ATOM     15  C   UNL     1      -2.292   3.546   4.627  0.00  0.00    +0.035 A 
ATOM     16  C   UNL     1      -3.446   2.841   5.293  0.00  0.00    +0.051 C 
ATOM     17  C   UNL     1       1.143   3.719   0.989  0.00  0.00    +0.045 C 
ENDROOT
BRANCH  10  18
ATOM     18  C   UNL     1       0.064   1.229   0.005  0.00  0.00    +0.138 C 
BRANCH  18  19
ATOM     19  C   UNL     1      -0.650   1.724  -1.226  0.00  0.00    +0.222 C 
ATOM     20  O   UNL     1      -1.551   2.530  -1.121  0.00  0.00    -0.275 OA
ATOM     21  N   UNL     1      -0.288   1.272  -2.443  0.00  0.00    -0.285 N 
ATOM     22  H   UNL     1       0.480   0.688  -2.534  0.00  0.00    +0.155 HD
BRANCH  21  23
ATOM     23  C   UNL     1      -1.022   1.647  -3.576  0.00  0.00    +0.037 A 
ATOM     24  C   UNL     1      -2.393   1.847  -3.481  0.00  0.00    +0.027 A 
ATOM     25  C   UNL     1      -3.118   2.220  -4.596  0.00  0.00    +0.051 A 
ATOM     26  C   UNL     1      -2.481   2.387  -5.815  0.00  0.00    +0.166 A 
ATOM     27  C   UNL     1      -1.107   2.182  -5.915  0.00  0.00    +0.168 A 
ATOM     28  C   UNL     1      -0.380   1.812  -4.795  0.00  0.00    +0.072 A 
ATOM     29  O   UNL     1      -0.725   2.407  -7.207  0.00  0.00    -0.453 OA
ATOM     30  C   UNL     1      -1.937   2.352  -7.981  0.00  0.00    +0.466 C 
ATOM     31  O   UNL     1      -2.959   2.741  -7.045  0.00  0.00    -0.453 OA
ENDBRANCH  21  23
ENDBRANCH  18  19
ENDBRANCH  10  18
TORSDOF 3
