REMARK  Name = ZINC40172570
REMARK  10 active torsions:
REMARK  status: ('A' for Active; 'I' for Inactive)
REMARK    1  A    between atoms: C_1  and  C_2
REMARK    2  A    between atoms: C_2  and  C_4
REMARK    3  A    between atoms: C_2  and  N_22
REMARK    4  A    between atoms: N_6  and  C_7
REMARK    5  A    between atoms: C_10  and  S_13
REMARK    6  A    between atoms: S_13  and  N_16
REMARK    7  A    between atoms: C_26  and  S_27
REMARK    8  A    between atoms: S_27  and  C_28
REMARK    9  A    between atoms: C_28  and  C_29
REMARK   10  A    between atoms: C_29  and  C_30
REMARK                            x       y       z     vdW  Elec       q    Type
REMARK                         _______ _______ _______ _____ _____    ______ ____
ROOT
ATOM      1  C   UNL     1       0.097   1.636   0.035  0.00  0.00    +0.041 C 
ATOM      2  C   UNL     1      -0.052   0.119  -0.092  0.00  0.00    +0.175 C 
ENDROOT
BRANCH   2   3
ATOM      3  N   UNL     1      -1.472  -0.226  -0.190  0.00  0.00    -0.279 N 
ATOM      4  C   UNL     1      -2.334   0.191  -1.165  0.00  0.00    +0.216 A 
ATOM      5  N   UNL     1      -3.512  -0.324  -0.911  0.00  0.00    -0.113 NA
ATOM      6  N   UNL     1      -3.407  -1.093   0.255  0.00  0.00    -0.121 NA
ATOM      7  C   UNL     1      -2.167  -1.026   0.674  0.00  0.00    +0.194 A 
ATOM      8  N   UNL     1      -2.018   1.017  -2.235  0.00  0.00    -0.328 N 
ATOM      9  H   UNL     1      -1.113   1.351  -2.339  0.00  0.00    +0.145 HD
ATOM     10  H   UNL     1      -2.702   1.260  -2.879  0.00  0.00    +0.145 HD
BRANCH   7  11
ATOM     11  S   UNL     1      -1.510  -1.823   2.101  0.00  0.00    -0.086 S 
BRANCH  11  12
ATOM     12  C   UNL     1      -2.928  -2.716   2.796  0.00  0.00    +0.082 C 
BRANCH  12  13
ATOM     13  C   UNL     1      -2.492  -3.463   4.058  0.00  0.00    +0.046 C 
BRANCH  13  14
ATOM     14  C   UNL     1      -3.670  -4.205   4.635  0.00  0.00    -0.047 A 
ATOM     15  C   UNL     1      -4.492  -3.586   5.559  0.00  0.00    +0.003 A 
ATOM     16  C   UNL     1      -5.572  -4.266   6.088  0.00  0.00    +0.000 A 
ATOM     17  C   UNL     1      -5.832  -5.565   5.694  0.00  0.00    +0.000 A 
ATOM     18  C   UNL     1      -5.011  -6.184   4.770  0.00  0.00    +0.000 A 
ATOM     19  C   UNL     1      -3.932  -5.502   4.237  0.00  0.00    +0.003 A 
ENDBRANCH  13  14
ENDBRANCH  12  13
ENDBRANCH  11  12
ENDBRANCH   7  11
ENDBRANCH   2   3
BRANCH   2  20
ATOM     20  C   UNL     1       0.666  -0.355  -1.330  0.00  0.00    +0.240 C 
ATOM     21  O   UNL     1       0.052  -0.924  -2.207  0.00  0.00    -0.273 OA
ATOM     22  N   UNL     1       1.991  -0.146  -1.462  0.00  0.00    -0.284 N 
ATOM     23  H   UNL     1       2.468   0.376  -0.797  0.00  0.00    +0.155 HD
BRANCH  22  24
ATOM     24  C   UNL     1       2.678  -0.681  -2.557  0.00  0.00    +0.034 A 
ATOM     25  C   UNL     1       3.758   0.002  -3.102  0.00  0.00    +0.025 A 
ATOM     26  C   UNL     1       4.434  -0.529  -4.183  0.00  0.00    +0.030 A 
ATOM     27  C   UNL     1       4.037  -1.738  -4.723  0.00  0.00    +0.106 A 
ATOM     28  C   UNL     1       2.962  -2.420  -4.183  0.00  0.00    +0.030 A 
ATOM     29  C   UNL     1       2.285  -1.898  -3.098  0.00  0.00    +0.025 A 
BRANCH  27  30
ATOM     30  S   UNL     1       4.902  -2.412  -6.102  0.00  0.00    +0.061 S 
ATOM     31  O   UNL     1       3.997  -3.285  -6.763  0.00  0.00    -0.153 OA
ATOM     32  O   UNL     1       5.526  -1.320  -6.763  0.00  0.00    -0.153 OA
BRANCH  30  33
ATOM     33  N   UNL     1       6.120  -3.360  -5.501  0.00  0.00    -0.177 NA
ATOM     34  C   UNL     1       7.445  -2.789  -5.223  0.00  0.00    +0.109 C 
ATOM     35  C   UNL     1       7.828  -3.112  -3.775  0.00  0.00    +0.017 C 
ATOM     36  C   UNL     1       7.735  -4.623  -3.552  0.00  0.00    +0.003 C 
ATOM     37  C   UNL     1       6.295  -5.088  -3.787  0.00  0.00    +0.017 C 
ATOM     38  C   UNL     1       5.894  -4.786  -5.229  0.00  0.00    +0.109 C 
ENDBRANCH  30  33
ENDBRANCH  27  30
ENDBRANCH  22  24
ENDBRANCH   2  20
TORSDOF 9
