REMARK  Name = ZINC67435904
REMARK  7 active torsions:
REMARK  status: ('A' for Active; 'I' for Inactive)
REMARK    1  A    between atoms: C_4  and  C_7
REMARK    2  A    between atoms: C_7  and  N_8
REMARK    3  A    between atoms: C_12  and  C_15
REMARK    4  A    between atoms: C_15  and  N_16
REMARK    5  A    between atoms: N_16  and  S_17
REMARK    6  A    between atoms: S_17  and  C_20
REMARK    7  A    between atoms: C_23  and  C_26
REMARK                            x       y       z     vdW  Elec       q    Type
REMARK                         _______ _______ _______ _____ _____    ______ ____
ROOT
ATOM      1  N   UNL     1       7.395  -3.360   4.107  0.00  0.00    -0.190 NA
ATOM      2  H   UNL     1       6.978  -2.916   4.862  0.00  0.00    +0.148 HD
ENDROOT
BRANCH   1   3
ATOM      3  S   UNL     1       8.487  -4.579   4.363  0.00  0.00    +0.058 S 
ATOM      4  O   UNL     1       8.616  -4.719   5.771  0.00  0.00    -0.153 OA
ATOM      5  O   UNL     1       8.097  -5.656   3.523  0.00  0.00    -0.153 OA
BRANCH   3   6
ATOM      6  C   UNL     1      10.046  -4.015   3.768  0.00  0.00    +0.105 A 
ATOM      7  C   UNL     1      10.403  -4.242   2.450  0.00  0.00    +0.029 A 
ATOM      8  C   UNL     1      11.623  -3.803   1.978  0.00  0.00    +0.015 A 
ATOM      9  C   UNL     1      12.497  -3.129   2.832  0.00  0.00    +0.037 A 
ATOM     10  C   UNL     1      12.131  -2.904   4.160  0.00  0.00    +0.015 A 
ATOM     11  C   UNL     1      10.906  -3.343   4.618  0.00  0.00    +0.029 A 
BRANCH   9  12
ATOM     12  C   UNL     1      13.806  -2.657   2.332  0.00  0.00    +0.242 C 
ATOM     13  O   UNL     1      14.123  -2.855   1.175  0.00  0.00    -0.270 OA
ATOM     14  N   UNL     1      14.649  -2.007   3.159  0.00  0.00    -0.325 N 
ATOM     15  H   UNL     1      14.396  -1.849   4.083  0.00  0.00    +0.145 HD
ATOM     16  H   UNL     1      15.507  -1.697   2.832  0.00  0.00    +0.145 HD
ENDBRANCH   9  12
ENDBRANCH   3   6
ENDBRANCH   1   3
BRANCH   1  17
ATOM     17  C   UNL     1       7.060  -2.952   2.740  0.00  0.00    +0.107 C 
BRANCH  17  22
ATOM     18  N   UNL     1       4.153  -0.953   1.342  0.00  0.00    +0.383 N 
ATOM     19  C   UNL     1       4.424   0.329   2.003  0.00  0.00    -0.078 C 
ATOM     20  C   UNL     1       4.807   0.083   3.464  0.00  0.00    -0.018 C 
ATOM     21  C   UNL     1       6.060  -0.796   3.517  0.00  0.00    +0.001 C 
ATOM     22  C   UNL     1       5.790  -2.099   2.760  0.00  0.00    -0.012 C 
ATOM     23  C   UNL     1       5.371  -1.772   1.325  0.00  0.00    -0.074 C 
ATOM     24  H   UNL     1       3.427  -1.441   1.844  0.00  0.00    -0.081 HD
BRANCH  18  25
ATOM     25  C   UNL     1       3.711  -0.707  -0.038  0.00  0.00    -0.043 C 
BRANCH  25  29
ATOM     26  C   UNL     1      -0.017   1.378   0.010  0.00  0.00    +0.000 A 
ATOM     27  C   UNL     1       1.171   2.086   0.002  0.00  0.00    +0.000 A 
ATOM     28  C   UNL     1       2.377   1.411  -0.013  0.00  0.00    +0.002 A 
ATOM     29  C   UNL     1       2.396   0.029  -0.020  0.00  0.00    -0.064 A 
ATOM     30  C   UNL     1       1.208  -0.679  -0.012  0.00  0.00    +0.002 A 
ATOM     31  C   UNL     1       0.002  -0.004   0.002  0.00  0.00    +0.000 A 
ENDBRANCH  25  29
ENDBRANCH  18  25
ENDBRANCH  17  22
ENDBRANCH   1  17
TORSDOF 7
