REMARK  Name = ZINC09064231
REMARK  6 active torsions:
REMARK  status: ('A' for Active; 'I' for Inactive)
REMARK    1  A    between atoms: C_1  and  C_2
REMARK    2  A    between atoms: N_4  and  C_5
REMARK    3  A    between atoms: C_5  and  N_7
REMARK    4  A    between atoms: N_7  and  C_8
REMARK    5  A    between atoms: C_11  and  C_15
REMARK    6  A    between atoms: C_12  and  O_14
REMARK                            x       y       z     vdW  Elec       q    Type
REMARK                         _______ _______ _______ _____ _____    ______ ____
ROOT
ATOM      1  C   UNL     1      -2.439   1.731   0.078  0.00  0.00    +0.036 A 
ATOM      2  C   UNL     1      -2.505   0.342   0.152  0.00  0.00    +0.024 A 
ATOM      3  C   UNL     1      -3.726  -0.291   0.209  0.00  0.00    +0.018 A 
ATOM      4  C   UNL     1      -4.904   0.461   0.193  0.00  0.00    +0.078 A 
ATOM      5  C   UNL     1      -4.836   1.859   0.118  0.00  0.00    +0.131 A 
ATOM      6  C   UNL     1      -3.604   2.486   0.066  0.00  0.00    +0.069 A 
ENDROOT
BRANCH   4   7
ATOM      7  C   UNL     1      -6.213  -0.215   0.254  0.00  0.00    +0.232 A 
ATOM      8  N   UNL     1      -6.388  -1.511   0.326  0.00  0.00    -0.209 NA
ATOM      9  C   UNL     1      -7.720  -1.771   0.367  0.00  0.00    +0.111 A 
ATOM     10  C   UNL     1      -8.472  -2.946   0.444  0.00  0.00    +0.051 A 
ATOM     11  C   UNL     1      -9.848  -2.877   0.468  0.00  0.00    +0.043 A 
ATOM     12  C   UNL     1     -10.490  -1.648   0.417  0.00  0.00    +0.024 A 
ATOM     13  C   UNL     1      -9.760  -0.479   0.340  0.00  0.00    +0.050 A 
ATOM     14  C   UNL     1      -8.375  -0.530   0.315  0.00  0.00    +0.156 A 
ATOM     15  O   UNL     1      -7.406   0.411   0.250  0.00  0.00    -0.435 OA
ATOM     16 CL   UNL     1     -10.783  -4.336   0.565  0.00  0.00    -0.083 Cl
ENDBRANCH   4   7
BRANCH   1  17
ATOM     17  N   UNL     1      -1.197   2.366   0.021  0.00  0.00    -0.296 N 
ATOM     18  H   UNL     1      -0.470   2.060   0.585  0.00  0.00    +0.154 HD
BRANCH  17  19
ATOM     19  C   UNL     1      -1.009   3.403  -0.819  0.00  0.00    +0.141 C 
ATOM     20  S   UNL     1      -2.245   3.852  -1.915  0.00  0.00    -0.018 S 
BRANCH  19  24
ATOM     21  C   UNL     1       1.631   5.901  -1.595  0.00  0.00    +0.109 C 
ATOM     22  C   UNL     1       0.336   5.132  -1.626  0.00  0.00    +0.215 C 
ATOM     23  O   UNL     1      -0.539   5.450  -2.403  0.00  0.00    -0.276 OA
ATOM     24  N   UNL     1       0.150   4.091  -0.791  0.00  0.00    -0.268 N 
ATOM     25  H   UNL     1       0.850   3.837  -0.170  0.00  0.00    +0.156 HD
ENDBRANCH  19  24
ENDBRANCH  17  19
ENDBRANCH   1  17
BRANCH   5  26
ATOM     26  O   UNL     1      -5.976   2.596   0.102  0.00  0.00    -0.506 OA
ATOM     27  H   UNL     1      -6.289   2.856   0.980  0.00  0.00    +0.292 HD
ENDBRANCH   5  26
TORSDOF 5
