REMARK  Name = ZINC37022611
REMARK  2 active torsions:
REMARK  status: ('A' for Active; 'I' for Inactive)
REMARK    1  A    between atoms: C_8  and  S_10
REMARK    2  A    between atoms: S_10  and  C_11
REMARK                            x       y       z     vdW  Elec       q    Type
REMARK                         _______ _______ _______ _____ _____    ______ ____
ROOT
ATOM      1  C   UNL     1      -0.017   1.366   0.010  0.00  0.00    +0.002 A 
ATOM      2  C   UNL     1       1.156   2.107   0.002  0.00  0.00    +0.001 A 
ATOM      3  C   UNL     1       2.373   1.449  -0.013  0.00  0.00    +0.017 A 
ATOM      4  C   UNL     1       2.401   0.077  -0.021  0.00  0.00    +0.040 A 
ATOM      5  C   UNL     1       1.227  -0.710  -0.013  0.00  0.00    +0.079 A 
ATOM      6  C   UNL     1       0.002  -0.004   0.002  0.00  0.00    +0.029 A 
ATOM      7  N   UNL     1       1.419  -2.047  -0.023  0.00  0.00    -0.232 NA
ATOM      8  C   UNL     1       2.617  -2.588  -0.037  0.00  0.00    +0.142 A 
ATOM      9  S   UNL     1       3.683  -1.153  -0.039  0.00  0.00    -0.061 S 
ENDROOT
BRANCH   8  10
ATOM     10  S   UNL     1       3.059  -4.293  -0.050  0.00  0.00    -0.042 S 
BRANCH  10  11
ATOM     11  C   UNL     1       4.821  -4.277  -0.067  0.00  0.00    +0.123 A 
ATOM     12  C   UNL     1       5.530  -5.475  -0.086  0.00  0.00    +0.146 A 
ATOM     13  N   UNL     1       6.849  -5.459  -0.098  0.00  0.00    -0.258 NA
ATOM     14  C   UNL     1       7.499  -4.307  -0.093  0.00  0.00    +0.150 A 
ATOM     15  C   UNL     1       6.798  -3.114  -0.074  0.00  0.00    +0.148 A 
ATOM     16  N   UNL     1       5.475  -3.122  -0.067  0.00  0.00    -0.226 NA
ATOM     17 CL   UNL     1       7.656  -1.605  -0.067  0.00  0.00    -0.060 Cl
ENDBRANCH  10  11
ENDBRANCH   8  10
TORSDOF 2
