REMARK  Name = ZINC20306494
REMARK  7 active torsions:
REMARK  status: ('A' for Active; 'I' for Inactive)
REMARK    1  A    between atoms: C_1  and  N_2
REMARK    2  A    between atoms: N_2  and  C_3
REMARK    3  A    between atoms: N_2  and  C_4
REMARK    4  A    between atoms: C_7  and  C_10
REMARK    5  A    between atoms: C_10  and  N_11
REMARK    6  A    between atoms: N_11  and  C_12
REMARK    7  A    between atoms: C_12  and  C_13
REMARK                            x       y       z     vdW  Elec       q    Type
REMARK                         _______ _______ _______ _____ _____    ______ ____
ROOT
ATOM      1  C   UNL     1       1.146   3.593   0.010  0.00  0.00    -0.046 C 
ENDROOT
BRANCH   1   5
ATOM      2  C   UNL     1       1.215  -0.681  -0.013  0.00  0.00    +0.029 A 
ATOM      3  C   UNL     1       0.002  -0.004   0.002  0.00  0.00    +0.023 A 
ATOM      4  C   UNL     1      -0.017   1.377   0.010  0.00  0.00    +0.003 A 
ATOM      5  C   UNL     1       1.171   2.086   0.002  0.00  0.00    -0.064 A 
ATOM      6  C   UNL     1       2.380   1.416  -0.013  0.00  0.00    +0.003 A 
ATOM      7  C   UNL     1       2.406   0.035  -0.021  0.00  0.00    +0.023 A 
BRANCH   2   9
ATOM      8  C   UNL     1      -0.019  -2.830  -0.012  0.00  0.00    +0.129 C 
ATOM      9  N   UNL     1       1.238  -2.077  -0.021  0.00  0.00    -0.336 N 
ATOM     10  C   UNL     1       2.518  -2.789  -0.037  0.00  0.00    +0.129 C 
ENDBRANCH   2   9
ENDBRANCH   1   5
BRANCH   1  11
ATOM     11  N   UNL     1       1.151   4.075   1.397  0.00  0.00    +0.385 N 
ATOM     12  H   UNL     1       0.264   3.692   1.922  0.00  0.00    -0.085 HD
ATOM     13  H   UNL     1       2.060   3.721   1.906  0.00  0.00    -0.085 HD
BRANCH  11  14
ATOM     14  C   UNL     1       1.128   5.543   1.444  0.00  0.00    -0.039 C 
BRANCH  14  15
ATOM     15  C   UNL     1       1.134   6.000   2.880  0.00  0.00    -0.026 A 
ATOM     16  C   UNL     1       2.190   6.271   3.686  0.00  0.00    +0.024 A 
ATOM     17  C   UNL     1       1.955   6.684   4.984  0.00  0.00    +0.025 A 
ATOM     18  C   UNL     1       0.674   6.797   5.416  0.00  0.00    +0.060 A 
ATOM     19  S   UNL     1      -0.248   6.318   3.965  0.00  0.00    -0.102 S 
ATOM     20 BR   UNL     1       3.397   7.079   6.142  0.00  0.00    -0.050 Br
ENDBRANCH  14  15
ENDBRANCH  11  14
ENDBRANCH   1  11
TORSDOF 5
