REMARK  Name = ZINC02978260
REMARK  5 active torsions:
REMARK  status: ('A' for Active; 'I' for Inactive)
REMARK    1  A    between atoms: C_7  and  C_20
REMARK    2  A    between atoms: N_9  and  C_10
REMARK    3  A    between atoms: C_10  and  C_11
REMARK    4  A    between atoms: C_11  and  O_12
REMARK    5  A    between atoms: O_12  and  C_13
REMARK                            x       y       z     vdW  Elec       q    Type
REMARK                         _______ _______ _______ _____ _____    ______ ____
ROOT
ATOM      1  C   UNL     1      -4.345  -4.126  -0.339  0.00  0.00    +0.001 A 
ATOM      2  C   UNL     1      -3.754  -5.378  -0.415  0.00  0.00    +0.002 A 
ATOM      3  C   UNL     1      -2.383  -5.510  -0.384  0.00  0.00    +0.026 A 
ATOM      4  C   UNL     1      -1.578  -4.380  -0.275  0.00  0.00    +0.050 A 
ATOM      5  C   UNL     1      -2.179  -3.115  -0.198  0.00  0.00    +0.007 A 
ATOM      6  C   UNL     1      -3.565  -2.995  -0.231  0.00  0.00    +0.010 A 
ATOM      7  C   UNL     1      -1.068  -2.147  -0.092  0.00  0.00    +0.001 A 
ATOM      8  C   UNL     1       0.097  -2.895  -0.120  0.00  0.00    +0.095 A 
ATOM      9  N   UNL     1      -0.210  -4.201  -0.221  0.00  0.00    -0.343 N 
ENDROOT
BRANCH   7  10
ATOM     10  C   UNL     1      -1.172  -0.745   0.010  0.00  0.00    +0.028 C 
ATOM     11  C   UNL     1      -0.402  -0.057   0.938  0.00  0.00    +0.100 C 
ATOM     12  C   UNL     1      -0.336   1.415   0.943  0.00  0.00    +0.256 C 
ATOM     13  O   UNL     1      -0.954   2.071   0.125  0.00  0.00    -0.270 OA
ATOM     14  N   UNL     1       0.433   2.016   1.874  0.00  0.00    -0.236 N 
ATOM     15  C   UNL     1       1.123   1.306   2.777  0.00  0.00    +0.313 C 
ATOM     16  O   UNL     1       1.798   1.907   3.589  0.00  0.00    -0.252 OA
ATOM     17  N   UNL     1       1.110  -0.034   2.831  0.00  0.00    -0.236 N 
ATOM     18  C   UNL     1       0.385  -0.767   1.961  0.00  0.00    +0.256 C 
ATOM     19  O   UNL     1       0.381  -1.982   2.020  0.00  0.00    -0.270 OA
ATOM     20  H   UNL     1       0.487   2.984   1.891  0.00  0.00    +0.159 HD
ATOM     21  H   UNL     1       1.633  -0.486   3.511  0.00  0.00    +0.159 HD
ENDBRANCH   7  10
BRANCH   9  22
ATOM     22  C   UNL     1       0.774  -5.285  -0.273  0.00  0.00    +0.163 C 
BRANCH  22  23
ATOM     23  C   UNL     1       1.067  -5.639  -1.732  0.00  0.00    +0.250 C 
BRANCH  23  24
ATOM     24  O   UNL     1       2.027  -6.697  -1.782  0.00  0.00    -0.490 OA
BRANCH  24  25
ATOM     25  C   UNL     1       2.399  -7.134  -3.014  0.00  0.00    +0.121 A 
ATOM     26  C   UNL     1       1.847  -6.561  -4.151  0.00  0.00    +0.047 A 
ATOM     27  C   UNL     1       2.231  -7.003  -5.402  0.00  0.00    +0.023 A 
ATOM     28  C   UNL     1       3.156  -8.025  -5.522  0.00  0.00    +0.041 A 
ATOM     29  C   UNL     1       3.704  -8.601  -4.389  0.00  0.00    +0.023 A 
ATOM     30  C   UNL     1       3.327  -8.158  -3.136  0.00  0.00    +0.047 A 
ATOM     31 CL   UNL     1       3.632  -8.583  -7.095  0.00  0.00    -0.084 Cl
ENDBRANCH  24  25
ENDBRANCH  23  24
ENDBRANCH  22  23
ENDBRANCH   9  22
TORSDOF 5
