REMARK  Name = ZINC06812216
REMARK  8 active torsions:
REMARK  status: ('A' for Active; 'I' for Inactive)
REMARK    1  A    between atoms: C_1  and  C_2
REMARK    2  A    between atoms: C_2  and  C_3
REMARK    3  A    between atoms: C_3  and  C_4
REMARK    4  A    between atoms: C_10  and  C_25
REMARK    5  A    between atoms: C_12  and  C_15
REMARK    6  A    between atoms: N_17  and  C_18
REMARK    7  A    between atoms: C_23  and  C_24
REMARK    8  A    between atoms: C_28  and  C_31
REMARK                            x       y       z     vdW  Elec       q    Type
REMARK                         _______ _______ _______ _____ _____    ______ ____
ROOT
ATOM      1  C   UNL     1      -5.656   1.113   1.971  0.00  0.00    +0.151 A 
ATOM      2  N   UNL     1      -6.656   0.356   1.611  0.00  0.00    -0.132 NA
ATOM      3  N   UNL     1      -6.404  -0.203   0.478  0.00  0.00    -0.121 NA
ATOM      4  C   UNL     1      -5.225   0.170   0.063  0.00  0.00    +0.209 A 
ATOM      5  N   UNL     1      -4.708   1.027   0.992  0.00  0.00    -0.225 N 
ATOM      6  N   UNL     1      -3.508   1.661   0.942  0.00  0.00    -0.272 N 
ATOM      7  C   UNL     1      -2.533   1.006   0.068  0.00  0.00    +0.140 C 
ATOM      8  C   UNL     1      -3.064   0.935  -1.369  0.00  0.00    +0.166 C 
ATOM      9  S   UNL     1      -4.386  -0.313  -1.414  0.00  0.00    -0.069 S 
ATOM     10  H   UNL     1      -3.622   2.632   0.694  0.00  0.00    +0.167 HD
ENDROOT
BRANCH   7  11
ATOM     11  C   UNL     1      -1.245   1.789   0.085  0.00  0.00    -0.024 A 
ATOM     12  C   UNL     1      -0.033   1.124   0.102  0.00  0.00    +0.006 A 
ATOM     13  C   UNL     1       1.149   1.842   0.112  0.00  0.00    +0.004 A 
ATOM     14  C   UNL     1       1.118   3.224   0.110  0.00  0.00    -0.050 A 
ATOM     15  C   UNL     1      -0.094   3.888   0.099  0.00  0.00    +0.004 A 
ATOM     16  C   UNL     1      -1.276   3.171   0.088  0.00  0.00    +0.006 A 
ATOM     17  C   UNL     1       2.406   4.006   0.121  0.00  0.00    +0.044 C 
ENDBRANCH   7  11
BRANCH   8  18
ATOM     18  C   UNL     1      -3.616   2.277  -1.776  0.00  0.00    +0.233 C 
ATOM     19  O   UNL     1      -4.809   2.485  -1.720  0.00  0.00    -0.274 OA
ATOM     20  N   UNL     1      -2.783   3.247  -2.203  0.00  0.00    -0.284 N 
ATOM     21  H   UNL     1      -1.840   3.055  -2.330  0.00  0.00    +0.155 HD
BRANCH  20  22
ATOM     22  C   UNL     1      -3.277   4.529  -2.463  0.00  0.00    +0.036 A 
ATOM     23  C   UNL     1      -4.317   5.043  -1.699  0.00  0.00    +0.023 A 
ATOM     24  C   UNL     1      -4.799   6.311  -1.954  0.00  0.00    +0.002 A 
ATOM     25  C   UNL     1      -4.255   7.066  -2.977  0.00  0.00    +0.000 A 
ATOM     26  C   UNL     1      -3.224   6.556  -3.744  0.00  0.00    +0.005 A 
ATOM     27  C   UNL     1      -2.733   5.290  -3.490  0.00  0.00    -0.029 A 
ATOM     28  C   UNL     1      -1.610   4.734  -4.327  0.00  0.00    +0.045 C 
ENDBRANCH  20  22
ENDBRANCH   8  18
BRANCH   1  29
ATOM     29  C   UNL     1      -5.565   1.931   3.233  0.00  0.00    +0.078 C 
BRANCH  29  31
ATOM     30  C   UNL     1      -6.043   4.158   4.260  0.00  0.00    +0.004 C 
ATOM     31  C   UNL     1      -6.136   3.327   2.979  0.00  0.00    +0.004 C 
ENDBRANCH  29  31
ENDBRANCH   1  29
TORSDOF 5
