REMARK  Name = ZINC09458527
REMARK  6 active torsions:
REMARK  status: ('A' for Active; 'I' for Inactive)
REMARK    1  A    between atoms: C_1  and  N_2
REMARK    2  A    between atoms: N_7  and  N_8
REMARK    3  A    between atoms: C_9  and  C_10
REMARK    4  A    between atoms: N_15  and  C_29
REMARK    5  A    between atoms: N_18  and  C_21
REMARK    6  A    between atoms: C_21  and  C_22
REMARK                            x       y       z     vdW  Elec       q    Type
REMARK                         _______ _______ _______ _____ _____    ______ ____
ROOT
ATOM      1  C   UNL     1      -3.681  -2.463   0.037  0.00  0.00    +0.152 C 
ATOM      2  N   UNL     1      -2.282  -2.898   0.014  0.00  0.00    -0.308 N 
ATOM      3  C   UNL     1      -1.822  -4.207  -0.003  0.00  0.00    +0.153 A 
ATOM      4  C   UNL     1      -0.433  -4.134  -0.016  0.00  0.00    +0.170 A 
ATOM      5  N   UNL     1      -0.097  -2.844  -0.012  0.00  0.00    -0.195 NA
ATOM      6  C   UNL     1      -1.183  -2.096   0.002  0.00  0.00    +0.218 A 
ATOM      7  N   UNL     1      -1.202  -0.721   0.010  0.00  0.00    -0.206 N 
ATOM      8  N   UNL     1       0.298  -5.312  -0.029  0.00  0.00    -0.279 N 
ATOM      9  C   UNL     1      -0.338  -6.499  -0.029  0.00  0.00    +0.334 A 
ATOM     10  O   UNL     1       0.319  -7.523  -0.040  0.00  0.00    -0.246 OA
ATOM     11  N   UNL     1      -1.679  -6.581  -0.017  0.00  0.00    -0.255 N 
ATOM     12  C   UNL     1      -2.443  -5.469  -0.005  0.00  0.00    +0.283 A 
ATOM     13  O   UNL     1      -3.659  -5.556   0.006  0.00  0.00    -0.265 OA
ATOM     14  C   UNL     1       1.762  -5.265  -0.042  0.00  0.00    +0.155 C 
ATOM     15  H   UNL     1      -2.048  -0.247   0.020  0.00  0.00    +0.177 HD
ENDROOT
BRANCH   7  16
ATOM     16  N   UNL     1       0.002  -0.004   0.002  0.00  0.00    -0.187 NA
ATOM     17  C   UNL     1      -0.016   1.296   0.009  0.00  0.00    +0.145 C 
BRANCH  17  18
ATOM     18  C   UNL     1       1.245   2.047   0.001  0.00  0.00    +0.032 A 
ATOM     19  C   UNL     1       1.445   3.417   0.007  0.00  0.00    +0.017 A 
ATOM     20  C   UNL     1       2.737   3.888  -0.002  0.00  0.00    +0.008 A 
ATOM     21  C   UNL     1       3.768   3.004  -0.016  0.00  0.00    +0.046 A 
ATOM     22  S   UNL     1       2.921   1.433  -0.010  0.00  0.00    -0.096 S 
ENDBRANCH  17  18
ENDBRANCH   7  16
BRANCH  11  23
ATOM     23  C   UNL     1      -2.322  -7.897  -0.018  0.00  0.00    +0.165 C 
BRANCH  23  24
ATOM     24  C   UNL     1      -2.529  -8.356   1.402  0.00  0.00    -0.027 A 
ATOM     25  C   UNL     1      -1.551  -9.097   2.039  0.00  0.00    +0.006 A 
ATOM     26  C   UNL     1      -1.739  -9.514   3.343  0.00  0.00    +0.015 A 
ATOM     27  C   UNL     1      -2.910  -9.199   4.008  0.00  0.00    +0.018 A 
ATOM     28  C   UNL     1      -3.891  -8.463   3.368  0.00  0.00    +0.015 A 
ATOM     29  C   UNL     1      -3.700  -8.041   2.066  0.00  0.00    +0.006 A 
ATOM     30 BR   UNL     1      -3.171  -9.775   5.790  0.00  0.00    -0.050 Br
ENDBRANCH  23  24
ENDBRANCH  11  23
TORSDOF 4
