REMARK  Name = ZINC12503194
REMARK  10 active torsions:
REMARK  status: ('A' for Active; 'I' for Inactive)
REMARK    1  A    between atoms: C_1  and  C_2
REMARK    2  A    between atoms: C_7  and  O_8
REMARK    3  A    between atoms: O_8  and  C_9
REMARK    4  A    between atoms: C_9  and  C_10
REMARK    5  A    between atoms: N_12  and  C_13
REMARK    6  A    between atoms: C_13  and  N_15
REMARK    7  A    between atoms: N_15  and  N_16
REMARK    8  A    between atoms: C_17  and  C_19
REMARK    9  A    between atoms: C_19  and  C_20
REMARK   10  A    between atoms: C_19  and  C_26
REMARK                            x       y       z     vdW  Elec       q    Type
REMARK                         _______ _______ _______ _____ _____    ______ ____
ROOT
ATOM      1  N   UNL     1      -0.482  -2.847   2.425  0.00  0.00    -0.246 N 
ATOM      2  H   UNL     1      -0.839  -2.390   3.203  0.00  0.00    +0.172 HD
ENDROOT
BRANCH   1   3
ATOM      3  N   UNL     1      -0.159  -2.121   1.272  0.00  0.00    -0.234 N 
ATOM      4  C   UNL     1      -0.345  -0.786   1.243  0.00  0.00    +0.241 C 
ATOM      5  O   UNL     1      -0.791  -0.214   2.215  0.00  0.00    -0.273 OA
ATOM      6  H   UNL     1       0.198  -2.578   0.495  0.00  0.00    +0.173 HD
BRANCH   4   7
ATOM      7  C   UNL     1       0.002  -0.004   0.002  0.00  0.00    +0.136 C 
BRANCH   7   8
ATOM      8  C   UNL     1      -0.297   1.456   0.228  0.00  0.00    -0.031 A 
ATOM      9  C   UNL     1      -1.551   1.845   0.661  0.00  0.00    +0.005 A 
ATOM     10  C   UNL     1      -1.824   3.183   0.873  0.00  0.00    +0.000 A 
ATOM     11  C   UNL     1      -0.846   4.133   0.642  0.00  0.00    +0.000 A 
ATOM     12  C   UNL     1       0.406   3.744   0.204  0.00  0.00    +0.000 A 
ATOM     13  C   UNL     1       0.680   2.405  -0.003  0.00  0.00    +0.005 A 
ENDBRANCH   7   8
BRANCH   7  14
ATOM     14  C   UNL     1      -0.817  -0.511  -1.157  0.00  0.00    -0.031 A 
ATOM     15  C   UNL     1      -2.184  -0.668  -1.021  0.00  0.00    +0.005 A 
ATOM     16  C   UNL     1      -2.936  -1.129  -2.086  0.00  0.00    +0.000 A 
ATOM     17  C   UNL     1      -2.320  -1.442  -3.283  0.00  0.00    +0.000 A 
ATOM     18  C   UNL     1      -0.952  -1.291  -3.417  0.00  0.00    +0.000 A 
ATOM     19  C   UNL     1      -0.201  -0.825  -2.354  0.00  0.00    +0.005 A 
ENDBRANCH   7  14
ENDBRANCH   4   7
ENDBRANCH   1   3
BRANCH   1  20
ATOM     20  C   UNL     1      -0.296  -4.182   2.455  0.00  0.00    +0.153 C 
ATOM     21  S   UNL     1      -0.690  -5.070   3.864  0.00  0.00    -0.017 S 
BRANCH  20  24
ATOM     22  C   UNL     1       0.386  -6.152   1.404  0.00  0.00    +0.256 C 
ATOM     23  O   UNL     1       0.106  -6.781   2.402  0.00  0.00    -0.272 OA
ATOM     24  N   UNL     1       0.200  -4.817   1.375  0.00  0.00    -0.264 N 
ATOM     25  H   UNL     1       0.423  -4.314   0.576  0.00  0.00    +0.157 HD
BRANCH  22  26
ATOM     26  C   UNL     1       0.940  -6.862   0.196  0.00  0.00    +0.325 C 
BRANCH  26  27
ATOM     27  O   UNL     1       1.043  -8.261   0.472  0.00  0.00    -0.483 OA
BRANCH  27  34
ATOM     28  C   UNL     1       1.255 -11.028   0.996  0.00  0.00    +0.047 C 
ATOM     29  C   UNL     1       1.657 -10.418  -0.322  0.00  0.00    -0.009 A 
ATOM     30  C   UNL     1       2.152 -11.219  -1.333  0.00  0.00    +0.007 A 
ATOM     31  C   UNL     1       2.520 -10.659  -2.542  0.00  0.00    +0.000 A 
ATOM     32  C   UNL     1       2.393  -9.297  -2.744  0.00  0.00    +0.004 A 
ATOM     33  C   UNL     1       1.895  -8.493  -1.738  0.00  0.00    +0.046 A 
ATOM     34  C   UNL     1       1.530  -9.051  -0.521  0.00  0.00    +0.124 A 
ENDBRANCH  27  34
ENDBRANCH  26  27
ENDBRANCH  22  26
ENDBRANCH  20  24
ENDBRANCH   1  20
TORSDOF 9
