REMARK  Name = ZINC53363597
REMARK  9 active torsions:
REMARK  status: ('A' for Active; 'I' for Inactive)
REMARK    1  A    between atoms: C_1  and  C_2
REMARK    2  A    between atoms: C_2  and  C_3
REMARK    3  A    between atoms: C_6  and  C_9
REMARK    4  A    between atoms: C_11  and  C_25
REMARK    5  A    between atoms: C_14  and  C_17
REMARK    6  A    between atoms: C_22  and  O_23
REMARK    7  A    between atoms: C_28  and  C_31
REMARK    8  A    between atoms: C_31  and  O_33
REMARK    9  A    between atoms: O_33  and  C_34
REMARK                            x       y       z     vdW  Elec       q    Type
REMARK                         _______ _______ _______ _____ _____    ______ ____
ROOT
ATOM      1  C   UNL     1       2.695  -1.860  -4.731  0.00  0.00    +0.047 C 
ATOM      2  N   UNL     1       2.002  -2.057  -5.788  0.00  0.00    -0.264 NA
ATOM      3  C   UNL     1       2.553  -2.535  -7.050  0.00  0.00    +0.204 C 
ATOM      4  N   UNL     1       4.010  -2.357  -7.080  0.00  0.00    -0.284 NA
ATOM      5  C   UNL     1       4.617  -2.933  -5.868  0.00  0.00    +0.095 C 
ATOM      6  C   UNL     1       4.180  -2.085  -4.668  0.00  0.00    +0.079 C 
ATOM      7  H   UNL     1       4.407  -2.766  -7.913  0.00  0.00    +0.125 HD
ENDROOT
BRANCH   5   8
ATOM      8  C   UNL     1       6.119  -2.904  -5.989  0.00  0.00    +0.012 A 
ATOM      9  C   UNL     1       6.729  -1.972  -6.806  0.00  0.00    +0.024 A 
ATOM     10  C   UNL     1       8.108  -1.945  -6.918  0.00  0.00    +0.018 A 
ATOM     11  C   UNL     1       8.879  -2.852  -6.212  0.00  0.00    +0.019 A 
ATOM     12  C   UNL     1       8.273  -3.786  -5.394  0.00  0.00    +0.047 A 
ATOM     13  C   UNL     1       6.891  -3.811  -5.277  0.00  0.00    +0.122 A 
ATOM     14 BR   UNL     1       8.940  -0.667  -8.037  0.00  0.00    -0.050 Br
BRANCH  13  15
ATOM     15  O   UNL     1       6.293  -4.726  -4.469  0.00  0.00    -0.506 OA
ATOM     16  H   UNL     1       6.076  -5.559  -4.911  0.00  0.00    +0.292 HD
ENDBRANCH  13  15
ENDBRANCH   5   8
BRANCH   1  20
ATOM     17  C   UNL     1       0.707  -0.490  -1.238  0.00  0.00    -0.048 A 
ATOM     18  C   UNL     1      -0.014  -0.718  -2.396  0.00  0.00    +0.004 A 
ATOM     19  C   UNL     1       0.625  -1.163  -3.535  0.00  0.00    +0.010 A 
ATOM     20  C   UNL     1       2.004  -1.383  -3.516  0.00  0.00    -0.004 A 
ATOM     21  C   UNL     1       2.726  -1.151  -2.344  0.00  0.00    +0.010 A 
ATOM     22  C   UNL     1       2.075  -0.701  -1.214  0.00  0.00    +0.004 A 
BRANCH  17  24
ATOM     23  C   UNL     1      -0.019   1.526   0.010  0.00  0.00    +0.009 C 
ATOM     24  C   UNL     1       0.002  -0.004   0.002  0.00  0.00    +0.032 C 
ENDBRANCH  17  24
ENDBRANCH   1  20
BRANCH   3  25
ATOM     25  C   UNL     1       1.936  -1.761  -8.187  0.00  0.00    -0.009 A 
ATOM     26  C   UNL     1       2.656  -1.553  -9.349  0.00  0.00    +0.008 A 
ATOM     27  C   UNL     1       2.098  -0.845 -10.393  0.00  0.00    +0.015 A 
ATOM     28  C   UNL     1       0.802  -0.339 -10.275  0.00  0.00    +0.059 A 
ATOM     29  C   UNL     1       0.080  -0.553  -9.098  0.00  0.00    +0.015 A 
ATOM     30  C   UNL     1       0.649  -1.267  -8.064  0.00  0.00    +0.008 A 
BRANCH  28  31
ATOM     31  C   UNL     1       0.197   0.420 -11.388  0.00  0.00    +0.339 C 
ATOM     32  O   UNL     1       0.827   0.605 -12.410  0.00  0.00    -0.245 OA
BRANCH  31  33
ATOM     33  O   UNL     1      -1.053   0.907 -11.271  0.00  0.00    -0.464 OA
ATOM     34  C   UNL     1      -1.575   1.632 -12.387  0.00  0.00    +0.280 C 
ENDBRANCH  31  33
ENDBRANCH  28  31
ENDBRANCH   3  25
TORSDOF 7
