REMARK  Name = ZINC20756745
REMARK  9 active torsions:
REMARK  status: ('A' for Active; 'I' for Inactive)
REMARK    1  A    between atoms: C_1  and  N_2
REMARK    2  A    between atoms: C_15  and  C_17
REMARK    3  A    between atoms: N_21  and  C_24
REMARK    4  A    between atoms: C_26  and  O_34
REMARK    5  A    between atoms: C_27  and  O_32
REMARK    6  A    between atoms: C_28  and  O_30
REMARK    7  A    between atoms: O_30  and  C_31
REMARK    8  A    between atoms: O_32  and  C_33
REMARK    9  A    between atoms: O_34  and  C_35
REMARK                            x       y       z     vdW  Elec       q    Type
REMARK                         _______ _______ _______ _____ _____    ______ ____
ROOT
ATOM      1  C   UNL     1       2.502  -0.594   1.482  0.00  0.00    +0.074 A 
ATOM      2  C   UNL     1       2.764   0.598   2.091  0.00  0.00    +0.260 A 
ATOM      3  N   UNL     1       3.760   1.403   1.600  0.00  0.00    -0.274 N 
ATOM      4  C   UNL     1       4.475   1.024   0.525  0.00  0.00    +0.337 A 
ATOM      5  N   UNL     1       4.232  -0.148  -0.090  0.00  0.00    -0.229 N 
ATOM      6  C   UNL     1       3.267  -0.972   0.365  0.00  0.00    +0.267 A 
ATOM      7  O   UNL     1       3.055  -2.035  -0.193  0.00  0.00    -0.267 OA
ATOM      8  O   UNL     1       5.353   1.751   0.103  0.00  0.00    -0.246 OA
ATOM      9  O   UNL     1       2.048   0.982   3.169  0.00  0.00    -0.267 OA
ATOM     10  H   UNL     1       3.949   2.252   2.030  0.00  0.00    +0.173 HD
ENDROOT
BRANCH   1  25
ATOM     11  C   UNL     1      -0.250  -0.591   0.532  0.00  0.00    -0.095 C 
ATOM     12  N   UNL     1       0.471  -1.810   0.918  0.00  0.00    +0.387 N 
ATOM     13  C   UNL     1      -0.492  -2.826   1.362  0.00  0.00    -0.073 C 
ATOM     14  C   UNL     1       0.208  -4.189   1.462  0.00  0.00    +0.019 C 
ATOM     15  C   UNL     1       1.475  -3.998   2.257  0.00  0.00    -0.022 A 
ATOM     16  C   UNL     1       2.325  -4.985   2.884  0.00  0.00    +0.003 A 
ATOM     17  C   UNL     1       2.266  -6.380   2.963  0.00  0.00    +0.010 A 
ATOM     18  C   UNL     1       3.269  -7.006   3.659  0.00  0.00    +0.001 A 
ATOM     19  C   UNL     1       4.299  -6.301   4.261  0.00  0.00    +0.002 A 
ATOM     20  C   UNL     1       4.383  -4.921   4.199  0.00  0.00    +0.026 A 
ATOM     21  C   UNL     1       3.378  -4.258   3.499  0.00  0.00    +0.047 A 
ATOM     22  N   UNL     1       3.158  -2.933   3.249  0.00  0.00    -0.359 N 
ATOM     23  H   UNL     1       3.725  -2.206   3.552  0.00  0.00    +0.166 HD
ATOM     24  C   UNL     1       2.020  -2.785   2.505  0.00  0.00    +0.011 A 
ATOM     25  C   UNL     1       1.413  -1.496   2.003  0.00  0.00    +0.021 C 
ATOM     26  H   UNL     1       0.983  -2.163   0.123  0.00  0.00    -0.081 HD
ENDBRANCH   1  25
BRANCH   5  27
ATOM     27  C   UNL     1       4.993  -0.518  -1.209  0.00  0.00    +0.062 A 
ATOM     28  C   UNL     1       4.574  -0.159  -2.482  0.00  0.00    +0.076 A 
ATOM     29  C   UNL     1       5.325  -0.524  -3.588  0.00  0.00    +0.167 A 
ATOM     30  C   UNL     1       6.499  -1.250  -3.422  0.00  0.00    +0.204 A 
ATOM     31  C   UNL     1       6.918  -1.609  -2.146  0.00  0.00    +0.167 A 
ATOM     32  C   UNL     1       6.168  -1.239  -1.041  0.00  0.00    +0.076 A 
BRANCH  31  33
ATOM     33  O   UNL     1       8.065  -2.320  -1.982  0.00  0.00    -0.491 OA
ATOM     34  C   UNL     1       8.435  -2.655  -0.643  0.00  0.00    +0.277 C 
ENDBRANCH  31  33
BRANCH  30  35
ATOM     35  O   UNL     1       7.237  -1.609  -4.508  0.00  0.00    -0.488 OA
ATOM     36  C   UNL     1       8.248  -0.695  -4.936  0.00  0.00    +0.277 C 
ENDBRANCH  30  35
BRANCH  29  37
ATOM     37  O   UNL     1       4.914  -0.172  -4.836  0.00  0.00    -0.491 OA
ATOM     38  C   UNL     1       3.699   0.573  -4.932  0.00  0.00    +0.277 C 
ENDBRANCH  29  37
ENDBRANCH   5  27
TORSDOF 5
