REMARK  Name = ZINC62451077
REMARK  3 active torsions:
REMARK  status: ('A' for Active; 'I' for Inactive)
REMARK    1  A    between atoms: C_4  and  C_7
REMARK    2  A    between atoms: C_10  and  C_12
REMARK    3  A    between atoms: C_17  and  C_20
REMARK                            x       y       z     vdW  Elec       q    Type
REMARK                         _______ _______ _______ _____ _____    ______ ____
ROOT
ATOM      1  C   UNL     1       2.916  -1.753  -2.277  0.00  0.00    +0.219 C 
ATOM      2  O   UNL     1       1.888  -1.117  -2.171  0.00  0.00    -0.275 OA
ATOM      3  N   UNL     1       3.103  -2.560  -3.340  0.00  0.00    -0.301 N 
ATOM      4  C   UNL     1       4.339  -3.341  -3.478  0.00  0.00    +0.108 C 
ATOM      5  C   UNL     1       4.956  -3.048  -4.850  0.00  0.00    +0.029 C 
ATOM      6  C   UNL     1       3.917  -3.318  -5.940  0.00  0.00    +0.048 C 
ATOM      7  C   UNL     1       2.715  -2.391  -5.743  0.00  0.00    +0.029 C 
ATOM      8  C   UNL     1       2.071  -2.680  -4.379  0.00  0.00    +0.108 C 
ENDROOT
BRANCH   6   9
ATOM      9  C   UNL     1       4.531  -3.064  -7.293  0.00  0.00    +0.082 A 
ATOM     10  N   UNL     1       5.048  -1.955  -7.756  0.00  0.00    -0.248 NA
ATOM     11  C   UNL     1       5.559  -1.869  -8.979  0.00  0.00    +0.052 A 
ATOM     12  C   UNL     1       5.500  -3.019  -9.702  0.00  0.00    +0.013 A 
ATOM     13  S   UNL     1       4.724  -4.142  -8.574  0.00  0.00    -0.077 S 
ATOM     14  C   UNL     1       5.982  -3.244 -11.095  0.00  0.00    +0.044 C 
ATOM     15  C   UNL     1       6.237  -1.873 -11.742  0.00  0.00    +0.006 C 
ATOM     16  C   UNL     1       7.044  -1.010 -10.769  0.00  0.00    +0.006 C 
ATOM     17  C   UNL     1       6.176  -0.612  -9.573  0.00  0.00    +0.056 C 
ENDBRANCH   6   9
BRANCH   1  20
ATOM     18  C   UNL     1       3.711  -0.707  -0.038  0.00  0.00    +0.032 C 
ATOM     19  C   UNL     1       3.675  -2.224   0.162  0.00  0.00    +0.022 C 
ATOM     20  C   UNL     1       3.983  -1.640  -1.219  0.00  0.00    +0.083 C 
BRANCH  18  24
ATOM     21  C   UNL     1      -0.017   1.378   0.010  0.00  0.00    +0.000 A 
ATOM     22  C   UNL     1       1.171   2.086   0.002  0.00  0.00    +0.000 A 
ATOM     23  C   UNL     1       2.377   1.411  -0.013  0.00  0.00    +0.004 A 
ATOM     24  C   UNL     1       2.396   0.029  -0.020  0.00  0.00    -0.044 A 
ATOM     25  C   UNL     1       1.208  -0.679  -0.012  0.00  0.00    +0.004 A 
ATOM     26  C   UNL     1       0.002  -0.004   0.002  0.00  0.00    +0.000 A 
ENDBRANCH  18  24
ENDBRANCH   1  20
TORSDOF 3
