REMARK  Name = ZINC40380223
REMARK  15 active torsions:
REMARK  status: ('A' for Active; 'I' for Inactive)
REMARK    1  A    between atoms: C_1  and  N_2
REMARK    2  A    between atoms: N_2  and  C_3
REMARK    3  A    between atoms: N_2  and  C_4
REMARK    4  A    between atoms: C_4  and  C_5
REMARK    5  A    between atoms: C_5  and  C_6
REMARK    6  A    between atoms: C_6  and  O_7
REMARK    7  A    between atoms: O_7  and  C_8
REMARK    8  A    between atoms: C_11  and  C_14
REMARK    9  A    between atoms: C_16  and  C_20
REMARK   10  A    between atoms: C_24  and  O_34
REMARK   11  A    between atoms: N_28  and  C_29
REMARK   12  A    between atoms: C_29  and  C_30
REMARK   13  A    between atoms: C_30  and  N_31
REMARK   14  A    between atoms: N_31  and  C_32
REMARK   15  A    between atoms: N_31  and  C_33
REMARK                            x       y       z     vdW  Elec       q    Type
REMARK                         _______ _______ _______ _____ _____    ______ ____
ROOT
ATOM      1  C   UNL     1      -7.773  -6.565  -0.438  0.00  0.00    +0.001 A 
ATOM      2  C   UNL     1      -7.841  -7.952  -0.572  0.00  0.00    +0.021 A 
ATOM      3  C   UNL     1      -9.070  -8.577  -0.348  0.00  0.00    +0.017 A 
ATOM      4  C   UNL     1     -10.174  -7.795  -0.003  0.00  0.00    +0.120 A 
ATOM      5  N   UNL     1     -10.066  -6.487   0.112  0.00  0.00    -0.262 NA
ATOM      6  C   UNL     1      -8.923  -5.861  -0.085  0.00  0.00    +0.119 A 
ENDROOT
BRANCH   3   7
ATOM      7  C   UNL     1      -9.201 -10.045  -0.476  0.00  0.00    +0.051 A 
ATOM      8  C   UNL     1      -8.387 -10.841  -1.214  0.00  0.00    +0.036 A 
ATOM      9  C   UNL     1      -8.874 -12.210  -1.057  0.00  0.00    +0.004 A 
ATOM     10  C   UNL     1      -8.459 -13.447  -1.561  0.00  0.00    +0.055 A 
ATOM     11  C   UNL     1      -9.150 -14.591  -1.214  0.00  0.00    +0.118 A 
ATOM     12  C   UNL     1     -10.254 -14.515  -0.368  0.00  0.00    +0.047 A 
ATOM     13  C   UNL     1     -10.671 -13.303   0.134  0.00  0.00    +0.030 A 
ATOM     14  C   UNL     1      -9.989 -12.138  -0.202  0.00  0.00    +0.050 A 
ATOM     15  N   UNL     1     -10.162 -10.812   0.139  0.00  0.00    -0.342 N 
BRANCH  11  16
ATOM     16  O   UNL     1      -8.752 -15.796  -1.702  0.00  0.00    -0.507 OA
ATOM     17  H   UNL     1      -8.107 -16.253  -1.143  0.00  0.00    +0.292 HD
ENDBRANCH  11  16
BRANCH  15  18
ATOM     18  C   UNL     1     -11.213 -10.299   1.021  0.00  0.00    +0.104 C 
BRANCH  18  19
ATOM     19  C   UNL     1     -12.491 -10.070   0.212  0.00  0.00    -0.058 C 
BRANCH  19  20
ATOM     20  N   UNL     1     -13.504  -9.434   1.065  0.00  0.00    +0.377 N 
ATOM     21  C   UNL     1     -14.687  -9.105   0.259  0.00  0.00    -0.097 C 
ATOM     22  C   UNL     1     -13.886 -10.357   2.142  0.00  0.00    -0.097 C 
ATOM     23  H   UNL     1     -13.124  -8.589   1.465  0.00  0.00    -0.083 HD
ENDBRANCH  19  20
ENDBRANCH  18  19
ENDBRANCH  15  18
ENDBRANCH   3   7
BRANCH   1  27
ATOM     24  C   UNL     1      -4.102  -4.513  -1.082  0.00  0.00    +0.121 A 
ATOM     25  C   UNL     1      -5.241  -3.801  -0.731  0.00  0.00    +0.046 A 
ATOM     26  C   UNL     1      -6.433  -4.464  -0.522  0.00  0.00    +0.012 A 
ATOM     27  C   UNL     1      -6.492  -5.849  -0.663  0.00  0.00    -0.016 A 
ATOM     28  C   UNL     1      -5.347  -6.561  -1.016  0.00  0.00    +0.012 A 
ATOM     29  C   UNL     1      -4.160  -5.892  -1.229  0.00  0.00    +0.046 A 
BRANCH  24  30
ATOM     30  O   UNL     1      -2.930  -3.858  -1.287  0.00  0.00    -0.492 OA
BRANCH  30  31
ATOM     31  C   UNL     1      -2.941  -2.439  -1.119  0.00  0.00    +0.227 C 
BRANCH  31  32
ATOM     32  C   UNL     1      -1.542  -1.882  -1.389  0.00  0.00    +0.022 C 
BRANCH  32  33
ATOM     33  C   UNL     1      -1.555  -0.362  -1.209  0.00  0.00    -0.076 C 
BRANCH  33  35
ATOM     34  C   UNL     1      -0.250   1.640  -1.414  0.00  0.00    -0.097 C 
ATOM     35  N   UNL     1      -0.212   0.173  -1.469  0.00  0.00    +0.376 N 
ATOM     36  C   UNL     1       0.721  -0.332  -0.453  0.00  0.00    -0.097 C 
ATOM     37  H   UNL     1       0.096  -0.121  -2.384  0.00  0.00    -0.083 HD
ENDBRANCH  33  35
ENDBRANCH  32  33
ENDBRANCH  31  32
ENDBRANCH  30  31
ENDBRANCH  24  30
ENDBRANCH   1  27
TORSDOF 11
