REMARK  Name = ZINC36719416
REMARK  5 active torsions:
REMARK  status: ('A' for Active; 'I' for Inactive)
REMARK    1  A    between atoms: C_7  and  C_14
REMARK    2  A    between atoms: N_16  and  C_17
REMARK    3  A    between atoms: C_17  and  C_18
REMARK    4  A    between atoms: C_18  and  C_19
REMARK    5  A    between atoms: C_19  and  N_20
REMARK                            x       y       z     vdW  Elec       q    Type
REMARK                         _______ _______ _______ _____ _____    ______ ____
ROOT
ATOM      1  C   UNL     1       0.063  -2.915  -0.016  0.00  0.00    +0.245 C 
ATOM      2  O   UNL     1      -0.451  -3.246  -1.067  0.00  0.00    -0.270 OA
ATOM      3  N   UNL     1      -0.488  -3.295   1.153  0.00  0.00    -0.311 N 
ATOM      4  H   UNL     1      -0.078  -3.031   1.991  0.00  0.00    +0.149 HD
ENDROOT
BRANCH   1  11
ATOM      5  C   UNL     1      -0.016   1.358   0.009  0.00  0.00    +0.001 A 
ATOM      6  C   UNL     1       1.171   2.088   0.002  0.00  0.00    +0.002 A 
ATOM      7  C   UNL     1       2.379   1.464  -0.013  0.00  0.00    +0.028 A 
ATOM      8  C   UNL     1       2.439   0.058  -0.020  0.00  0.00    +0.072 A 
ATOM      9  C   UNL     1       1.229  -0.680  -0.013  0.00  0.00    +0.013 A 
ATOM     10  C   UNL     1       0.002  -0.004   0.002  0.00  0.00    +0.011 A 
ATOM     11  C   UNL     1       1.294  -2.095  -0.021  0.00  0.00    +0.051 A 
ATOM     12  C   UNL     1       2.550  -2.690  -0.034  0.00  0.00    -0.013 A 
ATOM     13  C   UNL     1       3.694  -1.893  -0.039  0.00  0.00    +0.046 A 
ATOM     14  N   UNL     1       3.609  -0.581  -0.032  0.00  0.00    -0.251 NA
ATOM     15  C   UNL     1       4.923  -2.782  -0.054  0.00  0.00    +0.056 C 
ATOM     16  C   UNL     1       4.424  -4.174   0.387  0.00  0.00    +0.011 C 
ATOM     17  C   UNL     1       2.942  -4.151  -0.044  0.00  0.00    +0.038 C 
ENDBRANCH   1  11
BRANCH   3  18
ATOM     18  C   UNL     1      -1.708  -4.107   1.158  0.00  0.00    +0.106 C 
BRANCH  18  19
ATOM     19  C   UNL     1      -2.121  -4.398   2.602  0.00  0.00    +0.038 C 
BRANCH  19  20
ATOM     20  C   UNL     1      -3.394  -5.246   2.608  0.00  0.00    +0.119 C 
BRANCH  20  21
ATOM     21  N   UNL     1      -3.790  -5.525   3.990  0.00  0.00    -0.224 N 
ATOM     22  C   UNL     1      -3.372  -6.596   4.699  0.00  0.00    +0.246 C 
ATOM     23  O   UNL     1      -2.627  -7.477   4.328  0.00  0.00    -0.273 OA
ATOM     24  C   UNL     1      -4.029  -6.461   6.049  0.00  0.00    +0.113 C 
ATOM     25  C   UNL     1      -2.981  -6.367   7.165  0.00  0.00    +0.035 C 
ATOM     26  C   UNL     1      -3.634  -7.114   8.357  0.00  0.00    +0.003 C 
ATOM     27  C   UNL     1      -4.377  -8.284   7.664  0.00  0.00    +0.003 C 
ATOM     28  C   UNL     1      -4.920  -7.667   6.356  0.00  0.00    +0.035 C 
ATOM     29  N   UNL     1      -4.813  -5.228   5.953  0.00  0.00    -0.285 N 
ATOM     30  C   UNL     1      -4.607  -4.746   4.711  0.00  0.00    +0.309 C 
ATOM     31  O   UNL     1      -5.108  -3.721   4.292  0.00  0.00    -0.252 OA
ATOM     32  H   UNL     1      -5.367  -4.835   6.646  0.00  0.00    +0.151 HD
ENDBRANCH  20  21
ENDBRANCH  19  20
ENDBRANCH  18  19
ENDBRANCH   3  18
TORSDOF 5
