REMARK  Name = ZINC40221645
REMARK  4 active torsions:
REMARK  status: ('A' for Active; 'I' for Inactive)
REMARK    1  A    between atoms: C_6  and  C_7
REMARK    2  A    between atoms: C_7  and  C_8
REMARK    3  A    between atoms: N_10  and  C_11
REMARK    4  A    between atoms: C_11  and  C_18
REMARK                            x       y       z     vdW  Elec       q    Type
REMARK                         _______ _______ _______ _____ _____    ______ ____
ROOT
ATOM      1  C   UNL     1      -1.738  -1.024  -1.408  0.00  0.00    +0.218 C 
ATOM      2  O   UNL     1      -1.070  -0.616  -2.334  0.00  0.00    -0.275 OA
ATOM      3  N   UNL     1      -2.879  -1.701  -1.647  0.00  0.00    -0.297 N 
ATOM      4  H   UNL     1      -3.413  -2.027  -0.906  0.00  0.00    +0.150 HD
ENDROOT
BRANCH   3   5
ATOM      5  C   UNL     1      -3.312  -1.943  -3.025  0.00  0.00    +0.121 C 
ATOM      6  C   UNL     1      -2.272  -2.759  -3.745  0.00  0.00    +0.041 C 
ATOM      7  C   UNL     1      -2.164  -2.391  -5.238  0.00  0.00    +0.003 C 
ATOM      8  C   UNL     1      -3.538  -2.172  -5.900  0.00  0.00    +0.000 C 
ATOM      9  C   UNL     1      -4.555  -3.194  -5.468  0.00  0.00    +0.000 C 
ATOM     10  C   UNL     1      -5.355  -2.618  -4.282  0.00  0.00    +0.003 C 
ATOM     11  C   UNL     1      -4.637  -2.732  -3.021  0.00  0.00    +0.041 C 
BRANCH   5  12
ATOM     12  C   UNL     1      -3.504  -0.658  -3.716  0.00  0.00    +0.088 C 
ATOM     13  N   UNL     1      -3.652   0.334  -4.250  0.00  0.00    -0.194 NA
ENDBRANCH   5  12
ENDBRANCH   3   5
BRANCH   1  14
ATOM     14  C   UNL     1      -1.293  -0.775   0.010  0.00  0.00    +0.131 C 
BRANCH  14  20
ATOM     15  C   UNL     1      -0.017   1.378   0.010  0.00  0.00    +0.005 A 
ATOM     16  C   UNL     1       1.171   2.086   0.002  0.00  0.00    +0.015 A 
ATOM     17  C   UNL     1       2.378   1.411  -0.013  0.00  0.00    +0.018 A 
ATOM     18  C   UNL     1       2.396   0.027  -0.021  0.00  0.00    +0.015 A 
ATOM     19  C   UNL     1       1.208  -0.679  -0.013  0.00  0.00    +0.005 A 
ATOM     20  C   UNL     1       0.002  -0.004   0.002  0.00  0.00    -0.039 A 
ATOM     21 BR   UNL     1       4.003   2.378  -0.024  0.00  0.00    -0.050 Br
ENDBRANCH  14  20
ENDBRANCH   1  14
TORSDOF 4
