REMARK  Name = ZINC01437533
REMARK  11 active torsions:
REMARK  status: ('A' for Active; 'I' for Inactive)
REMARK    1  A    between atoms: C_1  and  C_2
REMARK    2  A    between atoms: C_2  and  O_3
REMARK    3  A    between atoms: O_3  and  C_4
REMARK    4  A    between atoms: C_9  and  C_10
REMARK    5  A    between atoms: C_15  and  C_20
REMARK    6  A    between atoms: C_22  and  O_30
REMARK    7  A    between atoms: C_23  and  O_28
REMARK    8  A    between atoms: C_24  and  O_26
REMARK    9  A    between atoms: O_26  and  C_27
REMARK   10  A    between atoms: O_28  and  C_29
REMARK   11  A    between atoms: O_30  and  C_31
REMARK                            x       y       z     vdW  Elec       q    Type
REMARK                         _______ _______ _______ _____ _____    ______ ____
ROOT
ATOM      1  C   UNL     1      -2.159   3.051   2.564  0.00  0.00    +0.139 C 
ATOM      2  C   UNL     1      -1.532   2.809   1.212  0.00  0.00    +0.037 C 
ATOM      3  C   UNL     1      -1.646   3.607   0.136  0.00  0.00    +0.017 C 
ATOM      4  C   UNL     1      -0.955   3.244  -1.168  0.00  0.00    +0.059 C 
ATOM      5  C   UNL     1      -0.897   1.726  -1.322  0.00  0.00    +0.032 C 
ATOM      6  C   UNL     1      -0.112   1.166  -0.130  0.00  0.00    +0.088 C 
ATOM      7  C   UNL     1      -0.777   1.613   1.138  0.00  0.00    +0.163 C 
ATOM      8  O   UNL     1      -0.667   0.923   2.132  0.00  0.00    -0.292 OA
ATOM      9  N   UNL     1      -2.344   4.770   0.107  0.00  0.00    -0.316 N 
ATOM     10  C   UNL     1      -3.631   4.939   0.608  0.00  0.00    +0.052 A 
ATOM     11  C   UNL     1      -4.697   5.298  -0.199  0.00  0.00    +0.025 A 
ATOM     12  C   UNL     1      -5.927   5.562   0.380  0.00  0.00    +0.002 A 
ATOM     13  C   UNL     1      -6.087   5.467   1.751  0.00  0.00    +0.002 A 
ATOM     14  C   UNL     1      -5.027   5.088   2.556  0.00  0.00    +0.025 A 
ATOM     15  C   UNL     1      -3.800   4.806   1.978  0.00  0.00    +0.049 A 
ATOM     16  N   UNL     1      -2.716   4.375   2.741  0.00  0.00    -0.331 N 
ATOM     17  H   UNL     1      -1.914   5.542  -0.293  0.00  0.00    +0.152 HD
ATOM     18  H   UNL     1      -2.329   4.972   3.401  0.00  0.00    +0.147 HD
ENDROOT
BRANCH   1  24
ATOM     19  C   UNL     1      -3.757   1.805   4.041  0.00  0.00    +0.126 A 
ATOM     20  C   UNL     1      -4.769   0.874   4.226  0.00  0.00    +0.046 A 
ATOM     21  C   UNL     1      -5.276   0.182   3.143  0.00  0.00    +0.004 A 
ATOM     22  C   UNL     1      -4.776   0.418   1.875  0.00  0.00    +0.001 A 
ATOM     23  C   UNL     1      -3.771   1.349   1.688  0.00  0.00    +0.009 A 
ATOM     24  C   UNL     1      -3.257   2.040   2.769  0.00  0.00    +0.019 A 
BRANCH  19  25
ATOM     25  O   UNL     1      -3.257   2.487   5.105  0.00  0.00    -0.492 OA
BRANCH  25  27
ATOM     26  C   UNL     1      -3.135   3.053   7.452  0.00  0.00    +0.048 C 
ATOM     27  C   UNL     1      -3.820   2.194   6.386  0.00  0.00    +0.225 C 
ENDBRANCH  25  27
ENDBRANCH  19  25
ENDBRANCH   1  24
BRANCH   5  28
ATOM     28  C   UNL     1      -0.197   1.369  -2.607  0.00  0.00    -0.036 A 
ATOM     29  C   UNL     1       1.095   1.808  -2.834  0.00  0.00    +0.053 A 
ATOM     30  C   UNL     1       1.744   1.477  -4.013  0.00  0.00    +0.165 A 
ATOM     31  C   UNL     1       1.092   0.714  -4.973  0.00  0.00    +0.204 A 
ATOM     32  C   UNL     1      -0.209   0.279  -4.745  0.00  0.00    +0.165 A 
ATOM     33  C   UNL     1      -0.849   0.609  -3.560  0.00  0.00    +0.053 A 
BRANCH  32  34
ATOM     34  O   UNL     1      -0.852  -0.468  -5.681  0.00  0.00    -0.491 OA
ATOM     35  C   UNL     1      -2.186  -0.880  -5.379  0.00  0.00    +0.277 C 
ENDBRANCH  32  34
BRANCH  31  36
ATOM     36  O   UNL     1       1.724   0.392  -6.135  0.00  0.00    -0.488 OA
ATOM     37  C   UNL     1       1.576   1.300  -7.228  0.00  0.00    +0.277 C 
ENDBRANCH  31  36
BRANCH  30  38
ATOM     38  O   UNL     1       3.017   1.905  -4.232  0.00  0.00    -0.491 OA
ATOM     39  C   UNL     1       3.626   2.685  -3.202  0.00  0.00    +0.277 C 
ENDBRANCH  30  38
ENDBRANCH   5  28
TORSDOF 7
