REMARK  Name = ZINC01189688
REMARK  4 active torsions:
REMARK  status: ('A' for Active; 'I' for Inactive)
REMARK    1  A    between atoms: C_4  and  C_7
REMARK    2  A    between atoms: N_10  and  C_11
REMARK    3  A    between atoms: C_14  and  S_17
REMARK    4  A    between atoms: S_17  and  N_20
REMARK                            x       y       z     vdW  Elec       q    Type
REMARK                         _______ _______ _______ _____ _____    ______ ____
ROOT
ATOM      1  C   UNL     1      -2.704   3.772   1.094  0.00  0.00    +0.139 C 
ATOM      2  C   UNL     1      -1.416   3.011   0.889  0.00  0.00    +0.065 C 
ATOM      3  N   UNL     1      -1.208   2.064   0.019  0.00  0.00    -0.251 NA
ATOM      4  C   UNL     1      -0.437   3.541   1.852  0.00  0.00    +0.008 A 
ATOM      5  C   UNL     1       0.899   3.195   2.080  0.00  0.00    +0.010 A 
ATOM      6  C   UNL     1       1.626   3.845   3.055  0.00  0.00    +0.001 A 
ATOM      7  C   UNL     1       1.043   4.846   3.816  0.00  0.00    +0.001 A 
ATOM      8  C   UNL     1      -0.273   5.205   3.609  0.00  0.00    +0.012 A 
ATOM      9  C   UNL     1      -1.030   4.558   2.626  0.00  0.00    +0.027 A 
ATOM     10  C   UNL     1      -2.428   4.749   2.212  0.00  0.00    +0.177 C 
ATOM     11  O   UNL     1      -3.213   5.547   2.679  0.00  0.00    -0.291 OA
ENDROOT
BRANCH   1  15
ATOM     12  C   UNL     1      -3.762   5.866  -2.476  0.00  0.00    +0.000 A 
ATOM     13  C   UNL     1      -4.619   4.917  -1.952  0.00  0.00    +0.000 A 
ATOM     14  C   UNL     1      -4.276   4.239  -0.797  0.00  0.00    +0.005 A 
ATOM     15  C   UNL     1      -3.077   4.511  -0.166  0.00  0.00    -0.031 A 
ATOM     16  C   UNL     1      -2.222   5.465  -0.687  0.00  0.00    +0.005 A 
ATOM     17  C   UNL     1      -2.562   6.138  -1.845  0.00  0.00    +0.000 A 
ENDBRANCH   1  15
BRANCH   3  18
ATOM     18  C   UNL     1      -0.034   1.363   0.038  0.00  0.00    +0.064 A 
ATOM     19  C   UNL     1       0.871   1.482  -1.020  0.00  0.00    +0.029 A 
ATOM     20  C   UNL     1       2.051   0.768  -0.997  0.00  0.00    +0.030 A 
ATOM     21  C   UNL     1       2.339  -0.064   0.070  0.00  0.00    +0.105 A 
ATOM     22  C   UNL     1       1.447  -0.187   1.121  0.00  0.00    +0.030 A 
ATOM     23  C   UNL     1       0.264   0.521   1.112  0.00  0.00    +0.029 A 
BRANCH  21  24
ATOM     24  S   UNL     1       3.849  -0.973   0.091  0.00  0.00    +0.056 S 
ATOM     25  O   UNL     1       4.758  -0.269  -0.744  0.00  0.00    -0.153 OA
ATOM     26  O   UNL     1       4.131  -1.259   1.454  0.00  0.00    -0.153 OA
BRANCH  24  27
ATOM     27  N   UNL     1       3.556  -2.426  -0.647  0.00  0.00    -0.204 NA
ATOM     28  H   UNL     1       2.671  -2.626  -0.990  0.00  0.00    +0.144 HD
ATOM     29  H   UNL     1       4.270  -3.076  -0.737  0.00  0.00    +0.144 HD
ENDBRANCH  24  27
ENDBRANCH  21  24
ENDBRANCH   3  18
TORSDOF 4
