REMARK  Name = ZINC36624781
REMARK  4 active torsions:
REMARK  status: ('A' for Active; 'I' for Inactive)
REMARK    1  A    between atoms: C_1  and  C_2
REMARK    2  A    between atoms: C_5  and  O_26
REMARK    3  A    between atoms: C_6  and  N_8
REMARK    4  A    between atoms: C_14  and  C_15
REMARK                            x       y       z     vdW  Elec       q    Type
REMARK                         _______ _______ _______ _____ _____    ______ ____
ROOT
ATOM      1  N   UNL     1      -0.104  -2.809   2.420  0.00  0.00    -0.293 N 
ATOM      2  C   UNL     1      -0.027  -2.137   3.614  0.00  0.00    +0.156 C 
ATOM      3  N   UNL     1      -0.319  -0.871   3.865  0.00  0.00    -0.154 NA
ATOM      4  C   UNL     1      -0.201  -0.346   5.065  0.00  0.00    +0.276 C 
ATOM      5  O   UNL     1      -0.474   0.824   5.285  0.00  0.00    -0.267 OA
ATOM      6  C   UNL     1       0.279  -1.247   6.133  0.00  0.00    +0.079 C 
ATOM      7  C   UNL     1       0.498  -0.995   7.453  0.00  0.00    +0.030 C 
ATOM      8  S   UNL     1       0.484  -2.763   5.207  0.00  0.00    -0.051 S 
ATOM      9  H   UNL     1       0.073  -3.762   2.387  0.00  0.00    +0.154 HD
ENDROOT
BRANCH   7  10
ATOM     10  C   UNL     1       0.409   0.373   7.961  0.00  0.00    +0.001 A 
ATOM     11  C   UNL     1       0.856   1.508   7.342  0.00  0.00    +0.091 A 
ATOM     12  N   UNL     1       0.597   2.587   8.121  0.00  0.00    -0.360 N 
ATOM     13  H   UNL     1       0.821   3.502   7.892  0.00  0.00    +0.165 HD
ATOM     14  C   UNL     1      -0.033   2.199   9.287  0.00  0.00    +0.047 A 
ATOM     15  C   UNL     1      -0.186   0.804   9.241  0.00  0.00    +0.007 A 
ATOM     16  C   UNL     1      -0.802   0.134  10.294  0.00  0.00    +0.010 A 
ATOM     17  C   UNL     1      -1.264   0.847  11.379  0.00  0.00    +0.001 A 
ATOM     18  C   UNL     1      -1.117   2.225  11.425  0.00  0.00    +0.002 A 
ATOM     19  C   UNL     1      -0.501   2.900  10.393  0.00  0.00    +0.026 A 
ENDBRANCH   7  10
BRANCH   1  25
ATOM     20  C   UNL     1      -1.599   1.331   0.229  0.00  0.00    +0.044 C 
ATOM     21  C   UNL     1      -1.167  -0.111   0.156  0.00  0.00    -0.048 A 
ATOM     22  C   UNL     1      -1.100  -0.750  -1.068  0.00  0.00    +0.007 A 
ATOM     23  C   UNL     1      -0.703  -2.073  -1.141  0.00  0.00    +0.047 A 
ATOM     24  C   UNL     1      -0.371  -2.761   0.015  0.00  0.00    +0.138 A 
ATOM     25  C   UNL     1      -0.438  -2.118   1.248  0.00  0.00    +0.075 A 
ATOM     26  C   UNL     1      -0.832  -0.789   1.313  0.00  0.00    +0.030 A 
BRANCH  24  27
ATOM     27  O   UNL     1       0.018  -4.062  -0.055  0.00  0.00    -0.505 OA
ATOM     28  H   UNL     1       0.971  -4.182  -0.164  0.00  0.00    +0.292 HD
ENDBRANCH  24  27
ENDBRANCH   1  25
TORSDOF 3
