REMARK  Name = ZINC23431759
REMARK  6 active torsions:
REMARK  status: ('A' for Active; 'I' for Inactive)
REMARK    1  A    between atoms: C_1  and  C_2
REMARK    2  A    between atoms: C_2  and  C_3
REMARK    3  A    between atoms: C_3  and  C_26
REMARK    4  A    between atoms: N_5  and  C_9
REMARK    5  A    between atoms: C_18  and  O_20
REMARK    6  A    between atoms: C_26  and  C_27
REMARK                            x       y       z     vdW  Elec       q    Type
REMARK                         _______ _______ _______ _____ _____    ______ ____
ROOT
ATOM      1  C   UNL     1      -1.685  -0.501   0.015  0.00  0.00    +0.117 C 
ATOM      2  C   UNL     1      -0.342   0.151  -0.236  0.00  0.00    -0.024 A 
ATOM      3  C   UNL     1       0.928  -0.399  -0.281  0.00  0.00    +0.005 A 
ATOM      4  C   UNL     1       2.025   0.402  -0.530  0.00  0.00    +0.000 A 
ATOM      5  C   UNL     1       1.855   1.758  -0.737  0.00  0.00    +0.000 A 
ATOM      6  C   UNL     1       0.590   2.310  -0.691  0.00  0.00    +0.004 A 
ATOM      7  C   UNL     1      -0.512   1.508  -0.442  0.00  0.00    -0.034 A 
ATOM      8  C   UNL     1      -1.979   1.854  -0.349  0.00  0.00    +0.020 C 
ATOM      9  C   UNL     1      -2.730   0.520  -0.485  0.00  0.00    +0.146 C 
ATOM     10  C   UNL     1      -2.376   2.802  -1.478  0.00  0.00    -0.005 C 
ATOM     11  C   UNL     1      -3.858   3.161  -1.340  0.00  0.00    -0.082 C 
ATOM     12  N   UNL     1      -4.093   3.780  -0.030  0.00  0.00    +0.379 N 
ATOM     13  C   UNL     1      -3.776   2.851   1.063  0.00  0.00    -0.082 C 
ATOM     14  C   UNL     1      -2.291   2.483   1.006  0.00  0.00    -0.005 C 
ATOM     15  H   UNL     1      -3.457   4.672   0.074  0.00  0.00    -0.086 HD
ATOM     16  H   UNL     1      -5.150   4.072   0.054  0.00  0.00    -0.086 HD
ENDROOT
BRANCH   1  19
ATOM     17  C   UNL     1      -3.364  -1.521   3.229  0.00  0.00    +0.082 C 
ATOM     18  C   UNL     1      -3.194  -1.328   1.720  0.00  0.00    +0.120 C 
ATOM     19  N   UNL     1      -1.867  -0.755   1.451  0.00  0.00    -0.288 NA
ATOM     20  C   UNL     1      -0.807  -1.631   1.970  0.00  0.00    +0.113 C 
ATOM     21  C   UNL     1      -1.000  -1.820   3.476  0.00  0.00    +0.176 C 
ATOM     22  O   UNL     1      -2.307  -2.349   3.721  0.00  0.00    -0.371 OA
BRANCH  17  24
ATOM     23  C   UNL     1      -5.844  -1.265   3.064  0.00  0.00    +0.007 C 
ATOM     24  C   UNL     1      -4.711  -2.191   3.510  0.00  0.00    +0.033 C 
ENDBRANCH  17  24
BRANCH  17  25
ATOM     25  C   UNL     1      -3.315  -0.160   3.928  0.00  0.00    +0.033 C 
ATOM     26  C   UNL     1      -3.486  -0.355   5.436  0.00  0.00    +0.007 C 
ENDBRANCH  17  25
ENDBRANCH   1  19
BRANCH   9  27
ATOM     27  O   UNL     1      -3.071   0.271  -1.850  0.00  0.00    -0.389 OA
ATOM     28  H   UNL     1      -3.806   0.912  -2.360  0.00  0.00    +0.210 HD
ENDBRANCH   9  27
TORSDOF 4
