REMARK  Name = ZINC33663383
REMARK  17 active torsions:
REMARK  status: ('A' for Active; 'I' for Inactive)
REMARK    1  A    between atoms: C_1  and  C_2
REMARK    2  A    between atoms: C_2  and  N_3
REMARK    3  A    between atoms: N_3  and  C_4
REMARK    4  A    between atoms: N_3  and  C_6
REMARK    5  A    between atoms: C_4  and  C_5
REMARK    6  A    between atoms: C_6  and  C_7
REMARK    7  A    between atoms: C_7  and  C_8
REMARK    8  A    between atoms: C_8  and  C_9
REMARK    9  A    between atoms: C_9  and  C_11
REMARK   10  A    between atoms: C_9  and  N_12
REMARK   11  A    between atoms: C_13  and  C_15
REMARK   12  A    between atoms: C_18  and  C_20
REMARK   13  A    between atoms: C_20  and  S_21
REMARK   14  A    between atoms: S_21  and  C_22
REMARK   15  A    between atoms: C_25  and  C_33
REMARK   16  A    between atoms: N_26  and  C_27
REMARK   17  A    between atoms: C_33  and  C_34
REMARK                            x       y       z     vdW  Elec       q    Type
REMARK                         _______ _______ _______ _____ _____    ______ ____
ROOT
ATOM      1  C   UNL     1      -3.877  -2.648  10.359  0.00  0.00    +0.164 A 
ATOM      2  C   UNL     1      -4.958  -3.346   9.916  0.00  0.00    +0.230 A 
ATOM      3  O   UNL     1      -5.438  -2.688   8.849  0.00  0.00    -0.446 OA
ATOM      4  C   UNL     1      -4.669  -1.609   8.641  0.00  0.00    +0.206 A 
ATOM      5  N   UNL     1      -3.727  -1.576   9.535  0.00  0.00    -0.208 NA
ENDROOT
BRANCH   1   7
ATOM      6  N   UNL     1      -1.981  -2.204  11.838  0.00  0.00    -0.307 N 
ATOM      7  C   UNL     1      -3.025  -2.992  11.512  0.00  0.00    +0.266 C 
ATOM      8  O   UNL     1      -3.264  -3.987  12.170  0.00  0.00    -0.268 OA
ATOM      9  H   UNL     1      -1.765  -1.305  11.243  0.00  0.00    +0.149 HD
BRANCH   6  10
ATOM     10  C   UNL     1      -1.135  -2.546  12.984  0.00  0.00    +0.070 C 
ATOM     11  C   UNL     1      -1.763  -1.993  14.265  0.00  0.00    +0.028 C 
BRANCH  10  12
ATOM     12  C   UNL     1       0.255  -1.935  12.792  0.00  0.00    +0.020 C 
BRANCH  12  13
ATOM     13  C   UNL     1       0.933  -2.579  11.581  0.00  0.00    -0.017 C 
BRANCH  13  14
ATOM     14  C   UNL     1       2.322  -1.968  11.389  0.00  0.00    -0.079 C 
BRANCH  14  15
ATOM     15  N   UNL     1       2.973  -2.587  10.227  0.00  0.00    +0.379 N 
ATOM     16  H   UNL     1       2.926  -3.678  10.354  0.00  0.00    -0.082 HD
BRANCH  15  18
ATOM     17  C   UNL     1       2.289  -0.729   8.785  0.00  0.00    -0.017 C 
ATOM     18  C   UNL     1       2.267  -2.246   8.985  0.00  0.00    -0.082 C 
ENDBRANCH  15  18
BRANCH  15  19
ATOM     19  C   UNL     1       4.389  -2.202  10.150  0.00  0.00    -0.082 C 
ATOM     20  C   UNL     1       5.122  -3.144   9.193  0.00  0.00    -0.017 C 
ENDBRANCH  15  19
ENDBRANCH  14  15
ENDBRANCH  13  14
ENDBRANCH  12  13
ENDBRANCH  10  12
ENDBRANCH   6  10
ENDBRANCH   1   7
BRANCH   4  21
ATOM     21  C   UNL     1      -4.863  -0.599   7.539  0.00  0.00    +0.173 C 
BRANCH  21  22
ATOM     22  S   UNL     1      -3.929  -1.114   6.077  0.00  0.00    -0.076 S 
BRANCH  22  23
ATOM     23  C   UNL     1      -4.324   0.208   4.981  0.00  0.00    +0.197 A 
ATOM     24  N   UNL     1      -5.094   1.238   5.245  0.00  0.00    -0.122 NA
ATOM     25  N   UNL     1      -5.163   2.007   4.218  0.00  0.00    -0.133 NA
ATOM     26  C   UNL     1      -4.449   1.520   3.243  0.00  0.00    +0.143 A 
ATOM     27  N   UNL     1      -3.891   0.352   3.691  0.00  0.00    -0.274 N 
BRANCH  27  28
ATOM     28  C   UNL     1      -3.050  -0.514   2.977  0.00  0.00    +0.050 A 
ATOM     29  C   UNL     1      -3.532  -1.193   1.867  0.00  0.00    +0.026 A 
ATOM     30  C   UNL     1      -2.699  -2.041   1.162  0.00  0.00    +0.002 A 
ATOM     31  C   UNL     1      -1.391  -2.223   1.570  0.00  0.00    +0.000 A 
ATOM     32  C   UNL     1      -0.909  -1.551   2.679  0.00  0.00    +0.002 A 
ATOM     33  C   UNL     1      -1.736  -0.698   3.383  0.00  0.00    +0.026 A 
ENDBRANCH  27  28
BRANCH  26  34
ATOM     34  C   UNL     1      -4.274   2.126   1.874  0.00  0.00    +0.111 C 
BRANCH  34  35
ATOM     35  C   UNL     1      -3.086   3.053   1.884  0.00  0.00    -0.040 A 
ATOM     36  C   UNL     1      -1.828   2.568   1.576  0.00  0.00    +0.004 A 
ATOM     37  C   UNL     1      -0.739   3.419   1.579  0.00  0.00    +0.000 A 
ATOM     38  C   UNL     1      -0.906   4.754   1.895  0.00  0.00    +0.000 A 
ATOM     39  C   UNL     1      -2.163   5.238   2.208  0.00  0.00    +0.000 A 
ATOM     40  C   UNL     1      -3.252   4.387   2.205  0.00  0.00    +0.004 A 
ENDBRANCH  34  35
ENDBRANCH  26  34
ENDBRANCH  22  23
ENDBRANCH  21  22
ENDBRANCH   4  21
TORSDOF 14
