REMARK  Name = ZINC38980595
REMARK  6 active torsions:
REMARK  status: ('A' for Active; 'I' for Inactive)
REMARK    1  A    between atoms: C_1  and  C_2
REMARK    2  A    between atoms: C_2  and  C_3
REMARK    3  A    between atoms: C_6  and  N_9
REMARK    4  A    between atoms: N_9  and  C_10
REMARK    5  A    between atoms: N_13  and  S_14
REMARK    6  A    between atoms: S_14  and  C_17
REMARK                            x       y       z     vdW  Elec       q    Type
REMARK                         _______ _______ _______ _____ _____    ______ ____
ROOT
ATOM      1  C   UNL     1       4.116  -1.959  -4.674  0.00  0.00    +0.237 C 
ATOM      2  C   UNL     1       4.461  -3.277  -5.331  0.00  0.00    +0.192 C 
ATOM      3  N   UNL     1       4.000  -4.394  -4.850  0.00  0.00    -0.110 NA
ATOM      4  N   UNL     1       5.249  -3.276  -6.418  0.00  0.00    -0.226 NA
ATOM      5  C   UNL     1       5.727  -2.159  -6.923  0.00  0.00    +0.089 A 
ATOM      6  C   UNL     1       6.557  -2.195  -8.073  0.00  0.00    +0.030 A 
ATOM      7  C   UNL     1       7.050  -1.052  -8.596  0.00  0.00    +0.002 A 
ATOM      8  C   UNL     1       6.780   0.213  -8.048  0.00  0.00    +0.002 A 
ATOM      9  C   UNL     1       6.002   0.361  -6.953  0.00  0.00    +0.027 A 
ATOM     10  C   UNL     1       5.425  -0.836  -6.324  0.00  0.00    +0.063 A 
ATOM     11  N   UNL     1       4.668  -0.731  -5.268  0.00  0.00    -0.359 N 
ATOM     12  H   UNL     1       4.474   0.137  -4.881  0.00  0.00    +0.162 HD
ENDROOT
BRANCH   3  13
ATOM     13  S   UNL     1       4.386  -5.830  -5.579  0.00  0.00    +0.103 S 
ATOM     14  O   UNL     1       3.775  -5.811  -6.862  0.00  0.00    -0.146 OA
ATOM     15  O   UNL     1       5.784  -6.012  -5.404  0.00  0.00    -0.146 OA
BRANCH  13  16
ATOM     16  C   UNL     1       3.593  -7.109  -4.662  0.00  0.00    +0.141 A 
ATOM     17  C   UNL     1       2.625  -7.856  -5.243  0.00  0.00    +0.031 A 
ATOM     18  C   UNL     1       1.976  -8.876  -4.548  0.00  0.00    +0.004 A 
ATOM     19  C   UNL     1       2.286  -9.164  -3.262  0.00  0.00    +0.031 A 
ATOM     20  C   UNL     1       3.292  -8.421  -2.588  0.00  0.00    +0.102 A 
ATOM     21  C   UNL     1       3.975  -7.358  -3.316  0.00  0.00    +0.127 A 
ATOM     22  N   UNL     1       4.901  -6.734  -2.588  0.00  0.00    -0.189 NA
ATOM     23  S   UNL     1       4.879  -7.453  -1.149  0.00  0.00    +0.117 S 
ATOM     24  N   UNL     1       3.727  -8.561  -1.335  0.00  0.00    -0.191 NA
ENDBRANCH  13  16
ENDBRANCH   3  13
BRANCH   1  25
ATOM     25  N   UNL     1       2.656  -1.833  -4.663  0.00  0.00    -0.318 N 
ATOM     26  H   UNL     1       2.152  -1.962  -5.482  0.00  0.00    +0.148 HD
BRANCH  25  30
ATOM     27  C   UNL     1       0.671  -0.921  -1.119  0.00  0.00    -0.048 A 
ATOM     28  C   UNL     1       2.052  -0.871  -1.169  0.00  0.00    +0.005 A 
ATOM     29  C   UNL     1       2.714  -1.173  -2.343  0.00  0.00    +0.023 A 
ATOM     30  C   UNL     1       1.990  -1.528  -3.474  0.00  0.00    +0.029 A 
ATOM     31  C   UNL     1       0.603  -1.577  -3.421  0.00  0.00    +0.023 A 
ATOM     32  C   UNL     1      -0.052  -1.279  -2.242  0.00  0.00    +0.005 A 
BRANCH  27  34
ATOM     33  C   UNL     1      -0.220  -1.864   0.994  0.00  0.00    +0.009 C 
ATOM     34  C   UNL     1      -0.047  -0.591   0.164  0.00  0.00    +0.032 C 
ENDBRANCH  27  34
ENDBRANCH  25  30
ENDBRANCH   1  25
TORSDOF 5
