REMARK  Name = ZINC19219606
REMARK  7 active torsions:
REMARK  status: ('A' for Active; 'I' for Inactive)
REMARK    1  A    between atoms: C_1  and  C_2
REMARK    2  A    between atoms: C_10  and  C_34
REMARK    3  A    between atoms: C_11  and  C_12
REMARK    4  A    between atoms: C_12  and  C_14
REMARK    5  A    between atoms: C_12  and  O_33
REMARK    6  A    between atoms: C_14  and  N_15
REMARK    7  A    between atoms: C_22  and  O_32
REMARK                            x       y       z     vdW  Elec       q    Type
REMARK                         _______ _______ _______ _____ _____    ______ ____
ROOT
ATOM      1  N   UNL     1      -0.781   1.555   1.190  0.00  0.00    +0.382 N 
ATOM      2  C   UNL     1      -2.222   1.342   1.002  0.00  0.00    -0.075 C 
ATOM      3  C   UNL     1      -2.993   2.027   2.133  0.00  0.00    +0.029 C 
ATOM      4  C   UNL     1      -2.540   1.449   3.476  0.00  0.00    +0.110 C 
ATOM      5  C   UNL     1      -1.029   1.636   3.626  0.00  0.00    +0.029 C 
ATOM      6  C   UNL     1      -0.316   0.963   2.451  0.00  0.00    -0.075 C 
ATOM      7  C   UNL     1      -3.262   2.177   4.614  0.00  0.00    +0.084 C 
ATOM      8  C   UNL     1      -2.717   1.653   5.945  0.00  0.00    +0.152 C 
ATOM      9  C   UNL     1      -2.698   0.146   5.928  0.00  0.00    +0.024 A 
ATOM     10  C   UNL     1      -2.605  -0.533   7.131  0.00  0.00    +0.029 A 
ATOM     11  C   UNL     1      -2.577  -1.915   7.152  0.00  0.00    +0.042 A 
ATOM     12  C   UNL     1      -2.640  -2.625   5.967  0.00  0.00    +0.023 A 
ATOM     13  C   UNL     1      -2.734  -1.953   4.765  0.00  0.00    +0.047 A 
ATOM     14  C   UNL     1      -2.766  -0.562   4.741  0.00  0.00    +0.127 A 
ATOM     15  O   UNL     1      -2.866   0.062   3.539  0.00  0.00    -0.485 OA
ATOM     16 CL   UNL     1      -2.462  -2.758   8.665  0.00  0.00    -0.084 Cl
ATOM     17  H   UNL     1      -0.608   2.640   1.246  0.00  0.00    -0.082 HD
ENDROOT
BRANCH   8  18
ATOM     18  O   UNL     1      -3.551   2.106   7.013  0.00  0.00    -0.387 OA
ATOM     19  H   UNL     1      -3.316   1.828   8.051  0.00  0.00    +0.210 HD
ENDBRANCH   8  18
BRANCH   1  20
ATOM     20  C   UNL     1      -0.018   1.032   0.049  0.00  0.00    -0.042 C 
BRANCH  20  21
ATOM     21  C   UNL     1      -0.591   1.600  -1.251  0.00  0.00    +0.130 C 
BRANCH  21  32
ATOM     22  C   UNL     1       5.332   2.023  -4.729  0.00  0.00    +0.044 C 
ATOM     23  C   UNL     1       3.994   1.830  -4.062  0.00  0.00    -0.048 A 
ATOM     24  C   UNL     1       3.672   2.580  -2.938  0.00  0.00    +0.004 A 
ATOM     25  C   UNL     1       2.464   2.418  -2.320  0.00  0.00    +0.010 A 
ATOM     26  C   UNL     1       1.544   1.497  -2.824  0.00  0.00    +0.005 A 
ATOM     27  C   UNL     1       1.869   0.731  -3.958  0.00  0.00    +0.047 A 
ATOM     28  C   UNL     1       3.104   0.911  -4.572  0.00  0.00    +0.029 A 
ATOM     29  N   UNL     1       0.791  -0.085  -4.219  0.00  0.00    -0.358 N 
ATOM     30  H   UNL     1       0.819  -0.777  -5.074  0.00  0.00    +0.166 HD
ATOM     31  C   UNL     1      -0.192   0.133  -3.293  0.00  0.00    +0.019 A 
ATOM     32  C   UNL     1       0.201   1.074  -2.420  0.00  0.00    +0.007 A 
ATOM     33  C   UNL     1      -1.521  -0.578  -3.258  0.00  0.00    +0.063 C 
ENDBRANCH  21  32
BRANCH  21  34
ATOM     34  O   UNL     1      -0.510   3.026  -1.224  0.00  0.00    -0.389 OA
ATOM     35  H   UNL     1      -1.028   3.591  -0.436  0.00  0.00    +0.210 HD
ENDBRANCH  21  34
ENDBRANCH  20  21
ENDBRANCH   1  20
TORSDOF 5
