REMARK  Name = ZINC02328978
REMARK  8 active torsions:
REMARK  status: ('A' for Active; 'I' for Inactive)
REMARK    1  A    between atoms: C_1  and  C_2
REMARK    2  A    between atoms: C_2  and  N_3
REMARK    3  A    between atoms: C_7  and  C_8
REMARK    4  A    between atoms: C_9  and  N_19
REMARK    5  A    between atoms: C_25  and  C_27
REMARK    6  A    between atoms: C_27  and  C_28
REMARK    7  A    between atoms: C_28  and  O_30
REMARK    8  A    between atoms: O_30  and  C_31
REMARK                            x       y       z     vdW  Elec       q    Type
REMARK                         _______ _______ _______ _____ _____    ______ ____
ROOT
ATOM      1  C   UNL     1       2.168   5.499   0.888  0.00  0.00    +0.081 A 
ATOM      2  C   UNL     1       2.127   4.169   0.406  0.00  0.00    +0.137 A 
ATOM      3  N   UNL     1       3.192   3.658  -0.193  0.00  0.00    -0.214 NA
ATOM      4  C   UNL     1       4.307   4.369  -0.364  0.00  0.00    +0.142 A 
ATOM      5  C   UNL     1       5.405   3.775  -1.013  0.00  0.00    +0.047 A 
ATOM      6  C   UNL     1       6.550   4.493  -1.189  0.00  0.00    +0.005 A 
ATOM      7  C   UNL     1       6.618   5.812  -0.722  0.00  0.00    +0.018 A 
ATOM      8  C   UNL     1       5.554   6.367  -0.100  0.00  0.00    +0.096 A 
ATOM      9  N   UNL     1       4.404   5.658   0.081  0.00  0.00    -0.268 N 
ATOM     10  C   UNL     1       3.358   6.243   0.705  0.00  0.00    +0.267 A 
ATOM     11  O   UNL     1       3.438   7.392   1.104  0.00  0.00    -0.267 OA
ENDROOT
BRANCH   1  16
ATOM     12  N   UNL     1      -1.175   8.860   0.703  0.00  0.00    -0.256 N 
ATOM     13  C   UNL     1      -0.695   7.892   1.464  0.00  0.00    +0.258 C 
ATOM     14  O   UNL     1      -1.157   7.678   2.571  0.00  0.00    -0.269 OA
ATOM     15  C   UNL     1       0.381   7.110   0.956  0.00  0.00    +0.077 C 
ATOM     16  C   UNL     1       1.048   6.070   1.536  0.00  0.00    +0.037 C 
ATOM     17  S   UNL     1       0.614   7.854  -0.653  0.00  0.00    -0.061 S 
ATOM     18  C   UNL     1      -0.667   9.093  -0.528  0.00  0.00    +0.121 C 
ATOM     19  S   UNL     1      -1.134  10.274  -1.677  0.00  0.00    -0.027 S 
BRANCH  12  21
ATOM     20  C   UNL     1      -3.611   9.051   0.804  0.00  0.00    +0.025 C 
ATOM     21  C   UNL     1      -2.277   9.689   1.198  0.00  0.00    +0.111 C 
ENDBRANCH  12  21
ENDBRANCH   1  16
BRANCH   2  22
ATOM     22  N   UNL     1       0.988   3.409   0.564  0.00  0.00    -0.301 N 
ATOM     23  C   UNL     1       0.111   3.522  -0.613  0.00  0.00    +0.126 C 
ATOM     24  C   UNL     1      -1.254   2.925  -0.268  0.00  0.00    +0.123 C 
ATOM     25  N   UNL     1      -1.084   1.595   0.311  0.00  0.00    -0.312 N 
ATOM     26  C   UNL     1       0.074   1.169   0.826  0.00  0.00    +0.234 C 
ATOM     27  O   UNL     1       0.118   0.062   1.320  0.00  0.00    -0.274 OA
ATOM     28  C   UNL     1       1.325   2.001   0.811  0.00  0.00    +0.171 C 
ATOM     29  H   UNL     1      -1.847   0.996   0.328  0.00  0.00    +0.149 HD
BRANCH  28  30
ATOM     30  C   UNL     1       2.033   1.878   2.162  0.00  0.00    +0.152 C 
BRANCH  30  31
ATOM     31  C   UNL     1       1.137   2.415   3.249  0.00  0.00    +0.309 C 
ATOM     32  O   UNL     1       0.016   2.777   2.983  0.00  0.00    -0.251 OA
BRANCH  31  33
ATOM     33  O   UNL     1       1.586   2.491   4.512  0.00  0.00    -0.468 OA
ATOM     34  C   UNL     1       0.634   2.908   5.526  0.00  0.00    +0.280 C 
ENDBRANCH  31  33
ENDBRANCH  30  31
ENDBRANCH  28  30
ENDBRANCH   2  22
TORSDOF 6
