REMARK  Name = ZINC15051194
REMARK  7 active torsions:
REMARK  status: ('A' for Active; 'I' for Inactive)
REMARK    1  A    between atoms: C_1  and  O_2
REMARK    2  A    between atoms: O_2  and  C_3
REMARK    3  A    between atoms: C_6  and  C_9
REMARK    4  A    between atoms: N_13  and  C_17
REMARK    5  A    between atoms: N_22  and  C_25
REMARK    6  A    between atoms: C_28  and  S_31
REMARK    7  A    between atoms: S_31  and  N_34
REMARK                            x       y       z     vdW  Elec       q    Type
REMARK                         _______ _______ _______ _____ _____    ______ ____
ROOT
ATOM      1  C   UNL     1      -7.195  -7.102  -0.410  0.00  0.00    +0.178 C 
ATOM      2  C   UNL     1      -6.794  -7.907  -1.662  0.00  0.00    +0.129 C 
ATOM      3  C   UNL     1      -6.628  -9.317  -1.139  0.00  0.00    +0.228 C 
ATOM      4  O   UNL     1      -6.313 -10.281  -1.804  0.00  0.00    -0.275 OA
ATOM      5  N   UNL     1      -6.885  -9.333   0.175  0.00  0.00    -0.209 N 
ATOM      6  C   UNL     1      -7.216  -8.139   0.692  0.00  0.00    +0.248 C 
ATOM      7  O   UNL     1      -7.488  -7.924   1.853  0.00  0.00    -0.273 OA
ENDROOT
BRANCH   1  12
ATOM      8  C   UNL     1      -5.627  -2.455   0.336  0.00  0.00    +0.028 C 
ATOM      9  C   UNL     1      -5.532  -3.804   0.223  0.00  0.00    +0.077 C 
ATOM     10  C   UNL     1      -6.582  -4.800  -0.071  0.00  0.00    +0.259 C 
ATOM     11  O   UNL     1      -7.740  -4.473  -0.257  0.00  0.00    -0.269 OA
ATOM     12  N   UNL     1      -6.200  -6.065  -0.123  0.00  0.00    -0.243 N 
ATOM     13  C   UNL     1      -4.917  -6.423   0.083  0.00  0.00    +0.121 C 
ATOM     14  S   UNL     1      -4.233  -7.993   0.057  0.00  0.00    -0.027 S 
ATOM     15  S   UNL     1      -4.101  -4.863   0.380  0.00  0.00    -0.061 S 
BRANCH   8  19
ATOM     16  C   UNL     1      -2.117  -0.108   0.724  0.00  0.00    +0.120 A 
ATOM     17  C   UNL     1      -2.015  -1.459   0.414  0.00  0.00    +0.046 A 
ATOM     18  C   UNL     1      -3.152  -2.226   0.287  0.00  0.00    +0.011 A 
ATOM     19  C   UNL     1      -4.411  -1.642   0.471  0.00  0.00    -0.024 A 
ATOM     20  C   UNL     1      -4.508  -0.281   0.784  0.00  0.00    +0.011 A 
ATOM     21  C   UNL     1      -3.364   0.476   0.913  0.00  0.00    +0.046 A 
BRANCH  16  23
ATOM     22  C   UNL     1       0.256  -0.018   0.641  0.00  0.00    +0.277 C 
ATOM     23  O   UNL     1      -0.993   0.644   0.849  0.00  0.00    -0.495 OA
ENDBRANCH  16  23
ENDBRANCH   8  19
ENDBRANCH   1  12
BRANCH   5  24
ATOM     24  C   UNL     1      -6.814 -10.500   0.948  0.00  0.00    +0.044 A 
ATOM     25  C   UNL     1      -5.861 -10.613   1.951  0.00  0.00    +0.026 A 
ATOM     26  C   UNL     1      -5.794 -11.764   2.712  0.00  0.00    +0.030 A 
ATOM     27  C   UNL     1      -6.675 -12.803   2.474  0.00  0.00    +0.105 A 
ATOM     28  C   UNL     1      -7.625 -12.694   1.476  0.00  0.00    +0.030 A 
ATOM     29  C   UNL     1      -7.701 -11.542   0.716  0.00  0.00    +0.026 A 
BRANCH  27  30
ATOM     30  S   UNL     1      -6.586 -14.271   3.446  0.00  0.00    +0.056 S 
ATOM     31  O   UNL     1      -7.163 -15.309   2.667  0.00  0.00    -0.153 OA
ATOM     32  O   UNL     1      -5.259 -14.344   3.950  0.00  0.00    -0.153 OA
BRANCH  30  33
ATOM     33  N   UNL     1      -7.578 -14.053   4.754  0.00  0.00    -0.204 NA
ATOM     34  H   UNL     1      -8.016 -14.816   5.162  0.00  0.00    +0.144 HD
ATOM     35  H   UNL     1      -7.721 -13.163   5.111  0.00  0.00    +0.144 HD
ENDBRANCH  30  33
ENDBRANCH  27  30
ENDBRANCH   5  24
TORSDOF 6
