REMARK  Name = ZINC23907575
REMARK  12 active torsions:
REMARK  status: ('A' for Active; 'I' for Inactive)
REMARK    1  A    between atoms: C_1  and  C_2
REMARK    2  A    between atoms: C_2  and  N_3
REMARK    3  A    between atoms: C_9  and  C_11
REMARK    4  A    between atoms: C_11  and  C_13
REMARK    5  A    between atoms: C_11  and  N_14
REMARK    6  A    between atoms: N_14  and  C_15
REMARK    7  A    between atoms: C_15  and  C_16
REMARK    8  A    between atoms: C_16  and  C_18
REMARK    9  A    between atoms: C_16  and  C_27
REMARK   10  A    between atoms: C_21  and  N_24
REMARK   11  A    between atoms: N_24  and  C_25
REMARK   12  A    between atoms: N_24  and  C_26
REMARK                            x       y       z     vdW  Elec       q    Type
REMARK                         _______ _______ _______ _____ _____    ______ ____
ROOT
ATOM      1  C   UNL     1      -3.957   5.991   1.139  0.00  0.00    +0.034 C 
ENDROOT
BRANCH   1   2
ATOM      2  C   UNL     1      -4.504   6.309  -0.229  0.00  0.00    -0.017 A 
ATOM      3  C   UNL     1      -4.003   7.196  -1.103  0.00  0.00    +0.087 A 
ATOM      4  N   UNL     1      -4.763   7.209  -2.241  0.00  0.00    -0.360 N 
ATOM      5  H   UNL     1      -4.494   7.876  -3.074  0.00  0.00    +0.165 HD
ATOM      6  C   UNL     1      -5.803   6.315  -2.120  0.00  0.00    +0.047 A 
ATOM      7  C   UNL     1      -5.686   5.712  -0.855  0.00  0.00    +0.003 A 
ATOM      8  C   UNL     1      -6.617   4.752  -0.453  0.00  0.00    +0.010 A 
ATOM      9  C   UNL     1      -7.637   4.402  -1.292  0.00  0.00    +0.001 A 
ATOM     10  C   UNL     1      -7.756   4.995  -2.541  0.00  0.00    +0.002 A 
ATOM     11  C   UNL     1      -6.849   5.945  -2.958  0.00  0.00    +0.026 A 
ENDBRANCH   1   2
BRANCH   1  12
ATOM     12  C   UNL     1      -3.955   7.241   1.982  0.00  0.00    -0.042 A 
ATOM     13  C   UNL     1      -3.222   8.342   1.580  0.00  0.00    +0.006 A 
ATOM     14  C   UNL     1      -3.223   9.491   2.347  0.00  0.00    +0.023 A 
ATOM     15  C   UNL     1      -3.952   9.535   3.529  0.00  0.00    +0.029 A 
ATOM     16  C   UNL     1      -4.683   8.424   3.932  0.00  0.00    +0.023 A 
ATOM     17  C   UNL     1      -4.682   7.281   3.157  0.00  0.00    +0.006 A 
BRANCH  15  18
ATOM     18  N   UNL     1      -3.950  10.693   4.310  0.00  0.00    -0.336 N 
ATOM     19  C   UNL     1      -4.720  10.737   5.556  0.00  0.00    +0.129 C 
ATOM     20  C   UNL     1      -3.179  11.863   3.883  0.00  0.00    +0.129 C 
ENDBRANCH  15  18
ENDBRANCH   1  12
BRANCH   1  21
ATOM     21  C   UNL     1      -2.527   5.463   1.007  0.00  0.00    -0.069 C 
BRANCH  21  22
ATOM     22  N   UNL     1      -2.542   4.183   0.287  0.00  0.00    +0.387 N 
ATOM     23  H   UNL     1      -2.982   4.342  -0.708  0.00  0.00    -0.085 HD
ATOM     24  H   UNL     1      -3.160   3.469   0.851  0.00  0.00    -0.085 HD
BRANCH  22  25
ATOM     25  C   UNL     1      -1.183   3.645   0.141  0.00  0.00    +0.013 C 
ATOM     26  C   UNL     1      -0.523   4.256  -1.096  0.00  0.00    -0.004 C 
BRANCH  25  33
ATOM     27  N   UNL     1       1.641  -0.081   1.801  0.00  0.00    -0.300 NA
ATOM     28  C   UNL     1       0.297  -0.627   1.568  0.00  0.00    +0.103 C 
ATOM     29  C   UNL     1      -0.251  -0.078   0.247  0.00  0.00    +0.123 C 
ATOM     30  N   UNL     1      -0.174   1.391   0.283  0.00  0.00    -0.300 N 
ATOM     31  C   UNL     1       1.109   2.011   0.645  0.00  0.00    +0.123 C 
ATOM     32  C   UNL     1       1.604   1.381   1.951  0.00  0.00    +0.103 C 
ATOM     33  C   UNL     1      -1.250   2.147  -0.013  0.00  0.00    +0.201 C 
ATOM     34  O   UNL     1      -2.271   1.623  -0.405  0.00  0.00    -0.277 OA
BRANCH  27  36
ATOM     35  C   UNL     1       3.745  -0.309   3.033  0.00  0.00    +0.020 C 
ATOM     36  C   UNL     1       2.271  -0.713   2.968  0.00  0.00    +0.081 C 
ENDBRANCH  27  36
ENDBRANCH  25  33
ENDBRANCH  22  25
ENDBRANCH  21  22
ENDBRANCH   1  21
TORSDOF 8
