REMARK  Name = ZINC08819642
REMARK  8 active torsions:
REMARK  status: ('A' for Active; 'I' for Inactive)
REMARK    1  A    between atoms: C_4  and  N_33
REMARK    2  A    between atoms: C_5  and  C_7
REMARK    3  A    between atoms: N_9  and  N_10
REMARK    4  A    between atoms: C_11  and  C_13
REMARK    5  A    between atoms: C_13  and  C_14
REMARK    6  A    between atoms: C_14  and  C_15
REMARK    7  A    between atoms: C_15  and  N_16
REMARK    8  A    between atoms: C_20  and  C_21
REMARK                            x       y       z     vdW  Elec       q    Type
REMARK                         _______ _______ _______ _____ _____    ______ ____
ROOT
ATOM      1  C   UNL     1       4.506   5.514   2.789  0.00  0.00    +0.029 C 
ENDROOT
BRANCH   1   2
ATOM      2  C   UNL     1       5.024   4.191   2.223  0.00  0.00    +0.099 C 
BRANCH   2   4
ATOM      3  N   UNL     1       4.129   2.279   0.933  0.00  0.00    -0.234 N 
ATOM      4  C   UNL     1       3.904   3.474   1.514  0.00  0.00    +0.229 C 
ATOM      5  O   UNL     1       2.800   3.974   1.466  0.00  0.00    -0.274 OA
ATOM      6  H   UNL     1       5.012   1.880   0.972  0.00  0.00    +0.173 HD
BRANCH   3   9
ATOM      7  C   UNL     1       3.313   0.418  -0.306  0.00  0.00    +0.262 C 
ATOM      8  O   UNL     1       4.420  -0.082  -0.258  0.00  0.00    -0.269 OA
ATOM      9  N   UNL     1       3.088   1.613   0.274  0.00  0.00    -0.230 N 
ATOM     10  H   UNL     1       2.206   2.014   0.232  0.00  0.00    +0.173 HD
BRANCH   7  15
ATOM     11  C   UNL     1      -0.040  -0.315  -1.832  0.00  0.00    +0.001 A 
ATOM     12  C   UNL     1       0.155  -1.601  -2.304  0.00  0.00    +0.002 A 
ATOM     13  C   UNL     1       1.374  -2.232  -2.129  0.00  0.00    +0.033 A 
ATOM     14  C   UNL     1       2.404  -1.582  -1.481  0.00  0.00    +0.138 A 
ATOM     15  C   UNL     1       2.214  -0.285  -1.002  0.00  0.00    +0.068 A 
ATOM     16  C   UNL     1       0.980   0.344  -1.178  0.00  0.00    +0.015 A 
BRANCH  14  17
ATOM     17  N   UNL     1       3.707  -2.259  -1.294  0.00  0.00    +0.057 N 
ATOM     18  O   UNL     1       4.272  -2.766  -2.246  0.00  0.00    -0.126 OA
ATOM     19  O   UNL     1       4.213  -2.308  -0.187  0.00  0.00    -0.126 OA
ENDBRANCH  14  17
ENDBRANCH   7  15
ENDBRANCH   3   9
ENDBRANCH   2   4
ENDBRANCH   1   2
BRANCH   1  20
ATOM     20  C   UNL     1       5.643   6.242   3.509  0.00  0.00    +0.115 C 
BRANCH  20  21
ATOM     21  N   UNL     1       5.147   7.509   4.050  0.00  0.00    -0.255 N 
ATOM     22  C   UNL     1       4.645   7.537   5.273  0.00  0.00    +0.258 C 
ATOM     23  O   UNL     1       4.583   6.535   5.962  0.00  0.00    -0.269 OA
ATOM     24  C   UNL     1       4.162   8.845   5.761  0.00  0.00    +0.077 C 
ATOM     25  C   UNL     1       3.605   9.171   6.955  0.00  0.00    +0.028 C 
ATOM     26  S   UNL     1       4.511   9.879   4.345  0.00  0.00    -0.061 S 
ATOM     27  C   UNL     1       5.218   8.622   3.292  0.00  0.00    +0.121 C 
ATOM     28  S   UNL     1       5.835   8.789   1.704  0.00  0.00    -0.027 S 
BRANCH  25  29
ATOM     29  C   UNL     1       3.369  10.580   7.294  0.00  0.00    -0.020 A 
ATOM     30  C   UNL     1       4.031  11.593   6.589  0.00  0.00    +0.012 A 
ATOM     31  C   UNL     1       3.803  12.914   6.907  0.00  0.00    +0.050 A 
ATOM     32  C   UNL     1       2.926  13.246   7.931  0.00  0.00    +0.166 A 
ATOM     33  C   UNL     1       2.267  12.242   8.642  0.00  0.00    +0.167 A 
ATOM     34  C   UNL     1       2.485  10.915   8.327  0.00  0.00    +0.057 A 
ATOM     35  O   UNL     1       1.472  12.827   9.585  0.00  0.00    -0.453 OA
ATOM     36  C   UNL     1       1.961  14.175   9.717  0.00  0.00    +0.466 C 
ATOM     37  O   UNL     1       2.542  14.456   8.431  0.00  0.00    -0.453 OA
ENDBRANCH  25  29
ENDBRANCH  20  21
ENDBRANCH   1  20
TORSDOF 8
