REMARK  Name = ZINC22539628
REMARK  16 active torsions:
REMARK  status: ('A' for Active; 'I' for Inactive)
REMARK    1  A    between atoms: C_1  and  C_2
REMARK    2  A    between atoms: C_4  and  C_38
REMARK    3  A    between atoms: C_5  and  C_9
REMARK    4  A    between atoms: C_7  and  C_8
REMARK    5  A    between atoms: C_9  and  C_11
REMARK    6  A    between atoms: C_9  and  N_12
REMARK    7  A    between atoms: C_13  and  C_15
REMARK    8  A    between atoms: C_15  and  C_17
REMARK    9  A    between atoms: C_15  and  N_24
REMARK   10  A    between atoms: C_17  and  C_18
REMARK   11  A    between atoms: N_24  and  S_25
REMARK   12  A    between atoms: S_25  and  C_28
REMARK   13  A    between atoms: C_31  and  O_36
REMARK   14  A    between atoms: C_32  and  O_34
REMARK   15  A    between atoms: O_34  and  C_35
REMARK   16  A    between atoms: O_36  and  C_37
REMARK                            x       y       z     vdW  Elec       q    Type
REMARK                         _______ _______ _______ _____ _____    ______ ____
ROOT
ATOM      1  C   UNL     1      -2.971   0.593   1.468  0.00  0.00    +0.166 C 
ENDROOT
BRANCH   1   3
ATOM      2  N   UNL     1      -4.119  -1.533   0.937  0.00  0.00    -0.307 N 
ATOM      3  C   UNL     1      -4.163  -0.327   1.536  0.00  0.00    +0.232 C 
ATOM      4  O   UNL     1      -5.163   0.019   2.130  0.00  0.00    -0.274 OA
ATOM      5  H   UNL     1      -3.213  -1.847   0.399  0.00  0.00    +0.149 HD
BRANCH   2   6
ATOM      6  C   UNL     1      -5.278  -2.427   1.003  0.00  0.00    +0.100 C 
ATOM      7  C   UNL     1      -5.227  -3.233   2.303  0.00  0.00    +0.033 C 
BRANCH   6  12
ATOM      8  C   UNL     1      -5.187  -6.039  -3.507  0.00  0.00    +0.044 C 
ATOM      9  C   UNL     1      -5.211  -5.096  -2.331  0.00  0.00    -0.047 A 
ATOM     10  C   UNL     1      -6.409  -4.796  -1.710  0.00  0.00    +0.007 A 
ATOM     11  C   UNL     1      -6.430  -3.936  -0.628  0.00  0.00    -0.045 A 
ATOM     12  C   UNL     1      -5.254  -3.369  -0.173  0.00  0.00    -0.024 A 
ATOM     13  C   UNL     1      -4.056  -3.669  -0.794  0.00  0.00    +0.009 A 
ATOM     14  C   UNL     1      -4.035  -4.533  -1.873  0.00  0.00    -0.047 A 
ATOM     15  C   UNL     1      -2.728  -4.861  -2.549  0.00  0.00    +0.044 C 
ATOM     16  C   UNL     1      -7.735  -3.614   0.053  0.00  0.00    +0.044 C 
ENDBRANCH   6  12
ENDBRANCH   2   6
ENDBRANCH   1   3
BRANCH   1  17
ATOM     17  N   UNL     1      -3.268   1.832   2.190  0.00  0.00    -0.178 NA
ATOM     18  H   UNL     1      -3.660   2.705   1.647  0.00  0.00    +0.149 HD
BRANCH  17  19
ATOM     19  S   UNL     1      -2.788   2.008   3.765  0.00  0.00    +0.059 S 
ATOM     20  O   UNL     1      -3.190   3.309   4.170  0.00  0.00    -0.153 OA
ATOM     21  O   UNL     1      -3.205   0.835   4.450  0.00  0.00    -0.153 OA
BRANCH  19  22
ATOM     22  C   UNL     1      -1.026   1.998   3.776  0.00  0.00    +0.109 A 
ATOM     23  C   UNL     1      -0.343   0.798   3.837  0.00  0.00    +0.032 A 
ATOM     24  C   UNL     1       1.039   0.785   3.840  0.00  0.00    +0.051 A 
ATOM     25  C   UNL     1       1.744   1.978   3.794  0.00  0.00    +0.162 A 
ATOM     26  C   UNL     1       1.056   3.186   3.739  0.00  0.00    +0.163 A 
ATOM     27  C   UNL     1      -0.330   3.192   3.731  0.00  0.00    +0.078 A 
BRANCH  26  28
ATOM     28  O   UNL     1       1.742   4.359   3.694  0.00  0.00    -0.491 OA
ATOM     29  C   UNL     1       0.971   5.561   3.638  0.00  0.00    +0.277 C 
ENDBRANCH  26  28
BRANCH  25  30
ATOM     30  O   UNL     1       3.103   1.967   3.804  0.00  0.00    -0.491 OA
ATOM     31  C   UNL     1       3.743   0.690   3.749  0.00  0.00    +0.277 C 
ENDBRANCH  25  30
ENDBRANCH  19  22
ENDBRANCH  17  19
ENDBRANCH   1  17
BRANCH   1  32
ATOM     32  C   UNL     1      -2.660   0.917   0.005  0.00  0.00    +0.065 C 
BRANCH  32  33
ATOM     33  C   UNL     1      -1.416   1.763  -0.068  0.00  0.00    -0.045 A 
ATOM     34  C   UNL     1      -0.170   1.163  -0.068  0.00  0.00    +0.004 A 
ATOM     35  C   UNL     1       0.971   1.939  -0.141  0.00  0.00    +0.000 A 
ATOM     36  C   UNL     1       0.868   3.316  -0.208  0.00  0.00    +0.000 A 
ATOM     37  C   UNL     1      -0.377   3.916  -0.203  0.00  0.00    +0.000 A 
ATOM     38  C   UNL     1      -1.519   3.140  -0.130  0.00  0.00    +0.004 A 
ENDBRANCH  32  33
ENDBRANCH   1  32
TORSDOF 10
