REMARK  Name = ZINC35286910
REMARK  7 active torsions:
REMARK  status: ('A' for Active; 'I' for Inactive)
REMARK    1  A    between atoms: C_3  and  S_9
REMARK    2  A    between atoms: C_6  and  C_7
REMARK    3  A    between atoms: S_9  and  N_12
REMARK    4  A    between atoms: N_15  and  C_18
REMARK    5  A    between atoms: C_18  and  C_19
REMARK    6  A    between atoms: N_21  and  C_22
REMARK    7  A    between atoms: C_23  and  C_30
REMARK                            x       y       z     vdW  Elec       q    Type
REMARK                         _______ _______ _______ _____ _____    ______ ____
ROOT
ATOM      1  C   UNL     1       3.709   2.143   5.686  0.00  0.00    +0.180 C 
ENDROOT
BRANCH   1   5
ATOM      2  N   UNL     1       4.324   2.568   1.557  0.00  0.00    -0.174 NA
ATOM      3  C   UNL     1       3.869   3.759   2.290  0.00  0.00    +0.125 C 
ATOM      4  C   UNL     1       3.244   3.305   3.614  0.00  0.00    +0.102 C 
ATOM      5  N   UNL     1       4.200   2.457   4.338  0.00  0.00    -0.291 NA
ATOM      6  C   UNL     1       4.500   1.231   3.587  0.00  0.00    +0.102 C 
ATOM      7  C   UNL     1       5.171   1.596   2.264  0.00  0.00    +0.125 C 
BRANCH   2   8
ATOM      8  S   UNL     1       3.889   2.325  -0.023  0.00  0.00    +0.061 S 
ATOM      9  O   UNL     1       4.872   1.468  -0.587  0.00  0.00    -0.153 OA
ATOM     10  O   UNL     1       3.592   3.605  -0.564  0.00  0.00    -0.153 OA
BRANCH   8  13
ATOM     11  C   UNL     1      -0.017   1.392   0.010  0.00  0.00    +0.021 A 
ATOM     12  C   UNL     1       1.170   2.095   0.002  0.00  0.00    +0.030 A 
ATOM     13  C   UNL     1       2.378   1.419  -0.013  0.00  0.00    +0.106 A 
ATOM     14  C   UNL     1       2.404   0.036  -0.021  0.00  0.00    +0.030 A 
ATOM     15  C   UNL     1       1.224  -0.679  -0.014  0.00  0.00    +0.021 A 
ATOM     16  C   UNL     1       0.002  -0.004   0.002  0.00  0.00    +0.052 A 
BRANCH  16  17
ATOM     17  C   UNL     1      -1.226  -0.740   0.010  0.00  0.00    +0.099 C 
ATOM     18  N   UNL     1      -2.201  -1.324   0.017  0.00  0.00    -0.191 NA
ENDBRANCH  16  17
ENDBRANCH   8  13
ENDBRANCH   2   8
ENDBRANCH   1   5
BRANCH   1  19
ATOM     19  C   UNL     1       4.808   1.486   6.481  0.00  0.00    +0.232 C 
ATOM     20  O   UNL     1       5.894   1.300   5.975  0.00  0.00    -0.274 OA
ATOM     21  N   UNL     1       4.585   1.107   7.755  0.00  0.00    -0.278 N 
ATOM     22  H   UNL     1       3.716   1.257   8.160  0.00  0.00    +0.155 HD
BRANCH  21  23
ATOM     23  C   UNL     1       5.596   0.504   8.486  0.00  0.00    +0.084 A 
ATOM     24  C   UNL     1       5.547   0.049   9.791  0.00  0.00    +0.068 A 
ATOM     25  C   UNL     1       6.761  -0.557  10.336  0.00  0.00    -0.023 A 
ATOM     26  C   UNL     1       7.792  -0.589   9.473  0.00  0.00    -0.004 A 
ATOM     27  S   UNL     1       7.159   0.151   7.990  0.00  0.00    -0.077 S 
ATOM     28  C   UNL     1       9.016  -1.217  10.085  0.00  0.00    +0.043 C 
ATOM     29  C   UNL     1       8.747  -1.193  11.606  0.00  0.00    +0.010 C 
ATOM     30  C   UNL     1       7.206  -1.187  11.654  0.00  0.00    +0.037 C 
BRANCH  24  31
ATOM     31  C   UNL     1       4.327   0.168  10.595  0.00  0.00    +0.244 C 
ATOM     32  O   UNL     1       3.503  -0.727  10.588  0.00  0.00    -0.270 OA
ATOM     33  N   UNL     1       4.118   1.270  11.343  0.00  0.00    -0.325 N 
ATOM     34  H   UNL     1       4.775   1.984  11.349  0.00  0.00    +0.145 HD
ATOM     35  H   UNL     1       3.311   1.349  11.875  0.00  0.00    +0.145 HD
ENDBRANCH  24  31
ENDBRANCH  21  23
ENDBRANCH   1  19
TORSDOF 7
