REMARK  Name = ZINC08843886
REMARK  7 active torsions:
REMARK  status: ('A' for Active; 'I' for Inactive)
REMARK    1  A    between atoms: C_1  and  C_2
REMARK    2  A    between atoms: C_5  and  N_9
REMARK    3  A    between atoms: C_7  and  C_8
REMARK    4  A    between atoms: C_10  and  C_12
REMARK    5  A    between atoms: C_13  and  C_30
REMARK    6  A    between atoms: C_18  and  C_20
REMARK    7  A    between atoms: C_24  and  N_26
REMARK                            x       y       z     vdW  Elec       q    Type
REMARK                         _______ _______ _______ _____ _____    ______ ____
ROOT
ATOM      1  C   UNL     1       2.683  -3.946  -1.840  0.00  0.00    +0.056 C 
ATOM      2  C   UNL     1       1.781  -4.950  -1.801  0.00  0.00    +0.017 C 
ATOM      3  N   UNL     1       1.647  -5.735  -0.691  0.00  0.00    -0.300 N 
ATOM      4  C   UNL     1       2.379  -5.581   0.419  0.00  0.00    +0.135 C 
ATOM      5  S   UNL     1       2.110  -6.636   1.741  0.00  0.00    -0.019 S 
ATOM      6  N   UNL     1       3.319  -4.622   0.532  0.00  0.00    -0.315 N 
ATOM      7  C   UNL     1       3.541  -3.721  -0.612  0.00  0.00    +0.139 C 
ATOM      8  C   UNL     1       0.907  -5.208  -3.001  0.00  0.00    +0.061 C 
ATOM      9  H   UNL     1       0.986  -6.444  -0.709  0.00  0.00    +0.154 HD
ATOM     10  H   UNL     1       3.838  -4.528   1.346  0.00  0.00    +0.149 HD
ENDROOT
BRANCH   7  11
ATOM     11  C   UNL     1       3.316  -2.308  -0.140  0.00  0.00    -0.020 A 
ATOM     12  C   UNL     1       2.135  -1.971   0.495  0.00  0.00    +0.007 A 
ATOM     13  C   UNL     1       1.927  -0.675   0.927  0.00  0.00    +0.022 A 
ATOM     14  C   UNL     1       2.902   0.286   0.725  0.00  0.00    +0.071 A 
ATOM     15  C   UNL     1       4.084  -0.052   0.089  0.00  0.00    +0.145 A 
ATOM     16  C   UNL     1       4.288  -1.347  -0.348  0.00  0.00    +0.040 A 
ATOM     17 CL   UNL     1       2.642   1.914   1.268  0.00  0.00    -0.081 Cl
BRANCH  15  18
ATOM     18  N   UNL     1       5.127   0.976  -0.128  0.00  0.00    +0.058 N 
ATOM     19  O   UNL     1       6.167   0.679  -0.688  0.00  0.00    -0.126 OA
ATOM     20  O   UNL     1       4.942   2.120   0.248  0.00  0.00    -0.126 OA
ENDBRANCH  15  18
ENDBRANCH   7  11
BRANCH   1  22
ATOM     21  N   UNL     1       1.788  -2.378  -3.412  0.00  0.00    -0.282 N 
ATOM     22  C   UNL     1       2.822  -3.132  -2.990  0.00  0.00    +0.248 C 
ATOM     23  O   UNL     1       3.877  -3.113  -3.598  0.00  0.00    -0.270 OA
ATOM     24  H   UNL     1       0.981  -2.318  -2.876  0.00  0.00    +0.155 HD
BRANCH  21  29
ATOM     25  C   UNL     1       2.148   0.445  -8.318  0.00  0.00    +0.044 C 
ATOM     26  C   UNL     1       2.053  -0.305  -7.015  0.00  0.00    -0.047 A 
ATOM     27  C   UNL     1       3.172  -0.442  -6.213  0.00  0.00    +0.005 A 
ATOM     28  C   UNL     1       3.086  -1.124  -5.016  0.00  0.00    +0.023 A 
ATOM     29  C   UNL     1       1.877  -1.682  -4.622  0.00  0.00    +0.034 A 
ATOM     30  C   UNL     1       0.755  -1.543  -5.428  0.00  0.00    +0.027 A 
ATOM     31  C   UNL     1       0.846  -0.854  -6.622  0.00  0.00    -0.046 A 
ATOM     32  C   UNL     1      -0.371  -0.702  -7.498  0.00  0.00    +0.044 C 
ENDBRANCH  21  29
ENDBRANCH   1  22
TORSDOF 4
