REMARK  Name = ZINC38700670
REMARK  8 active torsions:
REMARK  status: ('A' for Active; 'I' for Inactive)
REMARK    1  A    between atoms: C_1  and  S_2
REMARK    2  A    between atoms: S_2  and  C_3
REMARK    3  A    between atoms: C_6  and  C_9
REMARK    4  A    between atoms: C_14  and  O_23
REMARK    5  A    between atoms: C_18  and  N_22
REMARK    6  A    between atoms: C_19  and  C_20
REMARK    7  A    between atoms: O_23  and  C_24
REMARK    8  A    between atoms: C_24  and  C_26
REMARK                            x       y       z     vdW  Elec       q    Type
REMARK                         _______ _______ _______ _____ _____    ______ ____
ROOT
ATOM      1  C   UNL     1      -5.805  -1.498   0.086  0.00  0.00    +0.098 C 
ATOM      2  C   UNL     1      -6.106  -2.319   1.312  0.00  0.00    +0.008 A 
ATOM      3  C   UNL     1      -6.135  -1.705   2.552  0.00  0.00    +0.012 A 
ATOM      4  C   UNL     1      -6.410  -2.441   3.687  0.00  0.00    +0.047 A 
ATOM      5  C   UNL     1      -6.658  -3.803   3.587  0.00  0.00    +0.135 A 
ATOM      6  C   UNL     1      -6.630  -4.421   2.348  0.00  0.00    +0.093 A 
ATOM      7  C   UNL     1      -6.353  -3.679   1.207  0.00  0.00    +0.138 A 
ATOM      8  O   UNL     1      -6.329  -4.298   0.001  0.00  0.00    -0.441 OA
ATOM      9  C   UNL     1      -6.451  -3.577  -1.126  0.00  0.00    +0.199 C 
ATOM     10  C   UNL     1      -6.216  -2.247  -1.150  0.00  0.00    +0.098 C 
ENDROOT
BRANCH   1  14
ATOM     11  C   UNL     1      -1.611  -0.689  -0.080  0.00  0.00    +0.008 A 
ATOM     12  C   UNL     1      -2.521   0.360  -0.009  0.00  0.00    +0.015 A 
ATOM     13  C   UNL     1      -3.875   0.094   0.045  0.00  0.00    +0.005 A 
ATOM     14  C   UNL     1      -4.326  -1.213   0.028  0.00  0.00    -0.035 A 
ATOM     15  C   UNL     1      -3.424  -2.259  -0.043  0.00  0.00    +0.005 A 
ATOM     16  C   UNL     1      -2.069  -2.001  -0.103  0.00  0.00    +0.015 A 
BRANCH  11  18
ATOM     17  C   UNL     1       0.218   1.455  -0.092  0.00  0.00    +0.090 C 
ATOM     18  S   UNL     1       0.118  -0.355  -0.148  0.00  0.00    -0.129 S 
ENDBRANCH  11  18
ENDBRANCH   1  14
BRANCH   9  19
ATOM     19  N   UNL     1      -6.825  -4.210  -2.285  0.00  0.00    -0.328 N 
ATOM     20  H   UNL     1      -6.995  -5.165  -2.282  0.00  0.00    +0.145 HD
ATOM     21  H   UNL     1      -6.918  -3.703  -3.106  0.00  0.00    +0.145 HD
ENDBRANCH   9  19
BRANCH  10  22
ATOM     22  C   UNL     1      -6.364  -1.535  -2.384  0.00  0.00    +0.101 C 
ATOM     23  N   UNL     1      -6.481  -0.971  -3.363  0.00  0.00    -0.191 NA
ENDBRANCH  10  22
BRANCH   5  24
ATOM     24  O   UNL     1      -6.929  -4.529   4.704  0.00  0.00    -0.422 OA
BRANCH  24  25
ATOM     25  C   UNL     1      -8.103  -4.313   5.331  0.00  0.00    +0.353 C 
ATOM     26  O   UNL     1      -8.927  -3.566   4.838  0.00  0.00    -0.244 OA
BRANCH  25  27
ATOM     27  C   UNL     1      -8.387  -4.979   6.606  0.00  0.00    +0.116 A 
ATOM     28  C   UNL     1      -9.505  -4.891   7.379  0.00  0.00    +0.070 A 
ATOM     29  C   UNL     1      -9.583  -5.617   8.582  0.00  0.00    +0.008 A 
ATOM     30  C   UNL     1     -10.652  -5.657   9.515  0.00  0.00    +0.010 A 
ATOM     31  C   UNL     1     -10.565  -6.416  10.638  0.00  0.00    +0.001 A 
ATOM     32  C   UNL     1      -9.437  -7.177  10.917  0.00  0.00    +0.001 A 
ATOM     33  C   UNL     1      -8.374  -7.168  10.037  0.00  0.00    +0.016 A 
ATOM     34  C   UNL     1      -8.448  -6.402   8.892  0.00  0.00    +0.022 A 
ATOM     35  S   UNL     1      -7.354  -6.107   7.525  0.00  0.00    -0.080 S 
ATOM     36 CL   UNL     1     -10.831  -3.888   6.880  0.00  0.00    -0.082 Cl
ENDBRANCH  25  27
ENDBRANCH  24  25
ENDBRANCH   5  24
TORSDOF 7
