REMARK  Name = ZINC02950341
REMARK  4 active torsions:
REMARK  status: ('A' for Active; 'I' for Inactive)
REMARK    1  A    between atoms: C_4  and  C_7
REMARK    2  A    between atoms: C_7  and  C_9
REMARK    3  A    between atoms: C_7  and  O_31
REMARK    4  A    between atoms: C_14  and  N_15
REMARK                            x       y       z     vdW  Elec       q    Type
REMARK                         _______ _______ _______ _____ _____    ______ ____
ROOT
ATOM      1  C   UNL     1       2.386   1.405  -0.013  0.00  0.00    +0.008 A 
ATOM      2  C   UNL     1       2.400   0.024  -0.020  0.00  0.00    +0.028 A 
ATOM      3  C   UNL     1       1.209  -0.681  -0.013  0.00  0.00    +0.041 A 
ATOM      4  C   UNL     1       0.002  -0.004   0.002  0.00  0.00    +0.022 A 
ATOM      5  C   UNL     1      -0.017   1.377   0.010  0.00  0.00    +0.026 A 
ATOM      6  C   UNL     1       1.177   2.086   0.002  0.00  0.00    +0.051 A 
ATOM      7 CL   UNL     1       1.230  -2.417  -0.022  0.00  0.00    -0.084 Cl
ENDROOT
BRANCH   6   8
ATOM      8  N   UNL     1       1.161   3.488   0.009  0.00  0.00    -0.202 N 
ATOM      9  C   UNL     1       1.147   4.255  -1.096  0.00  0.00    +0.260 C 
ATOM     10  O   UNL     1       1.147   3.848  -2.241  0.00  0.00    -0.269 OA
ATOM     11  C   UNL     1       1.130   5.673  -0.685  0.00  0.00    +0.071 A 
ATOM     12  C   UNL     1       1.143   5.665   0.726  0.00  0.00    +0.071 A 
ATOM     13  C   UNL     1       1.135   6.864   1.422  0.00  0.00    +0.074 A 
ATOM     14  C   UNL     1       1.115   8.066   0.724  0.00  0.00    +0.080 A 
ATOM     15  C   UNL     1       1.103   8.073  -0.659  0.00  0.00    +0.080 A 
ATOM     16  C   UNL     1       1.110   6.878  -1.369  0.00  0.00    +0.074 A 
ATOM     17 CL   UNL     1       1.095   6.896  -3.105  0.00  0.00    -0.081 Cl
ATOM     18 CL   UNL     1       1.078   9.584  -1.513  0.00  0.00    -0.080 Cl
ATOM     19 CL   UNL     1       1.106   9.568   1.594  0.00  0.00    -0.080 Cl
ATOM     20 CL   UNL     1       1.150   6.865   3.158  0.00  0.00    -0.081 Cl
ATOM     21  C   UNL     1       1.162   4.243   1.122  0.00  0.00    +0.260 C 
ATOM     22  O   UNL     1       1.177   3.825   2.263  0.00  0.00    -0.269 OA
ENDBRANCH   6   8
BRANCH   1  23
ATOM     23  C   UNL     1       3.684   2.172  -0.021  0.00  0.00    +0.176 C 
BRANCH  23  27
ATOM     24  C   UNL     1       4.768   3.179   3.986  0.00  0.00    +0.000 A 
ATOM     25  C   UNL     1       4.073   4.087   3.209  0.00  0.00    +0.000 A 
ATOM     26  C   UNL     1       3.722   3.761   1.913  0.00  0.00    +0.006 A 
ATOM     27  C   UNL     1       4.066   2.527   1.393  0.00  0.00    -0.015 A 
ATOM     28  C   UNL     1       4.756   1.617   2.171  0.00  0.00    +0.006 A 
ATOM     29  C   UNL     1       5.111   1.944   3.467  0.00  0.00    +0.000 A 
ENDBRANCH  23  27
BRANCH  23  30
ATOM     30  O   UNL     1       4.710   1.366  -0.604  0.00  0.00    -0.382 OA
ATOM     31  H   UNL     1       4.872   0.536  -0.135  0.00  0.00    +0.211 HD
ENDBRANCH  23  30
ENDBRANCH   1  23
TORSDOF 4
