REMARK  Name = ZINC39675223
REMARK  9 active torsions:
REMARK  status: ('A' for Active; 'I' for Inactive)
REMARK    1  A    between atoms: C_1  and  C_2
REMARK    2  A    between atoms: C_2  and  C_4
REMARK    3  A    between atoms: C_2  and  N_14
REMARK    4  A    between atoms: C_4  and  C_5
REMARK    5  A    between atoms: C_5  and  C_6
REMARK    6  A    between atoms: C_9  and  O_12
REMARK    7  A    between atoms: O_12  and  C_13
REMARK    8  A    between atoms: C_15  and  C_17
REMARK    9  A    between atoms: C_28  and  C_30
REMARK                            x       y       z     vdW  Elec       q    Type
REMARK                         _______ _______ _______ _____ _____    ______ ____
ROOT
ATOM      1  C   UNL     1       0.557  -0.463  -3.539  0.00  0.00    +0.100 C 
ATOM      2  C   UNL     1       1.778   0.308  -4.088  0.00  0.00    +0.121 C 
ATOM      3  N   UNL     1       1.670   0.181  -5.561  0.00  0.00    -0.296 N 
ATOM      4  C   UNL     1       0.220   0.314  -5.837  0.00  0.00    +0.115 C 
ATOM      5  C   UNL     1      -0.464  -0.457  -4.689  0.00  0.00    -0.004 C 
ATOM      6  C   UNL     1      -1.740   0.261  -4.259  0.00  0.00    -0.010 C 
ATOM      7  C   UNL     1      -2.761   0.204  -5.399  0.00  0.00    -0.082 C 
ATOM      8  N   UNL     1      -3.051  -1.197  -5.728  0.00  0.00    +0.379 N 
ATOM      9  C   UNL     1      -1.839  -1.855  -6.229  0.00  0.00    -0.082 C 
ATOM     10  C   UNL     1      -0.778  -1.884  -5.125  0.00  0.00    -0.010 C 
ATOM     11  C   UNL     1       2.666  -0.012  -6.449  0.00  0.00    +0.247 C 
ATOM     12  O   UNL     1       3.799  -0.213  -6.057  0.00  0.00    -0.270 OA
ATOM     13  H   UNL     1      -3.375  -1.675  -4.901  0.00  0.00    -0.086 HD
ATOM     14  H   UNL     1      -3.769  -1.232  -6.437  0.00  0.00    -0.086 HD
ENDROOT
BRANCH  11  15
ATOM     15  C   UNL     1       2.380   0.020  -7.899  0.00  0.00    +0.038 A 
ATOM     16  C   UNL     1       1.240   0.670  -8.374  0.00  0.00    +0.013 A 
ATOM     17  C   UNL     1       0.978   0.697  -9.728  0.00  0.00    +0.002 A 
ATOM     18  C   UNL     1       1.842   0.080 -10.615  0.00  0.00    +0.015 A 
ATOM     19  C   UNL     1       2.974  -0.567 -10.151  0.00  0.00    +0.019 A 
ATOM     20  C   UNL     1       3.251  -0.595  -8.799  0.00  0.00    +0.028 A 
ATOM     21 BR   UNL     1       4.148  -1.408 -11.372  0.00  0.00    -0.050 Br
ENDBRANCH  11  15
BRANCH   1  23
ATOM     22  N   UNL     1      -0.636  -0.468  -1.373  0.00  0.00    -0.312 N 
ATOM     23  C   UNL     1      -0.008   0.240  -2.332  0.00  0.00    +0.218 C 
ATOM     24  O   UNL     1       0.103   1.443  -2.224  0.00  0.00    -0.275 OA
ATOM     25  H   UNL     1      -0.725  -1.430  -1.460  0.00  0.00    +0.149 HD
BRANCH  22  27
ATOM     26  C   UNL     1      -0.087   0.386   0.852  0.00  0.00    +0.028 C 
ATOM     27  C   UNL     1      -1.185   0.215  -0.199  0.00  0.00    +0.070 C 
BRANCH  27  28
ATOM     28  C   UNL     1      -2.328  -0.617   0.387  0.00  0.00    +0.026 C 
BRANCH  28  29
ATOM     29  C   UNL     1      -3.479  -0.683  -0.618  0.00  0.00    +0.037 C 
BRANCH  29  30
ATOM     30  C   UNL     1      -4.604  -1.502  -0.040  0.00  0.00    -0.047 A 
ATOM     31  C   UNL     1      -4.641  -2.868  -0.250  0.00  0.00    +0.007 A 
ATOM     32  C   UNL     1      -5.672  -3.622   0.278  0.00  0.00    +0.046 A 
ATOM     33  C   UNL     1      -6.670  -3.006   1.020  0.00  0.00    +0.120 A 
ATOM     34  C   UNL     1      -6.630  -1.635   1.229  0.00  0.00    +0.046 A 
ATOM     35  C   UNL     1      -5.595  -0.887   0.703  0.00  0.00    +0.007 A 
BRANCH  33  36
ATOM     36  O   UNL     1      -7.685  -3.745   1.540  0.00  0.00    -0.495 OA
ATOM     37  C   UNL     1      -8.677  -3.045   2.293  0.00  0.00    +0.277 C 
ENDBRANCH  33  36
ENDBRANCH  29  30
ENDBRANCH  28  29
ENDBRANCH  27  28
ENDBRANCH  22  27
ENDBRANCH   1  23
TORSDOF 7
