REMARK  Name = ZINC40646348
REMARK  6 active torsions:
REMARK  status: ('A' for Active; 'I' for Inactive)
REMARK    1  A    between atoms: C_4  and  N_7
REMARK    2  A    between atoms: N_7  and  C_8
REMARK    3  A    between atoms: N_7  and  N_14
REMARK    4  A    between atoms: C_16  and  N_29
REMARK    5  A    between atoms: C_17  and  N_21
REMARK    6  A    between atoms: N_21  and  C_22
REMARK                            x       y       z     vdW  Elec       q    Type
REMARK                         _______ _______ _______ _____ _____    ______ ____
ROOT
ATOM      1  N   UNL     1       4.927  -0.030  -0.089  0.00  0.00    -0.242 N 
ATOM      2  C   UNL     1       5.726   0.152   1.030  0.00  0.00    +0.171 A 
ATOM      3  C   UNL     1       6.936   0.832   0.931  0.00  0.00    +0.207 A 
ATOM      4  C   UNL     1       7.701   0.988   2.083  0.00  0.00    +0.159 A 
ATOM      5  N   UNL     1       7.250   0.484   3.231  0.00  0.00    -0.218 NA
ATOM      6  C   UNL     1       6.099  -0.154   3.283  0.00  0.00    +0.225 A 
ATOM      7  N   UNL     1       5.344  -0.318   2.216  0.00  0.00    -0.217 NA
ATOM      8  H   UNL     1       5.213   0.315  -0.949  0.00  0.00    +0.172 HD
ENDROOT
BRANCH   3   9
ATOM      9  N   UNL     1       7.398   1.375  -0.367  0.00  0.00    +0.063 N 
ATOM     10  O   UNL     1       7.096   2.499  -0.693  0.00  0.00    -0.126 OA
ATOM     11  O   UNL     1       8.077   0.694  -1.099  0.00  0.00    -0.126 OA
ENDBRANCH   3   9
BRANCH   4  12
ATOM     12  N   UNL     1       8.915   1.658   2.036  0.00  0.00    -0.297 N 
ATOM     13  H   UNL     1       9.194   2.100   1.219  0.00  0.00    +0.154 HD
BRANCH  12  14
ATOM     14  C   UNL     1       9.736   1.696   3.167  0.00  0.00    +0.047 A 
ATOM     15  C   UNL     1       9.637   0.702   4.133  0.00  0.00    +0.024 A 
ATOM     16  C   UNL     1      10.449   0.743   5.249  0.00  0.00    +0.002 A 
ATOM     17  C   UNL     1      11.361   1.771   5.407  0.00  0.00    +0.001 A 
ATOM     18  C   UNL     1      11.462   2.762   4.447  0.00  0.00    +0.017 A 
ATOM     19  C   UNL     1      10.657   2.724   3.325  0.00  0.00    +0.039 A 
ATOM     20 BR   UNL     1      10.802   4.075   2.010  0.00  0.00    -0.048 Br
ENDBRANCH  12  14
ENDBRANCH   4  12
BRANCH   1  21
ATOM     21  N   UNL     1       3.708  -0.711   0.024  0.00  0.00    -0.221 N 
BRANCH  21  25
ATOM     22  C   UNL     1       0.125   1.408  -0.054  0.00  0.00    +0.000 A 
ATOM     23  C   UNL     1       1.236   1.956   0.560  0.00  0.00    +0.002 A 
ATOM     24  C   UNL     1       2.427   1.255   0.588  0.00  0.00    +0.025 A 
ATOM     25  C   UNL     1       2.506  -0.000  -0.002  0.00  0.00    +0.053 A 
ATOM     26  C   UNL     1       1.387  -0.547  -0.617  0.00  0.00    +0.025 A 
ATOM     27  C   UNL     1       0.200   0.159  -0.641  0.00  0.00    +0.002 A 
ENDBRANCH  21  25
BRANCH  21  28
ATOM     28  C   UNL     1       3.695  -2.101   0.162  0.00  0.00    +0.053 A 
ATOM     29  C   UNL     1       4.758  -2.858  -0.315  0.00  0.00    +0.025 A 
ATOM     30  C   UNL     1       4.742  -4.232  -0.177  0.00  0.00    +0.002 A 
ATOM     31  C   UNL     1       3.669  -4.855   0.435  0.00  0.00    +0.000 A 
ATOM     32  C   UNL     1       2.609  -4.104   0.910  0.00  0.00    +0.002 A 
ATOM     33  C   UNL     1       2.622  -2.729   0.781  0.00  0.00    +0.025 A 
ENDBRANCH  21  28
ENDBRANCH   1  21
TORSDOF 6
