REMARK  Name = ZINC39695991
REMARK  7 active torsions:
REMARK  status: ('A' for Active; 'I' for Inactive)
REMARK    1  A    between atoms: C_1  and  C_2
REMARK    2  A    between atoms: C_2  and  C_3
REMARK    3  A    between atoms: C_6  and  C_9
REMARK    4  A    between atoms: C_9  and  C_11
REMARK    5  A    between atoms: C_9  and  N_12
REMARK    6  A    between atoms: C_13  and  C_15
REMARK    7  A    between atoms: C_26  and  C_28
REMARK                            x       y       z     vdW  Elec       q    Type
REMARK                         _______ _______ _______ _____ _____    ______ ____
ROOT
ATOM      1  C   UNL     1       2.896  -0.152   7.835  0.00  0.00    +0.100 C 
ATOM      2  C   UNL     1       2.385   1.304   7.754  0.00  0.00    +0.121 C 
ATOM      3  N   UNL     1       2.743   1.900   9.062  0.00  0.00    -0.296 N 
ATOM      4  C   UNL     1       4.083   1.345   9.366  0.00  0.00    +0.115 C 
ATOM      5  C   UNL     1       4.011  -0.120   8.894  0.00  0.00    -0.004 C 
ATOM      6  C   UNL     1       3.656  -1.035  10.062  0.00  0.00    -0.010 C 
ATOM      7  C   UNL     1       4.805  -1.030  11.075  0.00  0.00    -0.082 C 
ATOM      8  N   UNL     1       6.036  -1.492  10.422  0.00  0.00    +0.379 N 
ATOM      9  C   UNL     1       6.421  -0.557   9.359  0.00  0.00    -0.082 C 
ATOM     10  C   UNL     1       5.340  -0.541   8.274  0.00  0.00    -0.010 C 
ATOM     11  C   UNL     1       2.013   2.753   9.808  0.00  0.00    +0.247 C 
ATOM     12  O   UNL     1       0.878   3.033   9.476  0.00  0.00    -0.270 OA
ATOM     13  H   UNL     1       6.777  -1.547  11.105  0.00  0.00    -0.086 HD
ATOM     14  H   UNL     1       5.881  -2.407  10.024  0.00  0.00    -0.086 HD
ENDROOT
BRANCH  11  15
ATOM     15  C   UNL     1       2.595   3.349  11.030  0.00  0.00    +0.040 A 
ATOM     16  C   UNL     1       3.980   3.413  11.188  0.00  0.00    +0.033 A 
ATOM     17  C   UNL     1       4.517   3.970  12.332  0.00  0.00    +0.043 A 
ATOM     18  C   UNL     1       3.684   4.466  13.320  0.00  0.00    +0.040 A 
ATOM     19  C   UNL     1       2.309   4.406  13.169  0.00  0.00    +0.043 A 
ATOM     20  C   UNL     1       1.760   3.856  12.027  0.00  0.00    +0.033 A 
ATOM     21 CL   UNL     1       1.273   5.029  14.415  0.00  0.00    -0.083 Cl
ATOM     22 CL   UNL     1       6.239   4.050  12.530  0.00  0.00    -0.083 Cl
ENDBRANCH  11  15
BRANCH   1  24
ATOM     23  N   UNL     1       3.413  -1.890   6.152  0.00  0.00    -0.308 N 
ATOM     24  C   UNL     1       3.450  -0.589   6.503  0.00  0.00    +0.219 C 
ATOM     25  O   UNL     1       3.928   0.230   5.747  0.00  0.00    -0.275 OA
ATOM     26  H   UNL     1       3.031  -2.545   6.757  0.00  0.00    +0.149 HD
BRANCH  23  27
ATOM     27  C   UNL     1       3.951  -2.314   4.857  0.00  0.00    +0.100 C 
ATOM     28  C   UNL     1       5.459  -2.541   4.981  0.00  0.00    +0.033 C 
BRANCH  27  32
ATOM     29  C   UNL     1       2.061  -5.950   3.652  0.00  0.00    -0.048 A 
ATOM     30  C   UNL     1       2.320  -4.964   2.719  0.00  0.00    +0.004 A 
ATOM     31  C   UNL     1       2.931  -3.787   3.109  0.00  0.00    +0.006 A 
ATOM     32  C   UNL     1       3.284  -3.597   4.432  0.00  0.00    -0.027 A 
ATOM     33  C   UNL     1       3.024  -4.583   5.365  0.00  0.00    +0.006 A 
ATOM     34  C   UNL     1       2.409  -5.758   4.976  0.00  0.00    +0.004 A 
BRANCH  29  36
ATOM     35  C   UNL     1      -0.124  -7.080   3.337  0.00  0.00    +0.009 C 
ATOM     36  C   UNL     1       1.394  -7.233   3.226  0.00  0.00    +0.032 C 
ENDBRANCH  29  36
ENDBRANCH  27  32
ENDBRANCH  23  27
ENDBRANCH   1  24
TORSDOF 5
