REMARK  Name = ZINC67267179
REMARK  5 active torsions:
REMARK  status: ('A' for Active; 'I' for Inactive)
REMARK    1  A    between atoms: C_1  and  C_2
REMARK    2  A    between atoms: C_6  and  C_8
REMARK    3  A    between atoms: C_8  and  N_9
REMARK    4  A    between atoms: N_9  and  C_10
REMARK    5  A    between atoms: C_13  and  C_15
REMARK                            x       y       z     vdW  Elec       q    Type
REMARK                         _______ _______ _______ _____ _____    ______ ____
ROOT
ATOM      1  N   UNL     1       1.440  -3.073   2.903  0.00  0.00    -0.294 N 
ATOM      2  C   UNL     1       2.088  -4.186   2.505  0.00  0.00    +0.219 C 
ATOM      3  O   UNL     1       1.523  -4.998   1.803  0.00  0.00    -0.275 OA
ENDROOT
BRANCH   2   4
ATOM      4  C   UNL     1       3.514  -4.421   2.931  0.00  0.00    +0.075 C 
ATOM      5  C   UNL     1       4.394  -3.278   2.421  0.00  0.00    +0.015 C 
ATOM      6  C   UNL     1       5.840  -3.511   2.865  0.00  0.00    +0.036 C 
ATOM      7  C   UNL     1       6.336  -4.842   2.312  0.00  0.00    +0.112 C 
ATOM      8  C   UNL     1       5.454  -5.989   2.791  0.00  0.00    +0.036 C 
ATOM      9  C   UNL     1       4.009  -5.746   2.347  0.00  0.00    +0.015 C 
ATOM     10  C   UNL     1       6.378  -4.804   0.801  0.00  0.00    +0.244 C 
ATOM     11  O   UNL     1       5.445  -4.636   0.046  0.00  0.00    -0.273 OA
ATOM     12  N   UNL     1       7.672  -4.995   0.471  0.00  0.00    -0.238 N 
ATOM     13  C   UNL     1       8.440  -5.148   1.556  0.00  0.00    +0.307 C 
ATOM     14  O   UNL     1       9.640  -5.334   1.514  0.00  0.00    -0.252 OA
ATOM     15  N   UNL     1       7.734  -5.072   2.701  0.00  0.00    -0.285 N 
ATOM     16  H   UNL     1       8.004  -5.021  -0.440  0.00  0.00    +0.159 HD
ATOM     17  H   UNL     1       8.080  -5.152   3.603  0.00  0.00    +0.151 HD
ENDBRANCH   2   4
BRANCH   1  18
ATOM     18  C   UNL     1       2.123  -2.092   3.751  0.00  0.00    +0.077 C 
ATOM     19  C   UNL     1       1.280  -0.956   4.335  0.00  0.00    +0.024 C 
ATOM     20  C   UNL     1       2.272  -0.670   3.206  0.00  0.00    +0.024 C 
ENDBRANCH   1  18
BRANCH   1  21
ATOM     21  C   UNL     1       0.054  -2.845   2.489  0.00  0.00    +0.143 C 
BRANCH  21  27
ATOM     22  C   UNL     1      -0.018   1.503   0.010  0.00  0.00    +0.044 C 
ATOM     23  C   UNL     1       0.002  -0.004   0.002  0.00  0.00    -0.050 A 
ATOM     24  C   UNL     1       0.006  -0.689  -1.199  0.00  0.00    +0.003 A 
ATOM     25  C   UNL     1       0.025  -2.071  -1.207  0.00  0.00    +0.001 A 
ATOM     26  C   UNL     1       0.040  -2.768  -0.013  0.00  0.00    +0.005 A 
ATOM     27  C   UNL     1       0.037  -2.084   1.188  0.00  0.00    -0.030 A 
ATOM     28  C   UNL     1       0.023  -0.702   1.195  0.00  0.00    +0.008 A 
ENDBRANCH  21  27
ENDBRANCH   1  21
TORSDOF 4
