REMARK  Name = ZINC12462625
REMARK  8 active torsions:
REMARK  status: ('A' for Active; 'I' for Inactive)
REMARK    1  A    between atoms: C_1  and  C_2
REMARK    2  A    between atoms: C_9  and  C_11
REMARK    3  A    between atoms: C_14  and  N_18
REMARK    4  A    between atoms: C_16  and  O_17
REMARK    5  A    between atoms: C_19  and  C_20
REMARK    6  A    between atoms: C_24  and  O_27
REMARK    7  A    between atoms: C_25  and  O_26
REMARK    8  A    between atoms: O_27  and  C_28
REMARK                            x       y       z     vdW  Elec       q    Type
REMARK                         _______ _______ _______ _____ _____    ______ ____
ROOT
ATOM      1  C   UNL     1       0.089  -5.500   2.332  0.00  0.00    +0.078 A 
ATOM      2  C   UNL     1       0.090  -5.508   3.729  0.00  0.00    +0.019 A 
ATOM      3  C   UNL     1       0.109  -6.691   4.409  0.00  0.00    +0.029 A 
ATOM      4  C   UNL     1       0.129  -7.904   3.712  0.00  0.00    +0.067 A 
ATOM      5  C   UNL     1       0.127  -7.909   2.316  0.00  0.00    +0.074 A 
ATOM      6  C   UNL     1       0.102  -6.712   1.625  0.00  0.00    +0.131 A 
ENDROOT
BRANCH   1  15
ATOM      7  C   UNL     1      -0.018   1.503   0.010  0.00  0.00    +0.044 C 
ATOM      8  C   UNL     1       0.002  -0.004   0.002  0.00  0.00    -0.048 A 
ATOM      9  C   UNL     1       0.006  -0.687  -1.206  0.00  0.00    +0.007 A 
ATOM     10  C   UNL     1       0.025  -2.066  -1.230  0.00  0.00    +0.049 A 
ATOM     11  C   UNL     1       0.041  -2.778  -0.041  0.00  0.00    +0.156 A 
ATOM     12  C   UNL     1       0.037  -2.091   1.184  0.00  0.00    +0.110 A 
ATOM     13  C   UNL     1       0.023  -0.694   1.193  0.00  0.00    +0.035 A 
ATOM     14  N   UNL     1       0.054  -3.035   2.160  0.00  0.00    -0.209 NA
ATOM     15  C   UNL     1       0.068  -4.220   1.601  0.00  0.00    +0.232 A 
ATOM     16  O   UNL     1       0.060  -4.096   0.259  0.00  0.00    -0.435 OA
ENDBRANCH   1  15
BRANCH   6  17
ATOM     17  O   UNL     1       0.095  -6.709   0.267  0.00  0.00    -0.506 OA
ATOM     18  H   UNL     1       0.976  -6.696  -0.131  0.00  0.00    +0.292 HD
ENDBRANCH   6  17
BRANCH   4  19
ATOM     19  N   UNL     1       0.149  -9.085   4.399  0.00  0.00    -0.255 NA
ATOM     20  C   UNL     1       0.952  -9.235   5.417  0.00  0.00    +0.123 C 
BRANCH  20  21
ATOM     21  C   UNL     1       0.973 -10.506   6.155  0.00  0.00    +0.039 A 
ATOM     22  C   UNL     1       1.829 -10.668   7.251  0.00  0.00    +0.028 A 
ATOM     23  C   UNL     1       1.846 -11.861   7.940  0.00  0.00    +0.022 A 
ATOM     24  C   UNL     1       1.019 -12.905   7.554  0.00  0.00    +0.064 A 
ATOM     25  C   UNL     1       0.167 -12.759   6.472  0.00  0.00    +0.163 A 
ATOM     26  C   UNL     1       0.133 -11.559   5.769  0.00  0.00    +0.167 A 
ATOM     27 BR   UNL     1       3.003 -12.077   9.420  0.00  0.00    -0.050 Br
BRANCH  26  28
ATOM     28  O   UNL     1      -0.706 -11.411   4.712  0.00  0.00    -0.503 OA
ATOM     29  H   UNL     1      -0.320 -11.672   3.864  0.00  0.00    +0.292 HD
ENDBRANCH  26  28
BRANCH  25  30
ATOM     30  O   UNL     1      -0.641 -13.788   6.099  0.00  0.00    -0.491 OA
ATOM     31  C   UNL     1      -0.558 -14.989   6.869  0.00  0.00    +0.277 C 
ENDBRANCH  25  30
ENDBRANCH  20  21
ENDBRANCH   4  19
TORSDOF 6
