REMARK  Name = ZINC10742813
REMARK  5 active torsions:
REMARK  status: ('A' for Active; 'I' for Inactive)
REMARK    1  A    between atoms: C_5  and  N_7
REMARK    2  A    between atoms: N_7  and  C_8
REMARK    3  A    between atoms: C_8  and  N_10
REMARK    4  A    between atoms: N_10  and  N_11
REMARK    5  A    between atoms: C_12  and  C_14
REMARK                            x       y       z     vdW  Elec       q    Type
REMARK                         _______ _______ _______ _____ _____    ______ ____
ROOT
ATOM      1  C   UNL     1      -0.036  -0.022  -0.343  0.00  0.00    +0.058 A 
ATOM      2  C   UNL     1      -1.238  -0.697  -0.591  0.00  0.00    +0.045 A 
ATOM      3  C   UNL     1      -1.208  -2.041  -0.852  0.00  0.00    +0.135 A 
ATOM      4  C   UNL     1      -0.010  -2.744  -0.863  0.00  0.00    +0.063 A 
ATOM      5  C   UNL     1       1.188  -2.077  -0.637  0.00  0.00    +0.046 A 
ATOM      6  C   UNL     1       1.175  -0.721  -0.381  0.00  0.00    +0.055 A 
ATOM      7 CL   UNL     1       2.668   0.119  -0.098  0.00  0.00    -0.083 Cl
ATOM      8  N   UNL     1      -0.006  -4.141  -1.078  0.00  0.00    -0.286 N 
ATOM      9  C   UNL     1       1.041  -4.829  -0.353  0.00  0.00    +0.112 C 
ATOM     10  C   UNL     1       0.889  -6.227   0.058  0.00  0.00    +0.019 C 
ATOM     11  C   UNL     1       0.327  -7.301  -0.798  0.00  0.00    +0.002 C 
ATOM     12  C   UNL     1       0.162  -7.083  -2.274  0.00  0.00    +0.008 C 
ATOM     13  C   UNL     1      -0.580  -5.896  -2.700  0.00  0.00    +0.073 C 
ATOM     14  C   UNL     1      -0.916  -4.720  -1.889  0.00  0.00    +0.124 C 
ATOM     15  N   UNL     1      -2.146  -4.298  -2.008  0.00  0.00    -0.118 NA
ATOM     16  S   UNL     1      -2.679  -2.948  -1.211  0.00  0.00    +0.102 S 
ATOM     17  O   UNL     1      -3.215  -3.382   0.032  0.00  0.00    -0.146 OA
ATOM     18  O   UNL     1      -3.425  -2.179  -2.144  0.00  0.00    -0.146 OA
ENDROOT
BRANCH   1  20
ATOM     19  N   UNL     1      -1.213   2.098  -0.023  0.00  0.00    -0.231 N 
ATOM     20  C   UNL     1      -0.046   1.423  -0.048  0.00  0.00    +0.262 C 
ATOM     21  O   UNL     1       0.998   2.008   0.167  0.00  0.00    -0.269 OA
ATOM     22  H   UNL     1      -2.046   1.632  -0.199  0.00  0.00    +0.173 HD
BRANCH  19  23
ATOM     23  N   UNL     1      -1.223   3.470   0.257  0.00  0.00    -0.245 N 
ATOM     24  H   UNL     1      -0.391   3.936   0.432  0.00  0.00    +0.172 HD
BRANCH  23  25
ATOM     25  C   UNL     1      -2.390   4.144   0.282  0.00  0.00    +0.151 C 
ATOM     26  S   UNL     1      -2.402   5.822   0.624  0.00  0.00    -0.017 S 
BRANCH  25  27
ATOM     27  N   UNL     1      -3.547   3.498   0.038  0.00  0.00    -0.294 N 
ATOM     28  H   UNL     1      -3.535   2.562  -0.218  0.00  0.00    +0.154 HD
BRANCH  27  33
ATOM     29  C   UNL     1      -6.130   6.092  -0.319  0.00  0.00    +0.002 A 
ATOM     30  C   UNL     1      -7.176   5.520   0.382  0.00  0.00    +0.003 A 
ATOM     31  C   UNL     1      -7.022   4.278   0.969  0.00  0.00    +0.040 A 
ATOM     32  C   UNL     1      -5.820   3.603   0.857  0.00  0.00    +0.144 A 
ATOM     33  C   UNL     1      -4.766   4.177   0.153  0.00  0.00    +0.068 A 
ATOM     34  C   UNL     1      -4.925   5.426  -0.430  0.00  0.00    +0.026 A 
ATOM     35  F   UNL     1      -5.669   2.390   1.431  0.00  0.00    -0.204 F 
ENDBRANCH  27  33
ENDBRANCH  25  27
ENDBRANCH  23  25
ENDBRANCH  19  23
ENDBRANCH   1  20
TORSDOF 5
