REMARK  Name = ZINC36589089
REMARK  16 active torsions:
REMARK  status: ('A' for Active; 'I' for Inactive)
REMARK    1  A    between atoms: C_1  and  C_2
REMARK    2  A    between atoms: C_5  and  C_9
REMARK    3  A    between atoms: C_6  and  C_8
REMARK    4  A    between atoms: C_9  and  C_11
REMARK    5  A    between atoms: C_9  and  N_18
REMARK    6  A    between atoms: N_13  and  C_14
REMARK    7  A    between atoms: C_14  and  C_15
REMARK    8  A    between atoms: C_14  and  C_16
REMARK    9  A    between atoms: C_14  and  C_17
REMARK   10  A    between atoms: N_18  and  C_25
REMARK   11  A    between atoms: C_19  and  C_21
REMARK   12  A    between atoms: C_22  and  C_23
REMARK   13  A    between atoms: C_22  and  C_24
REMARK   14  A    between atoms: C_25  and  C_26
REMARK   15  A    between atoms: C_25  and  C_27
REMARK   16  A    between atoms: C_25  and  C_28
REMARK                            x       y       z     vdW  Elec       q    Type
REMARK                         _______ _______ _______ _____ _____    ______ ____
ROOT
ATOM      1  C   UNL     1       0.466  -5.402   0.205  0.00  0.00    +0.193 C 
ENDROOT
BRANCH   1   6
ATOM      2  C   UNL     1       2.790  -0.130   0.659  0.00  0.00    +0.044 C 
ATOM      3  C   UNL     1       2.184  -1.505   0.541  0.00  0.00    -0.050 A 
ATOM      4  C   UNL     1       2.961  -2.570   0.124  0.00  0.00    +0.004 A 
ATOM      5  C   UNL     1       2.406  -3.830   0.015  0.00  0.00    +0.006 A 
ATOM      6  C   UNL     1       1.072  -4.027   0.325  0.00  0.00    -0.015 A 
ATOM      7  C   UNL     1       0.296  -2.963   0.743  0.00  0.00    -0.045 A 
ATOM      8  C   UNL     1       0.853  -1.703   0.855  0.00  0.00    +0.007 A 
ATOM      9  C   UNL     1      -1.158  -3.178   1.079  0.00  0.00    +0.044 C 
ENDBRANCH   1   6
BRANCH   1  10
ATOM     10  C   UNL     1       1.552  -6.441   0.315  0.00  0.00    +0.239 C 
ATOM     11  O   UNL     1       1.841  -7.120  -0.648  0.00  0.00    -0.273 OA
ATOM     12  N   UNL     1       2.202  -6.616   1.482  0.00  0.00    -0.309 N 
ATOM     13  H   UNL     1       1.925  -6.123   2.271  0.00  0.00    +0.149 HD
BRANCH  12  14
ATOM     14  C   UNL     1       3.329  -7.549   1.561  0.00  0.00    +0.026 C 
ATOM     15  C   UNL     1       4.426  -7.108   0.589  0.00  0.00    +0.031 C 
ATOM     16  C   UNL     1       3.884  -7.559   2.986  0.00  0.00    +0.031 C 
ATOM     17  C   UNL     1       2.853  -8.955   1.188  0.00  0.00    +0.031 C 
ENDBRANCH  12  14
ENDBRANCH   1  10
BRANCH   1  18
ATOM     18  N   UNL     1      -0.203  -5.530  -1.092  0.00  0.00    -0.277 N 
ATOM     19  C   UNL     1       0.459  -5.221  -2.225  0.00  0.00    +0.241 C 
ATOM     20  O   UNL     1       1.642  -4.945  -2.182  0.00  0.00    -0.271 OA
BRANCH  19  21
ATOM     21  C   UNL     1      -0.251  -5.218  -3.513  0.00  0.00    +0.066 C 
ATOM     22  C   UNL     1       0.388  -4.859  -4.623  0.00  0.00    -0.071 C 
ATOM     23  C   UNL     1       1.785  -4.302  -4.542  0.00  0.00    +0.039 C 
ATOM     24  C   UNL     1      -0.286  -5.010  -5.962  0.00  0.00    +0.039 C 
ENDBRANCH  19  21
BRANCH  18  25
ATOM     25  C   UNL     1      -1.591  -5.993  -1.157  0.00  0.00    +0.030 C 
ATOM     26  C   UNL     1      -2.078  -6.345   0.250  0.00  0.00    +0.031 C 
ATOM     27  C   UNL     1      -2.472  -4.885  -1.739  0.00  0.00    +0.031 C 
ATOM     28  C   UNL     1      -1.674  -7.232  -2.051  0.00  0.00    +0.031 C 
ENDBRANCH  18  25
ENDBRANCH   1  18
TORSDOF 6
