REMARK  Name = ZINC13496448
REMARK  8 active torsions:
REMARK  status: ('A' for Active; 'I' for Inactive)
REMARK    1  A    between atoms: C_1  and  C_2
REMARK    2  A    between atoms: C_2  and  C_3
REMARK    3  A    between atoms: C_2  and  C_4
REMARK    4  A    between atoms: C_2  and  N_5
REMARK    5  A    between atoms: C_6  and  C_10
REMARK    6  A    between atoms: C_10  and  C_12
REMARK    7  A    between atoms: C_10  and  N_19
REMARK    8  A    between atoms: C_15  and  O_18
REMARK                            x       y       z     vdW  Elec       q    Type
REMARK                         _______ _______ _______ _____ _____    ______ ____
ROOT
ATOM      1  C   UNL     1       3.645   0.561  -0.241  0.00  0.00    +0.157 C 
ENDROOT
BRANCH   1   2
ATOM      2  N   UNL     1       4.343  -0.318   0.706  0.00  0.00    -0.286 NA
ATOM      3  C   UNL     1       3.936  -0.033   2.089  0.00  0.00    +0.104 C 
ATOM      4  C   UNL     1       4.624  -1.020   3.035  0.00  0.00    +0.122 C 
ATOM      5  N   UNL     1       6.082  -0.904   2.884  0.00  0.00    -0.307 N 
ATOM      6  C   UNL     1       6.489  -1.190   1.501  0.00  0.00    +0.122 C 
ATOM      7  C   UNL     1       5.801  -0.203   0.555  0.00  0.00    +0.104 C 
ATOM      8  C   UNL     1       6.738  -1.730   3.773  0.00  0.00    +0.162 A 
ATOM      9  N   UNL     1       6.639  -1.775   5.082  0.00  0.00    -0.225 NA
ATOM     10  C   UNL     1       7.349  -2.645   5.834  0.00  0.00    +0.080 A 
ATOM     11  C   UNL     1       7.337  -2.797   7.240  0.00  0.00    +0.029 A 
ATOM     12  C   UNL     1       8.125  -3.737   7.850  0.00  0.00    +0.002 A 
ATOM     13  C   UNL     1       8.959  -4.570   7.117  0.00  0.00    +0.001 A 
ATOM     14  C   UNL     1       8.997  -4.448   5.740  0.00  0.00    +0.017 A 
ATOM     15  C   UNL     1       8.210  -3.510   5.121  0.00  0.00    +0.041 A 
ATOM     16  S   UNL     1       7.933  -3.016   3.437  0.00  0.00    -0.052 S 
ENDBRANCH   1   2
BRANCH   1  17
ATOM     17  C   UNL     1       4.016   0.177  -1.650  0.00  0.00    -0.023 A 
ATOM     18  C   UNL     1       3.977  -1.149  -2.037  0.00  0.00    +0.009 A 
ATOM     19  C   UNL     1       4.311  -1.503  -3.330  0.00  0.00    +0.046 A 
ATOM     20  C   UNL     1       4.698  -0.527  -4.237  0.00  0.00    +0.117 A 
ATOM     21  C   UNL     1       4.742   0.803  -3.844  0.00  0.00    +0.046 A 
ATOM     22  C   UNL     1       4.401   1.152  -2.552  0.00  0.00    +0.009 A 
BRANCH  20  23
ATOM     23  O   UNL     1       5.034  -0.873  -5.508  0.00  0.00    -0.507 OA
ATOM     24  H   UNL     1       5.340  -0.098  -6.226  0.00  0.00    +0.292 HD
ENDBRANCH  20  23
ENDBRANCH   1  17
BRANCH   1  26
ATOM     25  N   UNL     1       1.276   1.405   0.182  0.00  0.00    -0.222 N 
ATOM     26  C   UNL     1       2.156   0.416  -0.056  0.00  0.00    +0.173 A 
ATOM     27  N   UNL     1       1.467  -0.699  -0.098  0.00  0.00    -0.111 NA
ATOM     28  N   UNL     1       0.229  -0.409   0.105  0.00  0.00    -0.023 NA
ATOM     29  N   UNL     1       0.109   0.862   0.275  0.00  0.00    -0.043 NA
BRANCH  25  31
ATOM     30  C   UNL     1       0.290   3.614   0.547  0.00  0.00    +0.036 C 
ATOM     31  C   UNL     1       1.584   2.832   0.313  0.00  0.00    +0.059 C 
ATOM     32  C   UNL     1       2.529   3.043   1.497  0.00  0.00    +0.036 C 
ATOM     33  C   UNL     1       2.255   3.328  -0.970  0.00  0.00    +0.036 C 
ENDBRANCH  25  31
ENDBRANCH   1  26
TORSDOF 5
