REMARK  Name = ZINC40337727
REMARK  7 active torsions:
REMARK  status: ('A' for Active; 'I' for Inactive)
REMARK    1  A    between atoms: C_1  and  C_2
REMARK    2  A    between atoms: C_2  and  O_3
REMARK    3  A    between atoms: O_3  and  C_4
REMARK    4  A    between atoms: C_8  and  C_10
REMARK    5  A    between atoms: C_13  and  C_31
REMARK    6  A    between atoms: N_20  and  C_21
REMARK    7  A    between atoms: C_21  and  C_22
REMARK                            x       y       z     vdW  Elec       q    Type
REMARK                         _______ _______ _______ _____ _____    ______ ____
ROOT
ATOM      1  C   UNL     1       2.275  -4.298   3.754  0.00  0.00    +0.142 C 
ATOM      2  C   UNL     1       1.273  -4.764   4.774  0.00  0.00    +0.035 A 
ATOM      3  C   UNL     1       0.223  -4.428   5.635  0.00  0.00    +0.099 A 
ATOM      4  N   UNL     1      -0.151  -5.533   6.251  0.00  0.00    -0.173 NA
ATOM      5  N   UNL     1       0.559  -6.532   5.864  0.00  0.00    -0.272 N 
ATOM      6  H   UNL     1       0.461  -7.442   6.184  0.00  0.00    +0.189 HD
ATOM      7  C   UNL     1       1.474  -6.122   4.936  0.00  0.00    +0.126 A 
ATOM      8  C   UNL     1       2.570  -6.540   4.056  0.00  0.00    +0.266 C 
ATOM      9  O   UNL     1       2.992  -7.677   3.964  0.00  0.00    -0.268 OA
ATOM     10  N   UNL     1       3.044  -5.486   3.363  0.00  0.00    -0.281 N 
ENDROOT
BRANCH   1  15
ATOM     11  C   UNL     1       0.802  -1.824   1.306  0.00  0.00    +0.121 A 
ATOM     12  C   UNL     1       0.260  -2.673   0.351  0.00  0.00    +0.045 A 
ATOM     13  C   UNL     1       0.372  -4.041   0.501  0.00  0.00    +0.004 A 
ATOM     14  C   UNL     1       1.024  -4.566   1.602  0.00  0.00    +0.006 A 
ATOM     15  C   UNL     1       1.565  -3.723   2.555  0.00  0.00    -0.019 A 
ATOM     16  C   UNL     1       1.460  -2.353   2.406  0.00  0.00    +0.051 A 
BRANCH  11  17
ATOM     17  O   UNL     1       0.693  -0.477   1.160  0.00  0.00    -0.492 OA
BRANCH  17  19
ATOM     18  C   UNL     1      -0.019   1.526   0.010  0.00  0.00    +0.048 C 
ATOM     19  C   UNL     1       0.002  -0.004   0.002  0.00  0.00    +0.225 C 
ENDBRANCH  17  19
ENDBRANCH  11  17
ENDBRANCH   1  15
BRANCH   3  20
ATOM     20  C   UNL     1      -0.363  -3.077   5.821  0.00  0.00    +0.002 A 
ATOM     21  C   UNL     1       0.448  -1.947   5.745  0.00  0.00    +0.010 A 
ATOM     22  C   UNL     1      -0.102  -0.693   5.918  0.00  0.00    +0.001 A 
ATOM     23  C   UNL     1      -1.456  -0.557   6.167  0.00  0.00    +0.000 A 
ATOM     24  C   UNL     1      -2.266  -1.676   6.244  0.00  0.00    +0.001 A 
ATOM     25  C   UNL     1      -1.727  -2.934   6.066  0.00  0.00    +0.010 A 
ENDBRANCH   3  20
BRANCH  10  26
ATOM     26  C   UNL     1       4.137  -5.519   2.389  0.00  0.00    +0.144 C 
BRANCH  26  27
ATOM     27  C   UNL     1       5.446  -5.268   3.093  0.00  0.00    -0.026 A 
ATOM     28  C   UNL     1       5.914  -3.975   3.237  0.00  0.00    +0.009 A 
ATOM     29  C   UNL     1       7.113  -3.739   3.882  0.00  0.00    +0.050 A 
ATOM     30  C   UNL     1       7.849  -4.798   4.387  0.00  0.00    +0.166 A 
ATOM     31  C   UNL     1       7.378  -6.101   4.242  0.00  0.00    +0.167 A 
ATOM     32  C   UNL     1       6.172  -6.329   3.599  0.00  0.00    +0.054 A 
ATOM     33  O   UNL     1       8.274  -6.956   4.816  0.00  0.00    -0.453 OA
ATOM     34  C   UNL     1       9.492  -6.201   4.952  0.00  0.00    +0.466 C 
ATOM     35  O   UNL     1       9.041  -4.837   5.052  0.00  0.00    -0.453 OA
ENDBRANCH  26  27
ENDBRANCH  10  26
TORSDOF 6
