REMARK  Name = ZINC12776053
REMARK  5 active torsions:
REMARK  status: ('A' for Active; 'I' for Inactive)
REMARK    1  A    between atoms: C_9  and  S_10
REMARK    2  A    between atoms: S_10  and  C_11
REMARK    3  A    between atoms: C_11  and  C_12
REMARK    4  A    between atoms: C_12  and  C_14
REMARK    5  A    between atoms: C_14  and  C_25
REMARK                            x       y       z     vdW  Elec       q    Type
REMARK                         _______ _______ _______ _____ _____    ______ ____
ROOT
ATOM      1  C   UNL     1      -0.017   1.403   0.010  0.00  0.00    +0.123 C 
ATOM      2  C   UNL     1       0.002  -0.004   0.002  0.00  0.00    +0.091 C 
ATOM      3  N   UNL     1       1.079  -0.832  -0.013  0.00  0.00    -0.307 N 
ATOM      4  C   UNL     1       0.901  -2.202  -0.018  0.00  0.00    +0.047 A 
ATOM      5  C   UNL     1       1.881  -3.208  -0.033  0.00  0.00    +0.044 A 
ATOM      6  C   UNL     1       1.525  -4.536  -0.036  0.00  0.00    +0.043 A 
ATOM      7  C   UNL     1       0.194  -4.923  -0.025  0.00  0.00    +0.021 A 
ATOM      8  C   UNL     1      -0.792  -3.952  -0.011  0.00  0.00    +0.018 A 
ATOM      9  C   UNL     1      -0.437  -2.624  -0.008  0.00  0.00    +0.035 A 
ATOM     10  S   UNL     1      -1.343  -1.098   0.017  0.00  0.00    -0.071 S 
ATOM     11 CL   UNL     1       2.765  -5.751  -0.053  0.00  0.00    -0.083 Cl
ATOM     12  H   UNL     1       1.975  -0.461  -0.020  0.00  0.00    +0.153 HD
ENDROOT
BRANCH   1  13
ATOM     13  C   UNL     1      -1.243   2.089   0.019  0.00  0.00    +0.186 C 
ATOM     14  O   UNL     1      -2.287   1.467   0.021  0.00  0.00    -0.290 OA
BRANCH  13  15
ATOM     15  C   UNL     1      -1.263   3.596   0.028  0.00  0.00    +0.157 C 
BRANCH  15  16
ATOM     16  S   UNL     1      -2.981   4.177   0.039  0.00  0.00    -0.078 S 
BRANCH  16  25
ATOM     17  C   UNL     1      -5.442   9.087   0.078  0.00  0.00    +0.005 A 
ATOM     18  C   UNL     1      -6.013   7.801   0.073  0.00  0.00    +0.018 A 
ATOM     19  C   UNL     1      -5.227   6.705   0.063  0.00  0.00    +0.095 A 
ATOM     20  N   UNL     1      -3.866   6.828   0.058  0.00  0.00    -0.278 N 
ATOM     21  C   UNL     1      -3.278   8.076   0.062  0.00  0.00    +0.162 A 
ATOM     22  C   UNL     1      -4.090   9.228   0.073  0.00  0.00    +0.049 A 
ATOM     23  N   UNL     1      -1.972   7.884   0.055  0.00  0.00    -0.129 NA
ATOM     24  N   UNL     1      -1.719   6.623   0.052  0.00  0.00    -0.122 NA
ATOM     25  C   UNL     1      -2.837   5.933   0.048  0.00  0.00    +0.196 A 
ENDBRANCH  16  25
ENDBRANCH  15  16
ENDBRANCH  13  15
ENDBRANCH   1  13
BRANCH   1  26
ATOM     26  C   UNL     1       1.213   2.136   0.002  0.00  0.00    +0.105 C 
ATOM     27  N   UNL     1       2.189   2.717  -0.004  0.00  0.00    -0.191 NA
ENDBRANCH   1  26
TORSDOF 5
