REMARK  Name = ZINC23768397
REMARK  11 active torsions:
REMARK  status: ('A' for Active; 'I' for Inactive)
REMARK    1  A    between atoms: C_1  and  C_2
REMARK    2  A    between atoms: C_2  and  C_3
REMARK    3  A    between atoms: C_2  and  C_4
REMARK    4  A    between atoms: C_7  and  C_10
REMARK    5  A    between atoms: C_10  and  C_12
REMARK    6  A    between atoms: C_10  and  N_15
REMARK    7  A    between atoms: C_12  and  C_13
REMARK    8  A    between atoms: C_12  and  C_14
REMARK    9  A    between atoms: C_16  and  C_18
REMARK   10  A    between atoms: C_18  and  C_19
REMARK   11  A    between atoms: N_28  and  C_30
REMARK                            x       y       z     vdW  Elec       q    Type
REMARK                         _______ _______ _______ _____ _____    ______ ____
ROOT
ATOM      1  N   UNL     1      -5.972  -1.947  -1.312  0.00  0.00    -0.308 N 
ATOM      2  C   UNL     1      -7.305  -1.869  -1.494  0.00  0.00    +0.219 C 
ATOM      3  O   UNL     1      -8.047  -1.846  -0.535  0.00  0.00    -0.275 OA
ATOM      4  H   UNL     1      -5.378  -1.965  -2.079  0.00  0.00    +0.149 HD
ENDROOT
BRANCH   1   5
ATOM      5  C   UNL     1      -5.419  -2.005   0.043  0.00  0.00    +0.106 C 
BRANCH   5   9
ATOM      6  C   UNL     1      -1.412  -0.526   0.013  0.00  0.00    -0.045 A 
ATOM      7  C   UNL     1      -2.259  -0.204   1.056  0.00  0.00    +0.004 A 
ATOM      8  C   UNL     1      -3.556  -0.683   1.066  0.00  0.00    +0.006 A 
ATOM      9  C   UNL     1      -4.006  -1.482   0.032  0.00  0.00    -0.027 A 
ATOM     10  C   UNL     1      -3.159  -1.803  -1.012  0.00  0.00    +0.006 A 
ATOM     11  C   UNL     1      -1.863  -1.321  -1.024  0.00  0.00    +0.004 A 
BRANCH   6  13
ATOM     12  C   UNL     1      -0.019   1.526   0.010  0.00  0.00    +0.012 C 
ATOM     13  C   UNL     1       0.002  -0.004   0.002  0.00  0.00    +0.013 C 
ATOM     14  C   UNL     1       0.742  -0.511   1.242  0.00  0.00    +0.012 C 
ENDBRANCH   6  13
ENDBRANCH   5   9
BRANCH   5  15
ATOM     15  C   UNL     1      -5.423  -3.454   0.535  0.00  0.00    +0.008 C 
ATOM     16  C   UNL     1      -4.846  -3.514   1.950  0.00  0.00    +0.009 C 
ATOM     17  C   UNL     1      -6.859  -3.984   0.546  0.00  0.00    +0.009 C 
ENDBRANCH   5  15
ENDBRANCH   1   5
BRANCH   2  18
ATOM     18  C   UNL     1      -7.874  -1.809  -2.888  0.00  0.00    +0.153 C 
BRANCH  18  19
ATOM     19  C   UNL     1      -9.377  -1.726  -2.814  0.00  0.00    +0.078 A 
ATOM     20  C   UNL     1     -10.166  -1.664  -4.044  0.00  0.00    +0.011 A 
ATOM     21  C   UNL     1      -9.569  -1.679  -5.306  0.00  0.00    +0.010 A 
ATOM     22  C   UNL     1     -10.350  -1.619  -6.426  0.00  0.00    +0.001 A 
ATOM     23  C   UNL     1     -11.733  -1.542  -6.327  0.00  0.00    +0.001 A 
ATOM     24  C   UNL     1     -12.351  -1.525  -5.096  0.00  0.00    +0.014 A 
ATOM     25  C   UNL     1     -11.574  -1.587  -3.940  0.00  0.00    +0.050 A 
ATOM     26  C   UNL     1     -12.172  -1.573  -2.599  0.00  0.00    +0.275 A 
ATOM     27  O   UNL     1     -13.380  -1.508  -2.459  0.00  0.00    -0.266 OA
ATOM     28  N   UNL     1     -11.357  -1.635  -1.525  0.00  0.00    -0.232 N 
ATOM     29  N   UNL     1      -9.971  -1.716  -1.659  0.00  0.00    -0.172 NA
ATOM     30  C   UNL     1     -11.945  -1.622  -0.183  0.00  0.00    +0.176 C 
ENDBRANCH  18  19
ENDBRANCH   2  18
TORSDOF 6
