REMARK  Name = ZINC24770980
REMARK  12 active torsions:
REMARK  status: ('A' for Active; 'I' for Inactive)
REMARK    1  A    between atoms: C_1  and  O_2
REMARK    2  A    between atoms: O_2  and  C_3
REMARK    3  A    between atoms: C_3  and  C_4
REMARK    4  A    between atoms: C_4  and  N_5
REMARK    5  A    between atoms: C_6  and  N_35
REMARK    6  A    between atoms: C_7  and  C_14
REMARK    7  A    between atoms: C_14  and  C_16
REMARK    8  A    between atoms: C_16  and  S_17
REMARK    9  A    between atoms: S_17  and  C_18
REMARK   10  A    between atoms: C_21  and  C_30
REMARK   11  A    between atoms: N_22  and  C_23
REMARK   12  A    between atoms: C_23  and  C_24
REMARK                            x       y       z     vdW  Elec       q    Type
REMARK                         _______ _______ _______ _____ _____    ______ ____
ROOT
ATOM      1  C   UNL     1      -5.520   3.114  -3.463  0.00  0.00    +0.157 C 
ENDROOT
BRANCH   1   2
ATOM      2  C   UNL     1      -5.248   2.765  -2.023  0.00  0.00    +0.182 C 
ATOM      3  O   UNL     1      -5.463   3.581  -1.149  0.00  0.00    -0.291 OA
BRANCH   2   6
ATOM      4  N   UNL     1      -3.882  -0.065  -0.096  0.00  0.00    -0.279 N 
ATOM      5  C   UNL     1      -4.370   1.181  -0.369  0.00  0.00    +0.116 A 
ATOM      6  C   UNL     1      -4.742   1.491  -1.689  0.00  0.00    +0.120 A 
ATOM      7  C   UNL     1      -4.593   0.444  -2.708  0.00  0.00    +0.266 A 
ATOM      8  O   UNL     1      -4.902   0.656  -3.866  0.00  0.00    -0.267 OA
ATOM      9  N   UNL     1      -4.104  -0.757  -2.334  0.00  0.00    -0.274 N 
ATOM     10  H   UNL     1      -3.982  -1.557  -3.079  0.00  0.00    +0.173 HD
ATOM     11  C   UNL     1      -3.761  -0.994  -1.058  0.00  0.00    +0.331 A 
ATOM     12  O   UNL     1      -3.326  -2.089  -0.762  0.00  0.00    -0.246 OA
BRANCH   5  13
ATOM     13  N   UNL     1      -4.491   2.108   0.619  0.00  0.00    -0.344 N 
ATOM     14  H   UNL     1      -4.885   3.109   0.389  0.00  0.00    +0.144 HD
ATOM     15  H   UNL     1      -4.194   1.857   1.648  0.00  0.00    +0.144 HD
ENDBRANCH   5  13
BRANCH   4  16
ATOM     16  C   UNL     1      -3.487  -0.397   1.275  0.00  0.00    +0.156 C 
BRANCH  16  17
ATOM     17  C   UNL     1      -2.010  -0.054   1.478  0.00  0.00    +0.181 C 
BRANCH  17  19
ATOM     18  C   UNL     1      -0.477   1.788   1.538  0.00  0.00    +0.194 C 
ATOM     19  O   UNL     1      -1.829   1.359   1.364  0.00  0.00    -0.381 OA
ENDBRANCH  17  19
ENDBRANCH  16  17
ENDBRANCH   4  16
ENDBRANCH   2   6
ENDBRANCH   1   2
BRANCH   1  20
ATOM     20  S   UNL     1      -6.157   4.806  -3.564  0.00  0.00    -0.078 S 
BRANCH  20  21
ATOM     21  C   UNL     1      -6.382   4.944  -5.306  0.00  0.00    +0.193 A 
ATOM     22  N   UNL     1      -6.127   4.017  -6.201  0.00  0.00    -0.122 NA
ATOM     23  N   UNL     1      -6.405   4.449  -7.378  0.00  0.00    -0.128 NA
ATOM     24  C   UNL     1      -6.855   5.683  -7.309  0.00  0.00    +0.172 A 
ATOM     25  N   UNL     1      -6.859   6.036  -5.978  0.00  0.00    -0.297 N 
BRANCH  24  26
ATOM     26  C   UNL     1      -7.280   6.524  -8.439  0.00  0.00    +0.056 A 
ATOM     27  C   UNL     1      -7.590   6.155  -9.724  0.00  0.00    +0.019 A 
ATOM     28  C   UNL     1      -7.966   7.131 -10.619  0.00  0.00    +0.008 A 
ATOM     29  C   UNL     1      -8.019   8.424 -10.206  0.00  0.00    +0.046 A 
ATOM     30  S   UNL     1      -7.533   8.291  -8.493  0.00  0.00    -0.094 S 
ENDBRANCH  24  26
BRANCH  25  31
ATOM     31  C   UNL     1      -7.283   7.314  -5.402  0.00  0.00    +0.161 C 
BRANCH  31  32
ATOM     32  C   UNL     1      -8.720   7.214  -4.960  0.00  0.00    -0.028 A 
ATOM     33  C   UNL     1      -9.739   7.442  -5.865  0.00  0.00    +0.005 A 
ATOM     34  C   UNL     1     -11.057   7.345  -5.461  0.00  0.00    +0.000 A 
ATOM     35  C   UNL     1     -11.356   7.031  -4.148  0.00  0.00    +0.000 A 
ATOM     36  C   UNL     1     -10.337   6.809  -3.241  0.00  0.00    +0.000 A 
ATOM     37  C   UNL     1      -9.019   6.901  -3.647  0.00  0.00    +0.005 A 
ENDBRANCH  31  32
ENDBRANCH  25  31
ENDBRANCH  20  21
ENDBRANCH   1  20
TORSDOF 11
