REMARK  Name = ZINC32642988
REMARK  7 active torsions:
REMARK  status: ('A' for Active; 'I' for Inactive)
REMARK    1  A    between atoms: C_1  and  C_2
REMARK    2  A    between atoms: C_2  and  C_33
REMARK    3  A    between atoms: C_5  and  C_8
REMARK    4  A    between atoms: C_8  and  N_9
REMARK    5  A    between atoms: C_10  and  C_12
REMARK    6  A    between atoms: N_22  and  S_23
REMARK    7  A    between atoms: S_23  and  C_26
REMARK                            x       y       z     vdW  Elec       q    Type
REMARK                         _______ _______ _______ _____ _____    ______ ____
ROOT
ATOM      1  C   UNL     1      -1.717   1.522  -2.095  0.00  0.00    +0.170 C 
ATOM      2  C   UNL     1      -1.566   1.657  -3.603  0.00  0.00    +0.065 C 
ATOM      3  C   UNL     1      -1.161   3.058  -3.979  0.00  0.00    -0.041 A 
ATOM      4  C   UNL     1      -1.377   3.461  -5.292  0.00  0.00    +0.004 A 
ATOM      5  C   UNL     1      -1.006   4.722  -5.708  0.00  0.00    +0.000 A 
ATOM      6  C   UNL     1      -0.414   5.595  -4.815  0.00  0.00    +0.000 A 
ATOM      7  C   UNL     1      -0.204   5.200  -3.510  0.00  0.00    +0.005 A 
ATOM      8  C   UNL     1      -0.581   3.932  -3.088  0.00  0.00    -0.028 A 
ATOM      9  C   UNL     1      -0.333   3.568  -1.646  0.00  0.00    +0.145 C 
ATOM     10  N   UNL     1      -0.535   2.127  -1.458  0.00  0.00    -0.160 NA
ENDROOT
BRANCH   1  12
ATOM     11  N   UNL     1      -2.812  -0.372  -0.941  0.00  0.00    -0.311 N 
ATOM     12  C   UNL     1      -1.805   0.064  -1.723  0.00  0.00    +0.232 C 
ATOM     13  O   UNL     1      -0.970  -0.717  -2.128  0.00  0.00    -0.274 OA
ATOM     14  H   UNL     1      -3.570   0.335  -0.574  0.00  0.00    +0.149 HD
BRANCH  11  15
ATOM     15  C   UNL     1      -2.898  -1.790  -0.580  0.00  0.00    +0.138 C 
BRANCH  15  20
ATOM     16  C   UNL     1      -3.389  -2.328   3.611  0.00  0.00    +0.074 C 
ATOM     17  C   UNL     1      -4.503  -2.091   2.590  0.00  0.00    +0.165 C 
ATOM     18  O   UNL     1      -4.926  -3.348   2.036  0.00  0.00    -0.347 OA
ATOM     19  C   UNL     1      -4.175  -3.482   0.806  0.00  0.00    +0.196 C 
ATOM     20  C   UNL     1      -4.124  -2.017   0.307  0.00  0.00    +0.164 C 
ATOM     21  O   UNL     1      -4.016  -1.259   1.529  0.00  0.00    -0.342 OA
ATOM     22  C   UNL     1      -5.688  -1.407   3.277  0.00  0.00    +0.074 C 
ENDBRANCH  15  20
ENDBRANCH  11  15
ENDBRANCH   1  12
BRANCH  10  23
ATOM     23  S   UNL     1       0.528   1.216  -0.573  0.00  0.00    +0.062 S 
ATOM     24  O   UNL     1       1.208   2.114   0.293  0.00  0.00    -0.153 OA
ATOM     25  O   UNL     1      -0.202   0.097  -0.090  0.00  0.00    -0.153 OA
BRANCH  23  26
ATOM     26  C   UNL     1       1.733   0.587  -1.693  0.00  0.00    +0.106 A 
ATOM     27  C   UNL     1       1.629  -0.710  -2.163  0.00  0.00    +0.031 A 
ATOM     28  C   UNL     1       2.572  -1.203  -3.045  0.00  0.00    +0.040 A 
ATOM     29  C   UNL     1       3.626  -0.402  -3.450  0.00  0.00    +0.124 A 
ATOM     30  C   UNL     1       3.732   0.894  -2.976  0.00  0.00    +0.040 A 
ATOM     31  C   UNL     1       2.785   1.387  -2.097  0.00  0.00    +0.031 A 
ATOM     32  F   UNL     1       4.550  -0.885  -4.309  0.00  0.00    -0.205 F 
ENDBRANCH  23  26
ENDBRANCH  10  23
TORSDOF 5
