REMARK  Name = ZINC34787794
REMARK  6 active torsions:
REMARK  status: ('A' for Active; 'I' for Inactive)
REMARK    1  A    between atoms: C_1  and  C_2
REMARK    2  A    between atoms: C_4  and  C_31
REMARK    3  A    between atoms: C_17  and  S_19
REMARK    4  A    between atoms: S_19  and  C_20
REMARK    5  A    between atoms: C_20  and  C_21
REMARK    6  A    between atoms: N_23  and  C_24
REMARK                            x       y       z     vdW  Elec       q    Type
REMARK                         _______ _______ _______ _____ _____    ______ ____
ROOT
ATOM      1  C   UNL     1      -0.085   1.502   0.009  0.00  0.00    +0.067 C 
ATOM      2  C   UNL     1      -0.053  -0.005   0.001  0.00  0.00    +0.061 A 
ATOM      3  C   UNL     1      -0.043  -0.818  -1.138  0.00  0.00    +0.048 A 
ATOM      4  C   UNL     1      -0.013  -2.107  -0.731  0.00  0.00    +0.045 A 
ATOM      5  N   UNL     1      -0.006  -2.109   0.628  0.00  0.00    -0.202 N 
ATOM      6  N   UNL     1      -0.025  -0.775   1.058  0.00  0.00    -0.169 NA
ATOM      7  C   UNL     1       0.022  -3.237   1.449  0.00  0.00    +0.254 A 
ATOM      8  N   UNL     1       0.021  -3.082   2.764  0.00  0.00    -0.203 NA
ATOM      9  C   UNL     1       0.047  -4.136   3.557  0.00  0.00    +0.115 A 
ATOM     10  C   UNL     1       0.077  -5.444   3.040  0.00  0.00    +0.043 A 
ATOM     11  C   UNL     1       0.104  -6.529   4.036  0.00  0.00    -0.025 A 
ATOM     12  C   UNL     1       0.096  -6.166   5.328  0.00  0.00    -0.004 A 
ATOM     13  S   UNL     1       0.056  -4.388   5.311  0.00  0.00    -0.073 S 
ATOM     14  C   UNL     1       0.119  -7.355   6.252  0.00  0.00    +0.043 C 
ATOM     15  C   UNL     1      -0.290  -8.547   5.360  0.00  0.00    +0.010 C 
ATOM     16  C   UNL     1       0.145  -8.058   3.965  0.00  0.00    +0.037 C 
ATOM     17  C   UNL     1       0.077  -5.548   1.621  0.00  0.00    +0.111 A 
ATOM     18  N   UNL     1       0.045  -4.441   0.895  0.00  0.00    -0.204 NA
ATOM     19  C   UNL     1       0.007  -3.322  -1.623  0.00  0.00    +0.066 C 
ENDROOT
BRANCH  17  20
ATOM     20  S   UNL     1       0.114  -7.128   0.841  0.00  0.00    -0.096 S 
BRANCH  20  21
ATOM     21  C   UNL     1       0.102  -6.742  -0.931  0.00  0.00    +0.171 C 
BRANCH  21  22
ATOM     22  C   UNL     1       0.131  -8.023  -1.724  0.00  0.00    +0.227 C 
ATOM     23  O   UNL     1       0.158  -9.091  -1.150  0.00  0.00    -0.275 OA
ATOM     24  N   UNL     1       0.128  -7.982  -3.071  0.00  0.00    -0.285 N 
ATOM     25  H   UNL     1       0.039  -7.132  -3.530  0.00  0.00    +0.155 HD
BRANCH  24  26
ATOM     26  C   UNL     1       0.253  -9.165  -3.808  0.00  0.00    +0.033 A 
ATOM     27  C   UNL     1       0.953  -9.168  -5.007  0.00  0.00    +0.024 A 
ATOM     28  C   UNL     1       1.075 -10.337  -5.732  0.00  0.00    +0.017 A 
ATOM     29  C   UNL     1       0.501 -11.505  -5.264  0.00  0.00    +0.018 A 
ATOM     30  C   UNL     1      -0.198 -11.506  -4.070  0.00  0.00    +0.017 A 
ATOM     31  C   UNL     1      -0.319 -10.341  -3.338  0.00  0.00    +0.024 A 
ATOM     32 BR   UNL     1       0.669 -13.104  -6.259  0.00  0.00    -0.050 Br
ENDBRANCH  24  26
ENDBRANCH  21  22
ENDBRANCH  20  21
ENDBRANCH  17  20
TORSDOF 4
