REMARK  Name = ZINC58356887
REMARK  8 active torsions:
REMARK  status: ('A' for Active; 'I' for Inactive)
REMARK    1  A    between atoms: C_1  and  C_2
REMARK    2  A    between atoms: C_6  and  C_7
REMARK    3  A    between atoms: C_7  and  N_8
REMARK    4  A    between atoms: N_8  and  C_9
REMARK    5  A    between atoms: C_14  and  C_18
REMARK    6  A    between atoms: C_18  and  C_19
REMARK    7  A    between atoms: C_18  and  C_20
REMARK    8  A    between atoms: C_18  and  C_21
REMARK                            x       y       z     vdW  Elec       q    Type
REMARK                         _______ _______ _______ _____ _____    ______ ____
ROOT
ATOM      1  N   UNL     1      -1.598  -0.230   2.997  0.00  0.00    -0.306 N 
ATOM      2  C   UNL     1      -2.102  -1.381   3.750  0.00  0.00    +0.131 C 
ATOM      3  C   UNL     1      -2.446   0.820   2.686  0.00  0.00    +0.184 A 
ATOM      4  N   UNL     1      -3.731   0.928   2.898  0.00  0.00    -0.142 NA
ATOM      5  N   UNL     1      -4.431   2.067   2.516  0.00  0.00    -0.212 N 
ATOM      6  C   UNL     1      -5.732   2.552   2.557  0.00  0.00    +0.139 A 
ATOM      7  C   UNL     1      -5.732   3.774   1.995  0.00  0.00    +0.068 A 
ATOM      8  N   UNL     1      -4.480   4.060   1.608  0.00  0.00    -0.224 NA
ATOM      9  C   UNL     1      -3.706   3.058   1.913  0.00  0.00    +0.197 A 
ATOM     10  S   UNL     1      -2.064   2.377   1.900  0.00  0.00    -0.013 S 
ENDROOT
BRANCH   7  11
ATOM     11  C   UNL     1      -6.933   4.668   1.826  0.00  0.00    +0.006 C 
ATOM     12  C   UNL     1      -7.302   5.286   3.176  0.00  0.00    +0.017 C 
ATOM     13  C   UNL     1      -6.604   5.782   0.829  0.00  0.00    +0.017 C 
ATOM     14  C   UNL     1      -8.112   3.846   1.302  0.00  0.00    +0.017 C 
ENDBRANCH   7  11
BRANCH   1  15
ATOM     15  C   UNL     1      -0.196  -0.190   2.573  0.00  0.00    +0.149 C 
BRANCH  15  21
ATOM     16  C   UNL     1       0.516  -3.059   1.739  0.00  0.00    +0.044 C 
ATOM     17  C   UNL     1       0.228  -1.966   0.743  0.00  0.00    -0.039 A 
ATOM     18  C   UNL     1       0.269  -2.224  -0.614  0.00  0.00    +0.011 A 
ATOM     19  C   UNL     1       0.004  -1.218  -1.483  0.00  0.00    +0.046 A 
ATOM     20  S   UNL     1      -0.316   0.148  -0.380  0.00  0.00    -0.100 S 
ATOM     21  C   UNL     1      -0.082  -0.715   1.165  0.00  0.00    +0.010 A 
ENDBRANCH  15  21
ENDBRANCH   1  15
TORSDOF 3
