REMARK  Name = ZINC36718336
REMARK  17 active torsions:
REMARK  status: ('A' for Active; 'I' for Inactive)
REMARK    1  A    between atoms: C_1  and  C_2
REMARK    2  A    between atoms: C_2  and  N_3
REMARK    3  A    between atoms: N_3  and  C_4
REMARK    4  A    between atoms: N_3  and  C_6
REMARK    5  A    between atoms: C_4  and  C_5
REMARK    6  A    between atoms: C_6  and  C_7
REMARK    7  A    between atoms: C_7  and  N_8
REMARK    8  A    between atoms: C_12  and  O_19
REMARK    9  A    between atoms: C_15  and  C_18
REMARK   10  A    between atoms: O_19  and  C_20
REMARK   11  A    between atoms: C_21  and  C_23
REMARK   12  A    between atoms: C_23  and  C_24
REMARK   13  A    between atoms: C_24  and  C_25
REMARK   14  A    between atoms: C_25  and  S_26
REMARK   15  A    between atoms: S_26  and  C_29
REMARK   16  A    between atoms: C_32  and  O_35
REMARK   17  A    between atoms: O_35  and  C_36
REMARK                            x       y       z     vdW  Elec       q    Type
REMARK                         _______ _______ _______ _____ _____    ______ ____
ROOT
ATOM      1  N   UNL     1      -2.914  -4.087   0.184  0.00  0.00    -0.252 N 
ATOM      2  C   UNL     1      -3.081  -4.631   1.449  0.00  0.00    +0.168 A 
ATOM      3  N   UNL     1      -3.260  -4.014   2.592  0.00  0.00    -0.221 NA
ATOM      4  C   UNL     1      -3.411  -4.678   3.760  0.00  0.00    +0.122 A 
ATOM      5  C   UNL     1      -3.610  -4.137   5.056  0.00  0.00    +0.147 A 
ATOM      6  C   UNL     1      -3.744  -4.962   6.147  0.00  0.00    +0.048 A 
ATOM      7  C   UNL     1      -3.691  -6.343   6.020  0.00  0.00    +0.008 A 
ATOM      8  C   UNL     1      -3.498  -6.902   4.771  0.00  0.00    -0.034 A 
ATOM      9  C   UNL     1      -3.362  -6.086   3.674  0.00  0.00    +0.047 A 
ATOM     10  S   UNL     1      -3.115  -6.351   1.934  0.00  0.00    -0.051 S 
ATOM     11  C   UNL     1      -3.438  -8.400   4.613  0.00  0.00    +0.045 C 
ATOM     12  C   UNL     1      -2.747  -4.897  -0.880  0.00  0.00    +0.221 C 
ATOM     13  O   UNL     1      -2.744  -6.100  -0.733  0.00  0.00    -0.275 OA
ENDROOT
BRANCH   5  14
ATOM     14  O   UNL     1      -3.667  -2.788   5.220  0.00  0.00    -0.493 OA
ATOM     15  C   UNL     1      -3.869  -2.306   6.550  0.00  0.00    +0.277 C 
ENDBRANCH   5  14
BRANCH   1  16
ATOM     16  C   UNL     1      -2.918  -2.633   0.006  0.00  0.00    +0.097 C 
BRANCH  16  17
ATOM     17  C   UNL     1      -1.491  -2.099   0.145  0.00  0.00    -0.059 C 
BRANCH  17  18
ATOM     18  N   UNL     1      -1.476  -0.661  -0.156  0.00  0.00    +0.380 N 
ATOM     19  H   UNL     1      -1.879  -0.503  -1.067  0.00  0.00    -0.082 HD
BRANCH  18  21
ATOM     20  C   UNL     1      -2.347   1.539   0.476  0.00  0.00    -0.017 C 
ATOM     21  C   UNL     1      -2.259   0.060   0.857  0.00  0.00    -0.082 C 
ENDBRANCH  18  21
BRANCH  18  22
ATOM     22  C   UNL     1      -0.090  -0.172  -0.142  0.00  0.00    -0.082 C 
ATOM     23  C   UNL     1       0.686  -0.807  -1.298  0.00  0.00    -0.017 C 
ENDBRANCH  18  22
ENDBRANCH  17  18
ENDBRANCH  16  17
ENDBRANCH   1  16
BRANCH  12  24
ATOM     24  C   UNL     1      -2.565  -4.306  -2.255  0.00  0.00    +0.098 C 
BRANCH  24  25
ATOM     25  C   UNL     1      -2.399  -5.433  -3.276  0.00  0.00    +0.032 C 
BRANCH  25  26
ATOM     26  C   UNL     1      -2.214  -4.833  -4.672  0.00  0.00    +0.172 C 
BRANCH  26  27
ATOM     27  S   UNL     1      -2.017  -6.169  -5.883  0.00  0.00    -0.003 S 
ATOM     28  O   UNL     1      -0.786  -6.846  -5.668  0.00  0.00    -0.169 OA
ATOM     29  O   UNL     1      -3.231  -6.896  -6.012  0.00  0.00    -0.169 OA
BRANCH  27  30
ATOM     30  C   UNL     1      -1.815  -5.351  -7.430  0.00  0.00    +0.088 A 
ATOM     31  C   UNL     1      -2.923  -5.049  -8.201  0.00  0.00    +0.030 A 
ATOM     32  C   UNL     1      -2.767  -4.408  -9.415  0.00  0.00    +0.047 A 
ATOM     33  C   UNL     1      -1.498  -4.067  -9.860  0.00  0.00    +0.120 A 
ATOM     34  C   UNL     1      -0.389  -4.370  -9.085  0.00  0.00    +0.047 A 
ATOM     35  C   UNL     1      -0.550  -5.007  -7.869  0.00  0.00    +0.030 A 
BRANCH  33  36
ATOM     36  O   UNL     1      -1.343  -3.437 -11.054  0.00  0.00    -0.495 OA
ATOM     37  C   UNL     1      -0.007  -3.116 -11.449  0.00  0.00    +0.277 C 
ENDBRANCH  33  36
ENDBRANCH  27  30
ENDBRANCH  26  27
ENDBRANCH  25  26
ENDBRANCH  24  25
ENDBRANCH  12  24
TORSDOF 12
