REMARK  Name = ZINC36484854
REMARK  12 active torsions:
REMARK  status: ('A' for Active; 'I' for Inactive)
REMARK    1  A    between atoms: C_1  and  C_2
REMARK    2  A    between atoms: C_2  and  C_3
REMARK    3  A    between atoms: C_2  and  C_4
REMARK    4  A    between atoms: C_2  and  N_5
REMARK    5  A    between atoms: C_6  and  C_8
REMARK    6  A    between atoms: C_8  and  C_10
REMARK    7  A    between atoms: C_8  and  N_20
REMARK    8  A    between atoms: C_13  and  C_16
REMARK    9  A    between atoms: N_20  and  C_21
REMARK   10  A    between atoms: C_28  and  C_30
REMARK   11  A    between atoms: C_31  and  O_37
REMARK   12  A    between atoms: C_35  and  O_36
REMARK                            x       y       z     vdW  Elec       q    Type
REMARK                         _______ _______ _______ _____ _____    ______ ____
ROOT
ATOM      1  N   UNL     1       4.291  -0.518  -2.790  0.00  0.00    -0.251 N 
ATOM      2  C   UNL     1       4.894  -1.350  -1.918  0.00  0.00    +0.259 C 
ATOM      3  O   UNL     1       4.252  -1.854  -1.015  0.00  0.00    -0.269 OA
ENDROOT
BRANCH   1   4
ATOM      4  C   UNL     1       5.048   0.145  -3.761  0.00  0.00    +0.039 A 
ATOM      5  C   UNL     1       5.957   1.126  -3.386  0.00  0.00    +0.023 A 
ATOM      6  C   UNL     1       6.704   1.778  -4.347  0.00  0.00    +0.003 A 
ATOM      7  C   UNL     1       6.548   1.456  -5.683  0.00  0.00    +0.020 A 
ATOM      8  C   UNL     1       5.643   0.480  -6.061  0.00  0.00    +0.043 A 
ATOM      9  C   UNL     1       4.896  -0.180  -5.103  0.00  0.00    +0.043 A 
ATOM     10 CL   UNL     1       5.449   0.080  -7.739  0.00  0.00    -0.083 Cl
ENDBRANCH   1   4
BRANCH   2  11
ATOM     11  C   UNL     1       6.328  -1.650  -2.058  0.00  0.00    +0.120 A 
ATOM     12  C   UNL     1       7.274  -0.943  -1.301  0.00  0.00    +0.133 A 
ATOM     13  C   UNL     1       8.622  -1.234  -1.440  0.00  0.00    +0.046 A 
ATOM     14  C   UNL     1       9.035  -2.216  -2.321  0.00  0.00    +0.007 A 
ATOM     15  C   UNL     1       8.111  -2.918  -3.072  0.00  0.00    +0.046 A 
ATOM     16  C   UNL     1       6.758  -2.648  -2.944  0.00  0.00    +0.133 A 
BRANCH  16  17
ATOM     17  O   UNL     1       5.853  -3.343  -3.678  0.00  0.00    -0.506 OA
ATOM     18  H   UNL     1       5.653  -2.944  -4.536  0.00  0.00    +0.292 HD
ENDBRANCH  16  17
BRANCH  12  19
ATOM     19  O   UNL     1       6.872   0.021  -0.436  0.00  0.00    -0.506 OA
ATOM     20  H   UNL     1       6.691  -0.302   0.457  0.00  0.00    +0.292 HD
ENDBRANCH  12  19
ENDBRANCH   2  11
BRANCH   1  21
ATOM     21  C   UNL     1       2.843  -0.307  -2.720  0.00  0.00    +0.197 C 
BRANCH  21  22
ATOM     22  C   UNL     1       2.400   0.530  -3.892  0.00  0.00    -0.018 A 
ATOM     23  C   UNL     1       2.960   1.776  -4.104  0.00  0.00    +0.006 A 
ATOM     24  C   UNL     1       2.554   2.543  -5.179  0.00  0.00    +0.013 A 
ATOM     25  C   UNL     1       1.588   2.064  -6.044  0.00  0.00    +0.055 A 
ATOM     26  C   UNL     1       1.028   0.817  -5.833  0.00  0.00    +0.013 A 
ATOM     27  C   UNL     1       1.438   0.048  -4.760  0.00  0.00    +0.006 A 
BRANCH  25  28
ATOM     28  C   UNL     1       1.144   2.901  -7.216  0.00  0.00    +0.417 C 
ATOM     29  F   UNL     1       1.946   2.612  -8.325  0.00  0.00    -0.166 F 
ATOM     30  F   UNL     1      -0.191   2.610  -7.518  0.00  0.00    -0.166 F 
ATOM     31  F   UNL     1       1.264   4.256  -6.894  0.00  0.00    -0.166 F 
ENDBRANCH  25  28
ENDBRANCH  21  22
BRANCH  21  33
ATOM     32  N   UNL     1       1.218   0.708  -1.155  0.00  0.00    -0.309 N 
ATOM     33  C   UNL     1       2.501   0.406  -1.437  0.00  0.00    +0.239 C 
ATOM     34  O   UNL     1       3.380   0.708  -0.657  0.00  0.00    -0.273 OA
ATOM     35  H   UNL     1       0.515   0.466  -1.778  0.00  0.00    +0.149 HD
BRANCH  32  37
ATOM     36  C   UNL     1       1.600   2.752   0.131  0.00  0.00    +0.031 C 
ATOM     37  C   UNL     1       0.885   1.400   0.092  0.00  0.00    +0.026 C 
ATOM     38  C   UNL     1       1.335   0.551   1.283  0.00  0.00    +0.031 C 
ATOM     39  C   UNL     1      -0.627   1.621   0.165  0.00  0.00    +0.031 C 
ENDBRANCH  32  37
ENDBRANCH  21  33
ENDBRANCH   1  21
TORSDOF 9
