REMARK  Name = ZINC40742708
REMARK  14 active torsions:
REMARK  status: ('A' for Active; 'I' for Inactive)
REMARK    1  A    between atoms: C_1  and  O_2
REMARK    2  A    between atoms: O_2  and  C_3
REMARK    3  A    between atoms: C_6  and  C_11
REMARK    4  A    between atoms: C_8  and  O_9
REMARK    5  A    between atoms: O_9  and  C_10
REMARK    6  A    between atoms: C_11  and  C_12
REMARK    7  A    between atoms: C_12  and  N_13
REMARK    8  A    between atoms: N_13  and  C_14
REMARK    9  A    between atoms: C_14  and  C_15
REMARK   10  A    between atoms: C_17  and  O_32
REMARK   11  A    between atoms: C_18  and  O_22
REMARK   12  A    between atoms: O_22  and  C_23
REMARK   13  A    between atoms: C_23  and  C_24
REMARK   14  A    between atoms: O_32  and  C_33
REMARK                            x       y       z     vdW  Elec       q    Type
REMARK                         _______ _______ _______ _____ _____    ______ ____
ROOT
ATOM      1  C   UNL     1       1.979  -4.389   8.792  0.00  0.00    -0.059 A 
ATOM      2  C   UNL     1       2.045  -5.769   8.842  0.00  0.00    +0.051 A 
ATOM      3  C   UNL     1       2.681  -6.394   9.903  0.00  0.00    +0.163 A 
ATOM      4  C   UNL     1       3.252  -5.630  10.916  0.00  0.00    +0.181 A 
ATOM      5  C   UNL     1       3.183  -4.247  10.859  0.00  0.00    +0.086 A 
ATOM      6  C   UNL     1       2.551  -3.629   9.795  0.00  0.00    +0.025 A 
ATOM      7 CL   UNL     1       3.894  -3.290  12.121  0.00  0.00    -0.080 Cl
ENDROOT
BRANCH   3   8
ATOM      8  O   UNL     1       2.745  -7.752   9.954  0.00  0.00    -0.491 OA
ATOM      9  C   UNL     1       2.137  -8.471   8.879  0.00  0.00    +0.277 C 
ENDBRANCH   3   8
BRANCH   1  10
ATOM     10  C   UNL     1       1.286  -3.711   7.638  0.00  0.00    -0.047 C 
BRANCH  10  11
ATOM     11  N   UNL     1       2.255  -3.465   6.561  0.00  0.00    +0.382 N 
ATOM     12  H   UNL     1       2.644  -4.343   6.252  0.00  0.00    -0.085 HD
ATOM     13  H   UNL     1       2.996  -2.871   6.905  0.00  0.00    -0.085 HD
BRANCH  11  14
ATOM     14  C   UNL     1       1.580  -2.804   5.436  0.00  0.00    -0.077 C 
BRANCH  14  15
ATOM     15  C   UNL     1       2.590  -2.548   4.315  0.00  0.00    +0.016 C 
BRANCH  15  19
ATOM     16  C   UNL     1       0.626  -0.619   1.042  0.00  0.00    +0.161 A 
ATOM     17  C   UNL     1       1.202   0.137   2.051  0.00  0.00    +0.049 A 
ATOM     18  C   UNL     1       1.836  -0.490   3.108  0.00  0.00    +0.007 A 
ATOM     19  C   UNL     1       1.897  -1.870   3.161  0.00  0.00    -0.045 A 
ATOM     20  C   UNL     1       1.325  -2.630   2.158  0.00  0.00    +0.053 A 
ATOM     21  C   UNL     1       0.683  -2.008   1.099  0.00  0.00    +0.162 A 
BRANCH  16  23
ATOM     22  C   UNL     1      -0.017   1.425   0.010  0.00  0.00    +0.277 C 
ATOM     23  O   UNL     1       0.002  -0.004   0.002  0.00  0.00    -0.491 OA
ENDBRANCH  16  23
BRANCH  21  24
ATOM     24  O   UNL     1       0.115  -2.754   0.114  0.00  0.00    -0.491 OA
ATOM     25  C   UNL     1       0.211  -4.174   0.238  0.00  0.00    +0.277 C 
ENDBRANCH  21  24
ENDBRANCH  15  19
ENDBRANCH  14  15
ENDBRANCH  11  14
ENDBRANCH  10  11
ENDBRANCH   1  10
BRANCH   4  26
ATOM     26  O   UNL     1       3.877  -6.240  11.959  0.00  0.00    -0.482 OA
BRANCH  26  27
ATOM     27  C   UNL     1       5.274  -6.502  11.815  0.00  0.00    +0.264 C 
BRANCH  27  28
ATOM     28  C   UNL     1       5.790  -7.176  13.060  0.00  0.00    -0.009 A 
ATOM     29  C   UNL     1       6.271  -6.414  14.109  0.00  0.00    +0.008 A 
ATOM     30  C   UNL     1       6.745  -7.031  15.252  0.00  0.00    +0.022 A 
ATOM     31  C   UNL     1       6.737  -8.411  15.347  0.00  0.00    +0.059 A 
ATOM     32  C   UNL     1       6.255  -9.174  14.296  0.00  0.00    +0.060 A 
ATOM     33  C   UNL     1       5.777  -8.554  13.156  0.00  0.00    +0.028 A 
ATOM     34 CL   UNL     1       6.246 -10.905  14.414  0.00  0.00    -0.082 Cl
ATOM     35 CL   UNL     1       7.333  -9.186  16.781  0.00  0.00    -0.082 Cl
ENDBRANCH  27  28
ENDBRANCH  26  27
ENDBRANCH   4  26
TORSDOF 11
