REMARK  Name = ZINC41513677
REMARK  17 active torsions:
REMARK  status: ('A' for Active; 'I' for Inactive)
REMARK    1  A    between atoms: C_1  and  C_2
REMARK    2  A    between atoms: C_2  and  N_3
REMARK    3  A    between atoms: C_5  and  C_14
REMARK    4  A    between atoms: C_10  and  O_12
REMARK    5  A    between atoms: O_12  and  C_13
REMARK    6  A    between atoms: C_19  and  C_36
REMARK    7  A    between atoms: C_21  and  O_35
REMARK    8  A    between atoms: C_22  and  C_25
REMARK    9  A    between atoms: C_25  and  N_26
REMARK   10  A    between atoms: N_26  and  C_27
REMARK   11  A    between atoms: N_26  and  C_31
REMARK   12  A    between atoms: C_27  and  C_28
REMARK   13  A    between atoms: C_28  and  C_29
REMARK   14  A    between atoms: C_28  and  C_30
REMARK   15  A    between atoms: C_31  and  C_32
REMARK   16  A    between atoms: C_32  and  C_33
REMARK   17  A    between atoms: C_32  and  C_34
REMARK                            x       y       z     vdW  Elec       q    Type
REMARK                         _______ _______ _______ _____ _____    ______ ____
ROOT
ATOM      1  C   UNL     1      -4.531  -2.943   1.352  0.00  0.00    +0.060 C 
ATOM      2  C   UNL     1      -4.248  -2.948   2.685  0.00  0.00    +0.176 C 
ATOM      3  C   UNL     1      -2.968  -2.737   3.262  0.00  0.00    +0.232 C 
ATOM      4  O   UNL     1      -1.919  -2.518   2.678  0.00  0.00    -0.283 OA
ATOM      5  C   UNL     1      -3.178  -2.838   4.717  0.00  0.00    +0.071 A 
ATOM      6  C   UNL     1      -2.332  -2.729   5.820  0.00  0.00    -0.033 A 
ATOM      7  C   UNL     1      -2.836  -2.876   7.081  0.00  0.00    +0.050 A 
ATOM      8  C   UNL     1      -4.191  -3.134   7.269  0.00  0.00    +0.122 A 
ATOM      9  C   UNL     1      -5.044  -3.245   6.183  0.00  0.00    +0.020 A 
ATOM     10  C   UNL     1      -4.547  -3.098   4.895  0.00  0.00    +0.145 A 
ATOM     11  O   UNL     1      -5.141  -3.150   3.683  0.00  0.00    -0.451 OA
ATOM     12  C   UNL     1      -0.864  -2.450   5.621  0.00  0.00    +0.045 C 
ENDROOT
BRANCH   1  15
ATOM     13  N   UNL     1      -1.481  -3.175  -0.639  0.00  0.00    -0.346 N 
ATOM     14  C   UNL     1      -2.214  -3.479   0.461  0.00  0.00    +0.094 A 
ATOM     15  C   UNL     1      -3.447  -2.869   0.375  0.00  0.00    +0.004 A 
ATOM     16  C   UNL     1      -3.454  -2.127  -0.901  0.00  0.00    +0.011 A 
ATOM     17  C   UNL     1      -2.198  -2.352  -1.486  0.00  0.00    +0.050 A 
ATOM     18  C   UNL     1      -1.902  -1.768  -2.713  0.00  0.00    +0.030 A 
ATOM     19  C   UNL     1      -2.836  -0.974  -3.342  0.00  0.00    +0.047 A 
ATOM     20  C   UNL     1      -4.079  -0.749  -2.761  0.00  0.00    +0.121 A 
ATOM     21  C   UNL     1      -4.394  -1.328  -1.546  0.00  0.00    +0.056 A 
BRANCH  13  23
ATOM     22  C   UNL     1       0.884  -2.596  -0.410  0.00  0.00    +0.027 C 
ATOM     23  C   UNL     1      -0.118  -3.648  -0.890  0.00  0.00    +0.118 C 
ENDBRANCH  13  23
BRANCH  20  24
ATOM     24  O   UNL     1      -4.991   0.037  -3.394  0.00  0.00    -0.495 OA
ATOM     25  C   UNL     1      -4.604   0.597  -4.650  0.00  0.00    +0.277 C 
ENDBRANCH  20  24
ENDBRANCH   1  15
BRANCH   8  26
ATOM     26  O   UNL     1      -4.681  -3.279   8.527  0.00  0.00    -0.506 OA
ATOM     27  H   UNL     1      -4.983  -2.453   8.929  0.00  0.00    +0.292 HD
ENDBRANCH   8  26
BRANCH   9  28
ATOM     28  C   UNL     1      -6.509  -3.525   6.399  0.00  0.00    -0.036 C 
BRANCH  28  29
ATOM     29  N   UNL     1      -7.184  -2.295   6.834  0.00  0.00    +0.383 N 
ATOM     30  H   UNL     1      -6.705  -1.915   7.637  0.00  0.00    -0.081 HD
BRANCH  29  31
ATOM     31  C   UNL     1      -7.164  -1.313   5.742  0.00  0.00    -0.075 C 
BRANCH  31  32
ATOM     32  C   UNL     1      -5.855  -0.523   5.789  0.00  0.00    -0.034 C 
ATOM     33  C   UNL     1      -5.769   0.395   4.568  0.00  0.00    +0.005 C 
ATOM     34  C   UNL     1      -5.813   0.320   7.065  0.00  0.00    +0.005 C 
ENDBRANCH  31  32
ENDBRANCH  29  31
BRANCH  29  35
ATOM     35  C   UNL     1      -8.575  -2.601   7.194  0.00  0.00    -0.075 C 
BRANCH  35  36
ATOM     36  C   UNL     1      -8.596  -3.512   8.422  0.00  0.00    -0.034 C 
ATOM     37  C   UNL     1      -7.981  -2.776   9.614  0.00  0.00    +0.005 C 
ATOM     38  C   UNL     1     -10.041  -3.895   8.749  0.00  0.00    +0.005 C 
ENDBRANCH  35  36
ENDBRANCH  29  35
ENDBRANCH  28  29
ENDBRANCH   9  28
TORSDOF 10
