REMARK  Name = ZINC28060715
REMARK  3 active torsions:
REMARK  status: ('A' for Active; 'I' for Inactive)
REMARK    1  A    between atoms: C_1  and  C_2
REMARK    2  A    between atoms: C_10  and  C_13
REMARK    3  A    between atoms: C_21  and  C_29
REMARK                            x       y       z     vdW  Elec       q    Type
REMARK                         _______ _______ _______ _____ _____    ______ ____
ROOT
ATOM      1  C   UNL     1       6.255   1.226  -0.505  0.00  0.00    +0.044 C 
ATOM      2  C   UNL     1       4.869   0.736  -0.171  0.00  0.00    -0.050 A 
ATOM      3  C   UNL     1       4.674  -0.586   0.188  0.00  0.00    +0.007 A 
ATOM      4  C   UNL     1       3.407  -1.052   0.494  0.00  0.00    +0.046 A 
ATOM      5  C   UNL     1       2.329  -0.189   0.443  0.00  0.00    +0.131 A 
ATOM      6  C   UNL     1       2.525   1.151   0.084  0.00  0.00    +0.038 A 
ATOM      7  C   UNL     1       3.800   1.609  -0.226  0.00  0.00    +0.016 A 
ATOM      8  C   UNL     1       1.347   2.050   0.051  0.00  0.00    +0.050 C 
ATOM      9  C   UNL     1       0.131   1.502   0.016  0.00  0.00    +0.026 C 
ATOM     10  C   UNL     1       0.002  -0.004   0.002  0.00  0.00    +0.234 C 
ATOM     11  O   UNL     1       1.070  -0.606   0.733  0.00  0.00    -0.479 OA
ATOM     12  C   UNL     1      -1.128   2.333  -0.016  0.00  0.00    +0.181 C 
ATOM     13  N   UNL     1      -0.821   3.720   0.307  0.00  0.00    -0.201 N 
ATOM     14  C   UNL     1       0.439   4.229   0.333  0.00  0.00    +0.240 A 
ATOM     15  N   UNL     1       0.341   5.490   0.642  0.00  0.00    -0.092 NA
ATOM     16  N   UNL     1      -0.895   5.812   0.820  0.00  0.00    -0.021 NA
ATOM     17  N   UNL     1      -1.659   4.785   0.634  0.00  0.00    -0.042 NA
ATOM     18  N   UNL     1       1.542   3.437   0.064  0.00  0.00    -0.282 N 
ATOM     19  H   UNL     1       2.541   3.853  -0.133  0.00  0.00    +0.155 HD
ENDROOT
BRANCH  10  20
ATOM     20  C   UNL     1       0.039  -0.493  -1.423  0.00  0.00    -0.002 A 
ATOM     21  C   UNL     1      -1.121  -0.929  -2.034  0.00  0.00    +0.009 A 
ATOM     22  C   UNL     1      -1.088  -1.378  -3.341  0.00  0.00    +0.022 A 
ATOM     23  C   UNL     1       0.106  -1.389  -4.039  0.00  0.00    +0.059 A 
ATOM     24  C   UNL     1       1.268  -0.952  -3.427  0.00  0.00    +0.060 A 
ATOM     25  C   UNL     1       1.233  -0.499  -2.120  0.00  0.00    +0.029 A 
ATOM     26 CL   UNL     1       2.768  -0.966  -4.301  0.00  0.00    -0.082 Cl
ATOM     27 CL   UNL     1       0.148  -1.952  -5.681  0.00  0.00    -0.082 Cl
ENDBRANCH  10  20
BRANCH  12  28
ATOM     28  C   UNL     1      -1.739   2.262  -1.392  0.00  0.00    +0.019 A 
ATOM     29  C   UNL     1      -2.961   1.805  -1.761  0.00  0.00    +0.013 A 
ATOM     30  C   UNL     1      -3.314   1.839  -3.097  0.00  0.00    +0.008 A 
ATOM     31  C   UNL     1      -2.424   2.320  -3.999  0.00  0.00    +0.045 A 
ATOM     32  S   UNL     1      -1.039   2.751  -2.959  0.00  0.00    -0.099 S 
ENDBRANCH  12  28
TORSDOF 2
