REMARK  Name = ZINC09311813
REMARK  7 active torsions:
REMARK  status: ('A' for Active; 'I' for Inactive)
REMARK    1  A    between atoms: C_1  and  C_2
REMARK    2  A    between atoms: C_2  and  C_3
REMARK    3  A    between atoms: C_8  and  N_9
REMARK    4  A    between atoms: C_13  and  C_14
REMARK    5  A    between atoms: C_16  and  C_26
REMARK    6  A    between atoms: N_17  and  C_20
REMARK    7  A    between atoms: C_18  and  C_19
REMARK                            x       y       z     vdW  Elec       q    Type
REMARK                         _______ _______ _______ _____ _____    ______ ____
ROOT
ATOM      1  N   UNL     1      -0.428   5.386  -0.531  0.00  0.00    -0.217 N 
ATOM      2  C   UNL     1       0.172   4.194  -0.338  0.00  0.00    +0.262 C 
ATOM      3  O   UNL     1      -0.360   3.161  -0.699  0.00  0.00    -0.269 OA
ATOM      4  C   UNL     1       1.491   4.176   0.321  0.00  0.00    +0.100 C 
ATOM      5  C   UNL     1       2.168   2.990   0.552  0.00  0.00    +0.028 C 
ATOM      6  C   UNL     1       2.055   5.476   0.728  0.00  0.00    +0.255 C 
ATOM      7  O   UNL     1       3.137   5.543   1.282  0.00  0.00    -0.270 OA
ATOM      8  N   UNL     1       1.341   6.591   0.466  0.00  0.00    -0.263 N 
ATOM      9  C   UNL     1       0.147   6.532  -0.138  0.00  0.00    +0.150 C 
ATOM     10  S   UNL     1      -0.690   7.998  -0.424  0.00  0.00    -0.018 S 
ATOM     11  H   UNL     1       1.699   7.454   0.725  0.00  0.00    +0.157 HD
ENDROOT
BRANCH   1  17
ATOM     12  C   UNL     1      -1.767   5.553  -2.535  0.00  0.00    -0.026 A 
ATOM     13  C   UNL     1      -3.004   5.590  -3.149  0.00  0.00    +0.005 A 
ATOM     14  C   UNL     1      -4.157   5.513  -2.389  0.00  0.00    +0.000 A 
ATOM     15  C   UNL     1      -4.075   5.394  -1.014  0.00  0.00    +0.002 A 
ATOM     16  C   UNL     1      -2.841   5.352  -0.395  0.00  0.00    +0.024 A 
ATOM     17  C   UNL     1      -1.681   5.428  -1.155  0.00  0.00    +0.046 A 
BRANCH  12  19
ATOM     18  C   UNL     1      -0.000   4.234  -3.670  0.00  0.00    +0.009 C 
ATOM     19  C   UNL     1      -0.511   5.643  -3.364  0.00  0.00    +0.033 C 
ENDBRANCH  12  19
ENDBRANCH   1  17
BRANCH   5  20
ATOM     20  C   UNL     1       1.522   1.750   0.324  0.00  0.00    -0.003 A 
ATOM     21  C   UNL     1       0.152   1.386   0.704  0.00  0.00    +0.036 A 
ATOM     22  C   UNL     1      -0.032   0.108   0.287  0.00  0.00    +0.055 A 
ATOM     23  N   UNL     1       1.122  -0.334  -0.319  0.00  0.00    -0.313 N 
ATOM     24  C   UNL     1       2.057   0.634  -0.304  0.00  0.00    +0.028 A 
ATOM     25  C   UNL     1       3.449   0.523  -0.873  0.00  0.00    +0.064 C 
BRANCH  23  26
ATOM     26  C   UNL     1       1.298  -1.609  -0.871  0.00  0.00    +0.047 A 
ATOM     27  C   UNL     1       1.365  -2.722  -0.044  0.00  0.00    +0.026 A 
ATOM     28  C   UNL     1       1.533  -3.978  -0.593  0.00  0.00    +0.002 A 
ATOM     29  C   UNL     1       1.645  -4.127  -1.963  0.00  0.00    +0.000 A 
ATOM     30  C   UNL     1       1.584  -3.020  -2.789  0.00  0.00    +0.002 A 
ATOM     31  C   UNL     1       1.411  -1.761  -2.247  0.00  0.00    +0.026 A 
ENDBRANCH  23  26
BRANCH  22  32
ATOM     32  C   UNL     1      -1.271  -0.682   0.456  0.00  0.00    -0.001 A 
ATOM     33  C   UNL     1      -1.499  -1.806  -0.339  0.00  0.00    +0.010 A 
ATOM     34  C   UNL     1      -2.655  -2.541  -0.173  0.00  0.00    +0.001 A 
ATOM     35  C   UNL     1      -3.591  -2.159   0.772  0.00  0.00    +0.000 A 
ATOM     36  C   UNL     1      -3.373  -1.043   1.559  0.00  0.00    +0.001 A 
ATOM     37  C   UNL     1      -2.219  -0.302   1.407  0.00  0.00    +0.010 A 
ENDBRANCH  22  32
ENDBRANCH   5  20
TORSDOF 5
