REMARK  Name = ZINC61891272
REMARK  5 active torsions:
REMARK  status: ('A' for Active; 'I' for Inactive)
REMARK    1  A    between atoms: C_1  and  C_2
REMARK    2  A    between atoms: C_2  and  C_4
REMARK    3  A    between atoms: C_2  and  N_14
REMARK    4  A    between atoms: N_14  and  C_15
REMARK    5  A    between atoms: C_20  and  C_22
REMARK                            x       y       z     vdW  Elec       q    Type
REMARK                         _______ _______ _______ _____ _____    ______ ____
ROOT
ATOM      1  C   UNL     1      -0.019   1.526   0.010  0.00  0.00    -0.006 C 
ATOM      2  C   UNL     1       0.002  -0.004   0.002  0.00  0.00    -0.007 C 
ENDROOT
BRANCH   2   3
ATOM      3  C   UNL     1       0.707  -0.490  -1.238  0.00  0.00    +0.092 A 
ATOM      4  C   UNL     1       0.096  -0.923  -2.349  0.00  0.00    +0.051 A 
ATOM      5  C   UNL     1       1.163  -1.291  -3.287  0.00  0.00    +0.021 A 
ATOM      6  C   UNL     1       1.187  -1.798  -4.585  0.00  0.00    +0.027 A 
ATOM      7  C   UNL     1       2.397  -2.040  -5.199  0.00  0.00    +0.019 A 
ATOM      8  C   UNL     1       3.585  -1.781  -4.530  0.00  0.00    +0.019 A 
ATOM      9  C   UNL     1       3.574  -1.280  -3.246  0.00  0.00    +0.048 A 
ATOM     10  C   UNL     1       2.365  -1.028  -2.609  0.00  0.00    +0.135 A 
ATOM     11  O   UNL     1       2.042  -0.547  -1.392  0.00  0.00    -0.461 OA
ATOM     12 BR   UNL     1       2.438  -2.728  -6.960  0.00  0.00    -0.050 Br
ENDBRANCH   2   3
BRANCH   2  13
ATOM     13  N   UNL     1       0.713  -0.491   1.192  0.00  0.00    +0.388 N 
ATOM     14  H   UNL     1       0.798  -1.495   1.145  0.00  0.00    -0.084 HD
ATOM     15  H   UNL     1       1.632  -0.076   1.228  0.00  0.00    -0.084 HD
BRANCH  13  16
ATOM     16  C   UNL     1      -0.040  -0.119   2.398  0.00  0.00    -0.054 C 
ATOM     17  C   UNL     1      -1.373  -0.905   2.469  0.00  0.00    -0.014 C 
ATOM     18  C   UNL     1      -1.705  -0.878   3.982  0.00  0.00    -0.000 C 
ATOM     19  C   UNL     1      -0.335  -1.035   4.673  0.00  0.00    +0.016 C 
ATOM     20  C   UNL     1       0.725  -0.550   3.666  0.00  0.00    +0.078 C 
BRANCH  20  21
ATOM     21  C   UNL     1       1.466   0.595   4.221  0.00  0.00    +0.064 C 
ATOM     22  N   UNL     1       2.037   1.478   4.650  0.00  0.00    -0.196 NA
ENDBRANCH  20  21
ENDBRANCH  13  16
ENDBRANCH   2  13
TORSDOF 4
