REMARK  Name = ZINC00053661
REMARK  8 active torsions:
REMARK  status: ('A' for Active; 'I' for Inactive)
REMARK    1  A    between atoms: C_1  and  C_2
REMARK    2  A    between atoms: C_6  and  C_24
REMARK    3  A    between atoms: N_8  and  C_21
REMARK    4  A    between atoms: N_14  and  C_18
REMARK    5  A    between atoms: C_18  and  C_19
REMARK    6  A    between atoms: C_18  and  C_20
REMARK    7  A    between atoms: C_21  and  C_22
REMARK    8  A    between atoms: C_21  and  C_23
REMARK                            x       y       z     vdW  Elec       q    Type
REMARK                         _______ _______ _______ _____ _____    ______ ____
ROOT
ATOM      1  C   UNL     1       2.291   2.684   1.555  0.00  0.00    +0.028 C 
ATOM      2  C   UNL     1       3.498   1.745   1.507  0.00  0.00    +0.080 C 
ATOM      3  C   UNL     1       3.489   0.968   0.188  0.00  0.00    +0.073 C 
ATOM      4  C   UNL     1       2.139   0.268   0.025  0.00  0.00    +0.116 C 
ATOM      5  N   UNL     1       1.079   1.272  -0.074  0.00  0.00    -0.276 N 
ATOM      6  C   UNL     1       1.318   2.490  -0.584  0.00  0.00    +0.304 C 
ATOM      7  O   UNL     1       0.400   3.283  -0.657  0.00  0.00    -0.253 OA
ATOM      8  N   UNL     1       2.530   2.866  -1.016  0.00  0.00    -0.280 N 
ATOM      9  C   UNL     1       3.677   1.959  -0.967  0.00  0.00    +0.173 C 
ATOM     10  N   UNL     1       4.901   2.729  -0.742  0.00  0.00    -0.264 N 
ATOM     11  C   UNL     1       5.355   2.974   0.496  0.00  0.00    +0.304 C 
ATOM     12  O   UNL     1       6.372   3.629   0.626  0.00  0.00    -0.253 OA
ATOM     13  N   UNL     1       4.732   2.527   1.596  0.00  0.00    -0.296 N 
ATOM     14  H   UNL     1       2.650   3.761  -1.371  0.00  0.00    +0.152 HD
ATOM     15  H   UNL     1       5.107   2.726   2.469  0.00  0.00    +0.151 HD
ENDROOT
BRANCH   4  16
ATOM     16  C   UNL     1       1.884  -0.617   1.218  0.00  0.00    -0.027 A 
ATOM     17  C   UNL     1       2.007  -1.989   1.099  0.00  0.00    +0.005 A 
ATOM     18  C   UNL     1       1.778  -2.800   2.195  0.00  0.00    +0.000 A 
ATOM     19  C   UNL     1       1.414  -2.241   3.405  0.00  0.00    +0.000 A 
ATOM     20  C   UNL     1       1.285  -0.870   3.522  0.00  0.00    +0.000 A 
ATOM     21  C   UNL     1       1.520  -0.058   2.428  0.00  0.00    +0.005 A 
ENDBRANCH   4  16
BRANCH  10  22
ATOM     22  C   UNL     1       5.647   3.242  -1.894  0.00  0.00    +0.073 C 
ATOM     23  C   UNL     1       5.723   4.768  -1.814  0.00  0.00    +0.028 C 
ATOM     24  C   UNL     1       7.062   2.660  -1.886  0.00  0.00    +0.028 C 
ENDBRANCH  10  22
BRANCH   5  25
ATOM     25  C   UNL     1      -0.268   0.943   0.397  0.00  0.00    +0.072 C 
ATOM     26  C   UNL     1      -1.234   0.925  -0.790  0.00  0.00    +0.028 C 
ATOM     27  C   UNL     1      -0.725   1.994   1.410  0.00  0.00    +0.028 C 
ENDBRANCH   5  25
TORSDOF 3
