REMARK  Name = ZINC20875167
REMARK  11 active torsions:
REMARK  status: ('A' for Active; 'I' for Inactive)
REMARK    1  A    between atoms: C_1  and  C_2
REMARK    2  A    between atoms: C_5  and  C_8
REMARK    3  A    between atoms: C_8  and  O_9
REMARK    4  A    between atoms: O_9  and  C_10
REMARK    5  A    between atoms: C_15  and  C_16
REMARK    6  A    between atoms: C_16  and  N_17
REMARK    7  A    between atoms: N_17  and  C_18
REMARK    8  A    between atoms: C_18  and  C_20
REMARK    9  A    between atoms: C_18  and  C_21
REMARK   10  A    between atoms: C_21  and  C_23
REMARK   11  A    between atoms: C_21  and  O_29
REMARK                            x       y       z     vdW  Elec       q    Type
REMARK                         _______ _______ _______ _____ _____    ______ ____
ROOT
ATOM      1  C   UNL     1      -3.226   2.704   1.547  0.00  0.00    +0.125 A 
ATOM      2  C   UNL     1      -4.378   2.800   0.780  0.00  0.00    +0.047 A 
ATOM      3  C   UNL     1      -5.610   2.910   1.396  0.00  0.00    +0.023 A 
ATOM      4  C   UNL     1      -5.694   2.935   2.777  0.00  0.00    +0.041 A 
ATOM      5  C   UNL     1      -4.546   2.844   3.543  0.00  0.00    +0.028 A 
ATOM      6  C   UNL     1      -3.312   2.729   2.931  0.00  0.00    +0.009 A 
ATOM      7 CL   UNL     1      -7.242   3.079   3.549  0.00  0.00    -0.084 Cl
ENDROOT
BRANCH   1   8
ATOM      8  O   UNL     1      -2.014   2.592   0.943  0.00  0.00    -0.487 OA
BRANCH   8   9
ATOM      9  C   UNL     1      -1.988   2.686  -0.483  0.00  0.00    +0.264 C 
BRANCH   9  14
ATOM     10  C   UNL     1       3.415   1.928  -2.385  0.00  0.00    +0.044 C 
ATOM     11  C   UNL     1       2.007   2.126  -1.888  0.00  0.00    -0.050 A 
ATOM     12  C   UNL     1       1.200   1.030  -1.643  0.00  0.00    +0.004 A 
ATOM     13  C   UNL     1      -0.092   1.211  -1.187  0.00  0.00    +0.007 A 
ATOM     14  C   UNL     1      -0.578   2.488  -0.974  0.00  0.00    -0.010 A 
ATOM     15  C   UNL     1       0.230   3.584  -1.218  0.00  0.00    +0.007 A 
ATOM     16  C   UNL     1       1.521   3.402  -1.675  0.00  0.00    +0.004 A 
ENDBRANCH   9  14
ENDBRANCH   8   9
ENDBRANCH   1   8
BRANCH   6  17
ATOM     17  C   UNL     1      -2.062   2.631   3.766  0.00  0.00    +0.120 C 
BRANCH  17  18
ATOM     18  N   UNL     1      -1.382   3.933   3.785  0.00  0.00    -0.307 NA
ATOM     19  H   UNL     1      -0.306   3.782   3.957  0.00  0.00    +0.123 HD
BRANCH  18  20
ATOM     20  C   UNL     1      -1.914   4.790   4.852  0.00  0.00    +0.084 C 
ATOM     21  C   UNL     1      -2.893   5.802   4.252  0.00  0.00    +0.027 C 
BRANCH  20  22
ATOM     22  C   UNL     1      -0.763   5.535   5.530  0.00  0.00    +0.161 C 
BRANCH  22  23
ATOM     23  C   UNL     1       0.196   4.539   6.129  0.00  0.00    -0.018 A 
ATOM     24  C   UNL     1       1.164   3.949   5.338  0.00  0.00    +0.006 A 
ATOM     25  C   UNL     1       2.047   3.039   5.888  0.00  0.00    +0.000 A 
ATOM     26  C   UNL     1       1.955   2.711   7.228  0.00  0.00    +0.000 A 
ATOM     27  C   UNL     1       0.984   3.297   8.018  0.00  0.00    +0.000 A 
ATOM     28  C   UNL     1       0.104   4.210   7.469  0.00  0.00    +0.006 A 
ENDBRANCH  22  23
BRANCH  22  29
ATOM     29  O   UNL     1      -0.078   6.334   4.564  0.00  0.00    -0.386 OA
ATOM     30  H   UNL     1       0.785   6.945   4.868  0.00  0.00    +0.210 HD
ENDBRANCH  22  29
ENDBRANCH  20  22
ENDBRANCH  18  20
ENDBRANCH  17  18
ENDBRANCH   6  17
TORSDOF 9
