REMARK  Name = ZINC00830357
REMARK  9 active torsions:
REMARK  status: ('A' for Active; 'I' for Inactive)
REMARK    1  A    between atoms: C_1  and  C_2
REMARK    2  A    between atoms: C_4  and  C_27
REMARK    3  A    between atoms: C_5  and  C_26
REMARK    4  A    between atoms: C_6  and  C_9
REMARK    5  A    between atoms: C_7  and  C_8
REMARK    6  A    between atoms: C_11  and  C_24
REMARK    7  A    between atoms: C_12  and  N_23
REMARK    8  A    between atoms: C_19  and  C_21
REMARK    9  A    between atoms: C_19  and  C_22
REMARK                            x       y       z     vdW  Elec       q    Type
REMARK                         _______ _______ _______ _____ _____    ______ ____
ROOT
ATOM      1  C   UNL     1      -0.579   1.127  -0.246  0.00  0.00    +0.101 C 
ATOM      2  C   UNL     1       0.914   0.961  -0.297  0.00  0.00    +0.098 C 
ATOM      3  C   UNL     1       1.689   1.906  -0.881  0.00  0.00    +0.198 C 
ATOM      4  O   UNL     1       1.156   3.012  -1.421  0.00  0.00    -0.445 OA
ATOM      5  C   UNL     1      -0.141   3.023  -1.785  0.00  0.00    +0.115 C 
ATOM      6  C   UNL     1      -1.022   2.149  -1.265  0.00  0.00    +0.046 C 
ATOM      7  C   UNL     1      -2.376   2.157  -1.652  0.00  0.00    +0.164 C 
ATOM      8  O   UNL     1      -3.144   1.363  -1.147  0.00  0.00    -0.292 OA
ATOM      9  C   UNL     1      -2.887   3.131  -2.678  0.00  0.00    +0.086 C 
ATOM     10  C   UNL     1      -1.741   3.499  -3.626  0.00  0.00    -0.021 C 
ATOM     11  C   UNL     1      -0.584   4.055  -2.796  0.00  0.00    +0.081 C 
ATOM     12  C   UNL     1      -1.279   2.251  -4.381  0.00  0.00    +0.012 C 
ATOM     13  C   UNL     1      -2.219   4.556  -4.624  0.00  0.00    +0.012 C 
ENDROOT
BRANCH   1  19
ATOM     14  C   UNL     1      -3.090   0.368   4.016  0.00  0.00    +0.044 C 
ATOM     15  C   UNL     1      -2.185   1.226   3.169  0.00  0.00    -0.047 A 
ATOM     16  C   UNL     1      -1.728   2.437   3.654  0.00  0.00    +0.007 A 
ATOM     17  C   UNL     1      -0.899   3.224   2.877  0.00  0.00    -0.047 A 
ATOM     18  C   UNL     1      -0.527   2.800   1.615  0.00  0.00    -0.043 A 
ATOM     19  C   UNL     1      -0.984   1.589   1.130  0.00  0.00    -0.028 A 
ATOM     20  C   UNL     1      -1.818   0.805   1.905  0.00  0.00    -0.043 A 
ATOM     21  C   UNL     1      -2.321  -0.513   1.374  0.00  0.00    +0.044 C 
ATOM     22  C   UNL     1       0.377   3.658   0.768  0.00  0.00    +0.044 C 
ATOM     23  C   UNL     1      -0.400   4.545   3.406  0.00  0.00    +0.044 C 
ENDBRANCH   1  19
BRANCH   3  24
ATOM     24  N   UNL     1       3.050   1.728  -0.921  0.00  0.00    -0.328 N 
ATOM     25  H   UNL     1       3.447   0.932  -0.534  0.00  0.00    +0.145 HD
ATOM     26  H   UNL     1       3.615   2.398  -1.337  0.00  0.00    +0.145 HD
ENDBRANCH   3  24
BRANCH   2  27
ATOM     27  C   UNL     1       1.520  -0.204   0.275  0.00  0.00    +0.101 C 
ATOM     28  N   UNL     1       2.001  -1.127   0.729  0.00  0.00    -0.191 NA
ENDBRANCH   2  27
TORSDOF 3
