REMARK  Name = ZINC36904045
REMARK  3 active torsions:
REMARK  status: ('A' for Active; 'I' for Inactive)
REMARK    1  A    between atoms: C_3  and  S_9
REMARK    2  A    between atoms: S_9  and  N_12
REMARK    3  A    between atoms: C_16  and  N_19
REMARK                            x       y       z     vdW  Elec       q    Type
REMARK                         _______ _______ _______ _____ _____    ______ ____
ROOT
ATOM      1  S   UNL     1       3.890   2.316  -0.024  0.00  0.00    +0.102 S 
ATOM      2  O   UNL     1       4.688   1.760  -1.061  0.00  0.00    -0.146 OA
ATOM      3  O   UNL     1       3.542   3.693   0.013  0.00  0.00    -0.146 OA
ENDROOT
BRANCH   1   6
ATOM      4  C   UNL     1      -0.017   1.379   0.010  0.00  0.00    +0.017 A 
ATOM      5  C   UNL     1       1.171   2.087   0.002  0.00  0.00    +0.031 A 
ATOM      6  C   UNL     1       2.377   1.413  -0.013  0.00  0.00    +0.131 A 
ATOM      7  C   UNL     1       2.397   0.029  -0.021  0.00  0.00    +0.069 A 
ATOM      8  C   UNL     1       1.209  -0.679  -0.013  0.00  0.00    +0.037 A 
ATOM      9  C   UNL     1       0.002  -0.004   0.002  0.00  0.00    +0.019 A 
ATOM     10 BR   UNL     1      -1.623  -0.972   0.013  0.00  0.00    -0.050 Br
ATOM     11 CL   UNL     1       3.913  -0.817  -0.041  0.00  0.00    -0.081 Cl
ENDBRANCH   1   6
BRANCH   1  12
ATOM     12  N   UNL     1       4.668   1.985   1.400  0.00  0.00    -0.111 NA
ATOM     13  C   UNL     1       5.838   2.537   1.656  0.00  0.00    +0.153 A 
ATOM     14  C   UNL     1       6.507   2.252   2.869  0.00  0.00    +0.049 A 
ATOM     15  C   UNL     1       7.712   2.828   3.117  0.00  0.00    +0.028 A 
ATOM     16  C   UNL     1       8.277   3.699   2.164  0.00  0.00    +0.041 A 
ATOM     17  C   UNL     1       7.624   3.962   1.007  0.00  0.00    +0.107 A 
ATOM     18  N   UNL     1       6.414   3.385   0.744  0.00  0.00    -0.343 N 
ATOM     19  H   UNL     1       5.958   3.578  -0.090  0.00  0.00    +0.167 HD
BRANCH  16  20
ATOM     20  N   UNL     1       9.523   4.298   2.416  0.00  0.00    -0.357 N 
ATOM     21  H   UNL     1       9.992   4.111   3.244  0.00  0.00    +0.142 HD
ATOM     22  H   UNL     1       9.913   4.898   1.761  0.00  0.00    +0.142 HD
ENDBRANCH  16  20
ENDBRANCH   1  12
TORSDOF 3
