REMARK  Name = ZINC12916895
REMARK  9 active torsions:
REMARK  status: ('A' for Active; 'I' for Inactive)
REMARK    1  A    between atoms: C_1  and  C_2
REMARK    2  A    between atoms: C_3  and  C_34
REMARK    3  A    between atoms: C_7  and  N_19
REMARK    4  A    between atoms: C_9  and  C_11
REMARK    5  A    between atoms: C_11  and  S_12
REMARK    6  A    between atoms: S_12  and  C_13
REMARK    7  A    between atoms: N_19  and  C_20
REMARK    8  A    between atoms: C_20  and  C_21
REMARK    9  A    between atoms: N_30  and  C_33
REMARK                            x       y       z     vdW  Elec       q    Type
REMARK                         _______ _______ _______ _____ _____    ______ ____
ROOT
ATOM      1  C   UNL     1      -2.673  -0.901   0.014  0.00  0.00    +0.045 C 
ATOM      2  C   UNL     1      -1.235  -1.351  -0.003  0.00  0.00    -0.028 A 
ATOM      3  C   UNL     1      -0.922  -2.612  -0.335  0.00  0.00    -0.008 A 
ATOM      4  S   UNL     1       0.856  -2.647  -0.208  0.00  0.00    -0.074 S 
ATOM      5  C   UNL     1       1.131  -0.967   0.288  0.00  0.00    +0.114 A 
ATOM      6  C   UNL     1      -0.171  -0.423   0.341  0.00  0.00    +0.051 A 
ATOM      7  C   UNL     1      -0.245   0.945   0.723  0.00  0.00    +0.131 A 
ATOM      8  N   UNL     1       0.872   1.600   0.994  0.00  0.00    -0.216 NA
ATOM      9  C   UNL     1       2.059   1.026   0.922  0.00  0.00    +0.142 A 
ATOM     10  N   UNL     1       2.192  -0.239   0.575  0.00  0.00    -0.224 NA
ATOM     11  C   UNL     1      -1.852  -3.732  -0.723  0.00  0.00    +0.052 C 
ENDROOT
BRANCH   7  12
ATOM     12  N   UNL     1      -1.469   1.584   0.803  0.00  0.00    -0.324 N 
ATOM     13  H   UNL     1      -2.382   1.067   0.474  0.00  0.00    +0.148 HD
BRANCH  12  14
ATOM     14  C   UNL     1      -1.549   2.950   1.326  0.00  0.00    +0.139 C 
BRANCH  14  15
ATOM     15  C   UNL     1      -2.984   3.412   1.308  0.00  0.00    -0.014 A 
ATOM     16  C   UNL     1      -3.805   3.194   2.407  0.00  0.00    +0.010 A 
ATOM     17  C   UNL     1      -5.115   3.634   2.349  0.00  0.00    +0.042 A 
ATOM     18  C   UNL     1      -5.563   4.276   1.200  0.00  0.00    +0.099 A 
ATOM     19  N   UNL     1      -4.749   4.465   0.172  0.00  0.00    -0.349 N 
ATOM     20  C   UNL     1      -3.493   4.061   0.201  0.00  0.00    +0.089 A 
ATOM     21  N   UNL     1      -6.877   4.723   1.128  0.00  0.00    -0.314 N 
ATOM     22  C   UNL     1      -7.822   3.623   1.369  0.00  0.00    +0.122 C 
ATOM     23  C   UNL     1      -9.251   4.170   1.361  0.00  0.00    +0.103 C 
ATOM     24  N   UNL     1      -9.518   4.817   0.069  0.00  0.00    -0.302 NA
ATOM     25  C   UNL     1      -8.574   5.917  -0.172  0.00  0.00    +0.103 C 
ATOM     26  C   UNL     1      -7.144   5.370  -0.164  0.00  0.00    +0.122 C 
ATOM     27  C   UNL     1     -10.907   5.290  -0.007  0.00  0.00    +0.105 C 
ATOM     28  H   UNL     1      -5.116   4.969  -0.734  0.00  0.00    +0.167 HD
ENDBRANCH  14  15
ENDBRANCH  12  14
ENDBRANCH   7  12
BRANCH   9  29
ATOM     29  C   UNL     1       3.289   1.835   1.245  0.00  0.00    +0.150 C 
BRANCH  29  30
ATOM     30  S   UNL     1       3.909   2.623  -0.267  0.00  0.00    -0.117 S 
BRANCH  30  31
ATOM     31  C   UNL     1       5.328   3.519   0.270  0.00  0.00    +0.008 A 
ATOM     32  C   UNL     1       5.704   3.492   1.607  0.00  0.00    +0.015 A 
ATOM     33  C   UNL     1       6.821   4.189   2.023  0.00  0.00    +0.001 A 
ATOM     34  C   UNL     1       7.557   4.925   1.112  0.00  0.00    +0.000 A 
ATOM     35  C   UNL     1       7.182   4.960  -0.219  0.00  0.00    +0.001 A 
ATOM     36  C   UNL     1       6.070   4.259  -0.643  0.00  0.00    +0.015 A 
ENDBRANCH  30  31
ENDBRANCH  29  30
ENDBRANCH   9  29
TORSDOF 6
