REMARK  Name = ZINC00049116
REMARK  6 active torsions:
REMARK  status: ('A' for Active; 'I' for Inactive)
REMARK    1  A    between atoms: C_3  and  S_16
REMARK    2  A    between atoms: C_4  and  N_13
REMARK    3  A    between atoms: C_6  and  C_7
REMARK    4  A    between atoms: C_8  and  C_9
REMARK    5  A    between atoms: C_8  and  C_11
REMARK    6  A    between atoms: S_16  and  C_17
REMARK                            x       y       z     vdW  Elec       q    Type
REMARK                         _______ _______ _______ _____ _____    ______ ____
ROOT
ATOM      1  C   UNL     1      -2.569  -0.108  -1.006  0.00  0.00    +0.009 A 
ATOM      2  C   UNL     1      -3.761  -0.713  -0.731  0.00  0.00    +0.017 A 
ATOM      3  C   UNL     1      -4.937   0.035  -0.713  0.00  0.00    +0.038 A 
ATOM      4  C   UNL     1      -4.902   1.404  -0.977  0.00  0.00    +0.140 A 
ATOM      5  C   UNL     1      -3.715   2.019  -1.248  0.00  0.00    +0.041 A 
ATOM      6  C   UNL     1      -2.529   1.269  -1.273  0.00  0.00    -0.021 A 
ENDROOT
BRANCH   4   7
ATOM      7  N   UNL     1      -6.155   2.193  -0.955  0.00  0.00    +0.058 N 
ATOM      8  O   UNL     1      -6.126   3.388  -1.185  0.00  0.00    -0.126 OA
ATOM      9  O   UNL     1      -7.215   1.646  -0.708  0.00  0.00    -0.126 OA
ENDBRANCH   4   7
BRANCH   6  10
ATOM     10  C   UNL     1      -1.253   1.923  -1.568  0.00  0.00    +0.038 C 
ATOM     11  C   UNL     1      -0.267   1.236  -2.242  0.00  0.00    +0.129 C 
BRANCH  11  12
ATOM     12  C   UNL     1      -0.542  -0.059  -2.789  0.00  0.00    +0.110 C 
ATOM     13  N   UNL     1      -0.760  -1.086  -3.223  0.00  0.00    -0.190 NA
ENDBRANCH  11  12
BRANCH  11  14
ATOM     14  C   UNL     1       1.032   1.819  -2.400  0.00  0.00    +0.110 C 
ATOM     15  N   UNL     1       2.062   2.281  -2.526  0.00  0.00    -0.190 NA
ENDBRANCH  11  14
ENDBRANCH   6  10
BRANCH   3  16
ATOM     16  S   UNL     1      -6.473  -0.752  -0.356  0.00  0.00    -0.120 S 
BRANCH  16  17
ATOM     17  C   UNL     1      -6.036  -2.502  -0.169  0.00  0.00    +0.051 C 
ATOM     18  C   UNL     1      -7.304  -3.355  -0.247  0.00  0.00    +0.014 C 
ATOM     19  C   UNL     1      -6.935  -4.832  -0.089  0.00  0.00    +0.001 C 
ATOM     20  C   UNL     1      -6.258  -5.047   1.266  0.00  0.00    +0.000 C 
ATOM     21  C   UNL     1      -4.990  -4.194   1.343  0.00  0.00    +0.001 C 
ATOM     22  C   UNL     1      -5.359  -2.717   1.186  0.00  0.00    +0.014 C 
ENDBRANCH  16  17
ENDBRANCH   3  16
TORSDOF 6
