REMARK  Name = ZINC27319490
REMARK  8 active torsions:
REMARK  status: ('A' for Active; 'I' for Inactive)
REMARK    1  A    between atoms: C_1  and  C_2
REMARK    2  A    between atoms: C_2  and  C_40
REMARK    3  A    between atoms: C_7  and  C_22
REMARK    4  A    between atoms: C_8  and  N_11
REMARK    5  A    between atoms: C_12  and  C_14
REMARK    6  A    between atoms: C_14  and  C_15
REMARK    7  A    between atoms: C_22  and  S_23
REMARK    8  A    between atoms: S_23  and  N_26
REMARK                            x       y       z     vdW  Elec       q    Type
REMARK                         _______ _______ _______ _____ _____    ______ ____
ROOT
ATOM      1  C   UNL     1       4.908   0.642   0.073  0.00  0.00    +0.012 C 
ATOM      2  C   UNL     1       3.634   1.478   0.213  0.00  0.00    -0.023 C 
ATOM      3  C   UNL     1       3.030   1.392   1.660  0.00  0.00    -0.003 C 
ATOM      4  C   UNL     1       2.701  -0.130   1.745  0.00  0.00    +0.005 C 
ATOM      5  C   UNL     1       2.273  -0.507   0.296  0.00  0.00    +0.011 C 
ATOM      6  C   UNL     1       2.413   0.817  -0.516  0.00  0.00    +0.015 C 
ATOM      7  C   UNL     1       1.248   1.716  -0.001  0.00  0.00    +0.081 C 
ATOM      8  C   UNL     1       1.657   2.097   1.440  0.00  0.00    +0.027 C 
ATOM      9  C   UNL     1       3.854   2.925  -0.232  0.00  0.00    +0.012 C 
ENDROOT
BRANCH   7  10
ATOM     10  N   UNL     1      -0.011   0.966   0.007  0.00  0.00    -0.312 N 
ATOM     11  C   UNL     1      -1.185   1.620   0.111  0.00  0.00    +0.213 C 
ATOM     12  O   UNL     1      -1.198   2.830   0.203  0.00  0.00    -0.276 OA
ATOM     13  H   UNL     1       0.002  -0.131  -0.071  0.00  0.00    +0.149 HD
BRANCH  11  14
ATOM     14  C   UNL     1      -2.480   0.850   0.113  0.00  0.00    +0.097 C 
BRANCH  14  15
ATOM     15  C   UNL     1      -3.653   1.824   0.241  0.00  0.00    -0.019 C 
ATOM     16  C   UNL     1      -4.960   1.036   0.364  0.00  0.00    +0.000 C 
ATOM     17  C   UNL     1      -6.133   2.017   0.431  0.00  0.00    -0.019 C 
ATOM     18  C   UNL     1      -6.123   2.903  -0.817  0.00  0.00    -0.083 C 
ATOM     19  N   UNL     1      -4.853   3.636  -0.889  0.00  0.00    +0.379 N 
ATOM     20  C   UNL     1      -3.714   2.715  -1.001  0.00  0.00    -0.079 C 
ATOM     21  H   UNL     1      -4.859   4.296  -1.769  0.00  0.00    -0.086 HD
ATOM     22  H   UNL     1      -4.726   4.240   0.022  0.00  0.00    -0.086 HD
ENDBRANCH  14  15
ENDBRANCH  11  14
ENDBRANCH   7  10
BRANCH   6  23
ATOM     23  C   UNL     1       2.527   0.677  -2.036  0.00  0.00    +0.194 C 
BRANCH  23  24
ATOM     24  S   UNL     1       1.012  -0.077  -2.690  0.00  0.00    +0.032 S 
ATOM     25  O   UNL     1       0.911  -1.427  -2.258  0.00  0.00    -0.158 OA
ATOM     26  O   UNL     1      -0.083   0.816  -2.539  0.00  0.00    -0.158 OA
BRANCH  24  27
ATOM     27  N   UNL     1       1.256  -0.173  -4.325  0.00  0.00    -0.181 NA
ATOM     28  C   UNL     1       0.852   0.929  -5.208  0.00  0.00    +0.110 C 
ATOM     29  C   UNL     1      -0.055   0.378  -6.308  0.00  0.00    +0.028 C 
ATOM     30  C   UNL     1       0.647  -0.781  -7.010  0.00  0.00    -0.001 C 
ATOM     31  C   UNL     1       1.949  -0.287  -7.666  0.00  0.00    +0.016 C 
ATOM     32  C   UNL     1       2.021  -1.148  -8.946  0.00  0.00    +0.036 C 
ATOM     33  C   UNL     1       0.585  -1.513  -9.259  0.00  0.00    -0.044 A 
ATOM     34  C   UNL     1      -0.205  -1.302  -8.143  0.00  0.00    -0.038 A 
ATOM     35  C   UNL     1      -1.562  -1.571  -8.201  0.00  0.00    +0.004 A 
ATOM     36  C   UNL     1      -2.128  -2.050  -9.366  0.00  0.00    +0.000 A 
ATOM     37  C   UNL     1      -1.338  -2.262 -10.480  0.00  0.00    +0.000 A 
ATOM     38  C   UNL     1       0.016  -1.994 -10.426  0.00  0.00    +0.004 A 
ATOM     39  C   UNL     1       0.956  -1.901  -6.021  0.00  0.00    +0.028 C 
ATOM     40  C   UNL     1       1.876  -1.366  -4.919  0.00  0.00    +0.110 C 
ENDBRANCH  24  27
ENDBRANCH  23  24
ENDBRANCH   6  23
TORSDOF 6
