REMARK  Name = ZINC63473028
REMARK  5 active torsions:
REMARK  status: ('A' for Active; 'I' for Inactive)
REMARK    1  A    between atoms: C_1  and  O_2
REMARK    2  A    between atoms: O_2  and  C_3
REMARK    3  A    between atoms: C_6  and  N_9
REMARK    4  A    between atoms: C_14  and  C_32
REMARK    5  A    between atoms: C_32  and  C_33
REMARK                            x       y       z     vdW  Elec       q    Type
REMARK                         _______ _______ _______ _____ _____    ______ ____
ROOT
ATOM      1  N   UNL     1      -4.892  -2.582   0.034  0.00  0.00    -0.210 N 
ATOM      2  C   UNL     1      -6.054  -1.927   0.136  0.00  0.00    +0.232 C 
ATOM      3  O   UNL     1      -6.174  -0.724   0.229  0.00  0.00    -0.274 OA
ATOM      4  C   UNL     1      -7.194  -2.920   0.117  0.00  0.00    +0.107 C 
ATOM      5  C   UNL     1      -7.864  -2.948   1.507  0.00  0.00    +0.072 C 
ATOM      6  N   UNL     1      -8.027  -4.392   1.823  0.00  0.00    -0.295 NA
ATOM      7  C   UNL     1      -6.795  -5.016   1.307  0.00  0.00    +0.136 C 
ATOM      8  C   UNL     1      -6.473  -4.290  -0.023  0.00  0.00    +0.123 C 
ATOM      9  C   UNL     1      -5.010  -3.911  -0.065  0.00  0.00    +0.233 C 
ATOM     10  O   UNL     1      -4.088  -4.691  -0.170  0.00  0.00    -0.274 OA
ATOM     11  C   UNL     1      -6.976  -6.492   1.092  0.00  0.00    +0.006 A 
ATOM     12  C   UNL     1      -7.835  -7.239   0.317  0.00  0.00    +0.046 A 
ATOM     13  C   UNL     1      -7.758  -8.622   0.332  0.00  0.00    +0.124 A 
ATOM     14  C   UNL     1      -6.814  -9.250   1.128  0.00  0.00    +0.040 A 
ATOM     15  C   UNL     1      -5.952  -8.504   1.905  0.00  0.00    +0.026 A 
ATOM     16  C   UNL     1      -6.024  -7.113   1.895  0.00  0.00    +0.039 A 
ATOM     17  N   UNL     1      -5.273  -6.155   2.583  0.00  0.00    -0.283 N 
ATOM     18  C   UNL     1      -5.665  -4.900   2.292  0.00  0.00    +0.243 C 
ATOM     19  O   UNL     1      -5.196  -3.874   2.739  0.00  0.00    -0.273 OA
ATOM     20  F   UNL     1      -8.600  -9.356  -0.427  0.00  0.00    -0.205 F 
ATOM     21  H   UNL     1      -8.116  -4.536   2.818  0.00  0.00    +0.124 HD
ATOM     22  H   UNL     1      -4.554  -6.370   3.198  0.00  0.00    +0.155 HD
ENDROOT
BRANCH   1  26
ATOM     23  C   UNL     1      -1.201  -0.637   0.009  0.00  0.00    +0.120 A 
ATOM     24  C   UNL     1      -1.652  -1.284  -1.133  0.00  0.00    +0.047 A 
ATOM     25  C   UNL     1      -2.873  -1.928  -1.125  0.00  0.00    +0.027 A 
ATOM     26  C   UNL     1      -3.650  -1.928   0.026  0.00  0.00    +0.044 A 
ATOM     27  C   UNL     1      -3.199  -1.280   1.167  0.00  0.00    +0.027 A 
ATOM     28  C   UNL     1      -1.975  -0.641   1.160  0.00  0.00    +0.047 A 
BRANCH  23  30
ATOM     29  C   UNL     1       0.746  -0.039  -1.219  0.00  0.00    +0.277 C 
ATOM     30  O   UNL     1       0.002  -0.003   0.001  0.00  0.00    -0.495 OA
ENDBRANCH  23  30
ENDBRANCH   1  26
BRANCH   5  31
ATOM     31  C   UNL     1      -9.227  -2.255   1.456  0.00  0.00    +0.052 C 
BRANCH  31  32
ATOM     32  C   UNL     1      -9.808  -2.184   2.844  0.00  0.00    -0.040 C 
ATOM     33  C   UNL     1      -9.723  -1.148   3.710  0.00  0.00    -0.001 A 
ATOM     34  C   UNL     1      -9.089   0.172   3.620  0.00  0.00    +0.010 A 
ATOM     35  C   UNL     1      -9.175   1.014   4.676  0.00  0.00    +0.001 A 
ATOM     36  C   UNL     1      -9.853   0.657   5.849  0.00  0.00    +0.002 A 
ATOM     37  C   UNL     1     -10.460  -0.538   6.006  0.00  0.00    +0.026 A 
ATOM     38  C   UNL     1     -10.433  -1.500   4.960  0.00  0.00    +0.043 A 
ATOM     39  N   UNL     1     -10.937  -2.707   4.871  0.00  0.00    -0.380 N 
ATOM     40  C   UNL     1     -10.608  -3.256   3.550  0.00  0.00    +0.144 C 
ATOM     41  H   UNL     1     -11.446  -3.161   5.561  0.00  0.00    +0.160 HD
ENDBRANCH  31  32
ENDBRANCH   5  31
TORSDOF 4
