REMARK  Name = ZINC16853006
REMARK  11 active torsions:
REMARK  status: ('A' for Active; 'I' for Inactive)
REMARK    1  A    between atoms: C_1  and  C_2
REMARK    2  A    between atoms: C_2  and  C_3
REMARK    3  A    between atoms: C_3  and  C_4
REMARK    4  A    between atoms: C_4  and  C_5
REMARK    5  A    between atoms: C_5  and  C_7
REMARK    6  A    between atoms: C_5  and  C_22
REMARK    7  A    between atoms: C_8  and  C_21
REMARK    8  A    between atoms: C_10  and  C_15
REMARK    9  A    between atoms: N_24  and  N_25
REMARK   10  A    between atoms: C_26  and  C_27
REMARK   11  A    between atoms: C_36  and  O_37
REMARK                            x       y       z     vdW  Elec       q    Type
REMARK                         _______ _______ _______ _____ _____    ______ ____
ROOT
ATOM      1  C   UNL     1       3.636  -0.778  -0.039  0.00  0.00    +0.114 C 
ENDROOT
BRANCH   1   2
ATOM      2  C   UNL     1       2.383   0.057   0.018  0.00  0.00    +0.050 A 
ATOM      3  C   UNL     1       1.154  -0.535   0.017  0.00  0.00    +0.050 A 
ATOM      4  N   UNL     1       0.052   0.211   0.066  0.00  0.00    -0.234 NA
ATOM      5  C   UNL     1       0.115   1.525   0.117  0.00  0.00    +0.141 A 
ATOM      6  N   UNL     1       1.314   2.174   0.121  0.00  0.00    -0.307 N 
ATOM      7  H   UNL     1       1.343   3.143   0.159  0.00  0.00    +0.170 HD
ATOM      8  C   UNL     1       2.460   1.463   0.072  0.00  0.00    +0.256 A 
ATOM      9  O   UNL     1       3.542   2.026   0.075  0.00  0.00    -0.267 OA
ATOM     10  C   UNL     1       1.044  -2.037  -0.041  0.00  0.00    +0.066 C 
BRANCH   5  11
ATOM     11  C   UNL     1      -1.135   2.310   0.165  0.00  0.00    +0.017 A 
ATOM     12  C   UNL     1      -1.087   3.704   0.225  0.00  0.00    +0.011 A 
ATOM     13  C   UNL     1      -2.258   4.431   0.263  0.00  0.00    +0.001 A 
ATOM     14  C   UNL     1      -3.480   3.782   0.254  0.00  0.00    +0.000 A 
ATOM     15  C   UNL     1      -3.535   2.400   0.200  0.00  0.00    +0.001 A 
ATOM     16  C   UNL     1      -2.372   1.661   0.155  0.00  0.00    +0.011 A 
ENDBRANCH   5  11
ENDBRANCH   1   2
BRANCH   1  17
ATOM     17  C   UNL     1       4.471  -0.515   1.188  0.00  0.00    +0.240 C 
ATOM     18  O   UNL     1       5.358   0.312   1.152  0.00  0.00    -0.273 OA
ATOM     19  N   UNL     1       4.232  -1.198   2.325  0.00  0.00    -0.206 N 
ATOM     20  H   UNL     1       3.571  -1.908   2.334  0.00  0.00    +0.177 HD
BRANCH  19  21
ATOM     21  N   UNL     1       4.937  -0.881   3.494  0.00  0.00    -0.188 NA
ATOM     22  C   UNL     1       4.706  -1.540   4.590  0.00  0.00    +0.142 C 
BRANCH  22  23
ATOM     23  C   UNL     1       5.446  -1.208   5.816  0.00  0.00    +0.044 A 
ATOM     24  C   UNL     1       5.199  -1.939   7.058  0.00  0.00    -0.006 A 
ATOM     25  C   UNL     1       4.257  -2.972   7.123  0.00  0.00    +0.009 A 
ATOM     26  C   UNL     1       4.057  -3.629   8.300  0.00  0.00    +0.001 A 
ATOM     27  C   UNL     1       4.778  -3.286   9.442  0.00  0.00    +0.001 A 
ATOM     28  C   UNL     1       5.702  -2.286   9.414  0.00  0.00    +0.008 A 
ATOM     29  C   UNL     1       5.934  -1.587   8.217  0.00  0.00    -0.017 A 
ATOM     30  C   UNL     1       6.880  -0.549   8.149  0.00  0.00    +0.012 A 
ATOM     31  C   UNL     1       7.097   0.120   6.986  0.00  0.00    +0.046 A 
ATOM     32  C   UNL     1       6.402  -0.193   5.819  0.00  0.00    +0.126 A 
BRANCH  32  33
ATOM     33  O   UNL     1       6.655   0.498   4.678  0.00  0.00    -0.506 OA
ATOM     34  H   UNL     1       6.105   1.285   4.565  0.00  0.00    +0.292 HD
ENDBRANCH  32  33
ENDBRANCH  22  23
ENDBRANCH  19  21
ENDBRANCH   1  17
BRANCH   1  35
ATOM     35  C   UNL     1       4.437  -0.411  -1.289  0.00  0.00    +0.018 C 
BRANCH  35  36
ATOM     36  C   UNL     1       5.632  -1.357  -1.425  0.00  0.00    +0.001 C 
BRANCH  36  38
ATOM     37  C   UNL     1       7.553  -2.021  -2.878  0.00  0.00    +0.004 C 
ATOM     38  C   UNL     1       6.359  -1.075  -2.742  0.00  0.00    -0.003 C 
ENDBRANCH  36  38
ENDBRANCH  35  36
ENDBRANCH   1  35
TORSDOF 9
