REMARK  Name = ZINC14857367
REMARK  9 active torsions:
REMARK  status: ('A' for Active; 'I' for Inactive)
REMARK    1  A    between atoms: C_1  and  C_2
REMARK    2  A    between atoms: C_6  and  C_33
REMARK    3  A    between atoms: C_15  and  C_29
REMARK    4  A    between atoms: C_18  and  O_28
REMARK    5  A    between atoms: C_20  and  O_27
REMARK    6  A    between atoms: C_31  and  C_32
REMARK    7  A    between atoms: C_33  and  C_34
REMARK    8  A    between atoms: C_34  and  C_35
REMARK    9  A    between atoms: C_34  and  C_36
REMARK                            x       y       z     vdW  Elec       q    Type
REMARK                         _______ _______ _______ _____ _____    ______ ____
ROOT
ATOM      1  C   UNL     1       1.637   7.006   0.224  0.00  0.00    +0.012 C 
ATOM      2  C   UNL     1       2.537   6.133  -0.652  0.00  0.00    +0.020 C 
ATOM      3  C   UNL     1       3.139   5.005   0.182  0.00  0.00    +0.070 C 
ATOM      4  C   UNL     1       3.719   5.630   1.477  0.00  0.00    +0.081 C 
ATOM      5  N   UNL     1       2.595   5.627   2.426  0.00  0.00    -0.309 N 
ATOM      6  C   UNL     1       1.643   4.748   2.038  0.00  0.00    +0.259 C 
ATOM      7  O   UNL     1       0.609   4.528   2.634  0.00  0.00    -0.271 OA
ATOM      8  C   UNL     1       2.064   4.084   0.745  0.00  0.00    +0.203 C 
ATOM      9  C   UNL     1       0.836   3.835  -0.127  0.00  0.00    +0.088 C 
ATOM     10  C   UNL     1       0.692   2.335  -0.262  0.00  0.00    -0.016 C 
ATOM     11  C   UNL     1      -0.484   1.762  -0.316  0.00  0.00    -0.076 C 
ATOM     12  C   UNL     1      -0.574   0.257  -0.462  0.00  0.00    +0.033 C 
ATOM     13  C   UNL     1      -0.357  -0.407   0.900  0.00  0.00    +0.038 C 
ATOM     14  C   UNL     1       0.473  -1.685   0.714  0.00  0.00    +0.147 C 
ATOM     15  C   UNL     1       1.865  -1.460   1.326  0.00  0.00    +0.166 C 
ATOM     16  C   UNL     1       2.178   0.013   1.272  0.00  0.00    +0.013 C 
ATOM     17  C   UNL     1       2.080   0.769   2.367  0.00  0.00    +0.090 C 
ATOM     18  C   UNL     1       2.232   2.225   2.229  0.00  0.00    +0.333 C 
ATOM     19  O   UNL     1       2.004   2.943   3.183  0.00  0.00    -0.246 OA
ATOM     20  O   UNL     1       2.619   2.774   1.069  0.00  0.00    -0.444 OA
ATOM     21  C   UNL     1      -1.742   2.584  -0.224  0.00  0.00    +0.039 C 
ATOM     22  C   UNL     1       0.991   4.460  -1.465  0.00  0.00    -0.016 C 
ATOM     23  C   UNL     1       1.720   5.498  -1.755  0.00  0.00    -0.073 C 
ATOM     24  C   UNL     1       1.750   6.054  -3.155  0.00  0.00    +0.039 C 
ATOM     25  H   UNL     1       2.544   6.179   3.222  0.00  0.00    +0.149 HD
ENDROOT
BRANCH  15  26
ATOM     26  O   UNL     1       1.871  -1.907   2.684  0.00  0.00    -0.385 OA
ATOM     27  H   UNL     1       2.720  -1.794   3.132  0.00  0.00    +0.210 HD
ENDBRANCH  15  26
BRANCH  14  28
ATOM     28  O   UNL     1      -0.173  -2.777   1.371  0.00  0.00    -0.389 OA
ATOM     29  H   UNL     1       0.299  -3.617   1.292  0.00  0.00    +0.210 HD
ENDBRANCH  14  28
BRANCH   4  30
ATOM     30  C   UNL     1       4.191   7.061   1.214  0.00  0.00    +0.025 C 
BRANCH  30  31
ATOM     31  C   UNL     1       4.888   7.606   2.462  0.00  0.00    -0.015 C 
ATOM     32  C   UNL     1       6.162   6.802   2.727  0.00  0.00    +0.007 C 
ATOM     33  C   UNL     1       5.249   9.076   2.244  0.00  0.00    +0.007 C 
ENDBRANCH  30  31
ENDBRANCH   4  30
TORSDOF 4
