REMARK  Name = ZINC29636057
REMARK  8 active torsions:
REMARK  status: ('A' for Active; 'I' for Inactive)
REMARK    1  A    between atoms: C_1  and  C_2
REMARK    2  A    between atoms: N_10  and  C_11
REMARK    3  A    between atoms: C_11  and  C_12
REMARK    4  A    between atoms: N_14  and  N_15
REMARK    5  A    between atoms: C_16  and  C_18
REMARK    6  A    between atoms: C_23  and  N_24
REMARK    7  A    between atoms: N_24  and  S_25
REMARK    8  A    between atoms: S_25  and  C_28
REMARK                            x       y       z     vdW  Elec       q    Type
REMARK                         _______ _______ _______ _____ _____    ______ ____
ROOT
ATOM      1  N   UNL     1      -5.979   2.973  -2.584  0.00  0.00    -0.230 N 
ATOM      2  C   UNL     1      -7.270   2.791  -2.926  0.00  0.00    +0.262 C 
ATOM      3  O   UNL     1      -8.127   2.751  -2.065  0.00  0.00    -0.269 OA
ATOM      4  H   UNL     1      -5.203   3.009  -3.363  0.00  0.00    +0.173 HD
ENDROOT
BRANCH   2   5
ATOM      5  C   UNL     1      -7.642   2.642  -4.345  0.00  0.00    +0.063 A 
ATOM      6  C   UNL     1      -6.660   2.688  -5.338  0.00  0.00    +0.015 A 
ATOM      7  C   UNL     1      -7.014   2.548  -6.662  0.00  0.00    +0.001 A 
ATOM      8  C   UNL     1      -8.341   2.362  -7.016  0.00  0.00    +0.002 A 
ATOM      9  C   UNL     1      -9.323   2.314  -6.048  0.00  0.00    +0.027 A 
ATOM     10  C   UNL     1      -8.984   2.447  -4.706  0.00  0.00    +0.086 A 
BRANCH  10  11
ATOM     11  N   UNL     1      -9.969   2.394  -3.729  0.00  0.00    -0.097 NA
BRANCH  11  12
ATOM     12  S   UNL     1     -11.264   1.379  -3.913  0.00  0.00    +0.098 S 
ATOM     13  O   UNL     1     -12.011   1.449  -2.706  0.00  0.00    -0.148 OA
ATOM     14  O   UNL     1     -11.835   1.674  -5.181  0.00  0.00    -0.148 OA
BRANCH  12  15
ATOM     15  C   UNL     1     -10.629  -0.262  -4.017  0.00  0.00    +0.148 A 
ATOM     16  C   UNL     1     -10.396  -1.151  -3.021  0.00  0.00    +0.037 A 
ATOM     17  C   UNL     1      -9.889  -2.397  -3.340  0.00  0.00    +0.010 A 
ATOM     18  C   UNL     1      -9.640  -2.692  -4.639  0.00  0.00    +0.047 A 
ATOM     19  S   UNL     1     -10.133  -1.186  -5.461  0.00  0.00    -0.077 S 
ENDBRANCH  12  15
ENDBRANCH  11  12
ENDBRANCH  10  11
ENDBRANCH   2   5
BRANCH   1  22
ATOM     20  C   UNL     1      -4.334   3.295  -0.893  0.00  0.00    +0.249 C 
ATOM     21  O   UNL     1      -3.479   3.336  -1.752  0.00  0.00    -0.272 OA
ATOM     22  N   UNL     1      -5.625   3.114  -1.236  0.00  0.00    -0.233 N 
ATOM     23  H   UNL     1      -6.401   3.078  -0.457  0.00  0.00    +0.173 HD
BRANCH  20  24
ATOM     24  C   UNL     1      -3.954   3.448   0.557  0.00  0.00    +0.219 C 
BRANCH  24  34
ATOM     25  C   UNL     1      -2.538   6.177   0.500  0.00  0.00    +0.063 C 
ATOM     26  C   UNL     1      -1.861   4.838   0.641  0.00  0.00    +0.017 A 
ATOM     27  C   UNL     1      -0.537   4.653   0.761  0.00  0.00    +0.031 A 
ATOM     28  C   UNL     1      -0.314   3.209   0.872  0.00  0.00    +0.000 A 
ATOM     29  C   UNL     1       0.822   2.411   1.016  0.00  0.00    +0.010 A 
ATOM     30  C   UNL     1       0.691   1.053   1.092  0.00  0.00    +0.001 A 
ATOM     31  C   UNL     1      -0.562   0.460   1.026  0.00  0.00    +0.002 A 
ATOM     32  C   UNL     1      -1.696   1.229   0.878  0.00  0.00    +0.026 A 
ATOM     33  C   UNL     1      -1.587   2.614   0.805  0.00  0.00    +0.050 A 
ATOM     34  N   UNL     1      -2.504   3.631   0.665  0.00  0.00    -0.335 N 
ENDBRANCH  24  34
ENDBRANCH  20  24
ENDBRANCH   1  22
TORSDOF 7
