REMARK  Name = ZINC08698612
REMARK  3 active torsions:
REMARK  status: ('A' for Active; 'I' for Inactive)
REMARK    1  A    between atoms: C_5  and  C_7
REMARK    2  A    between atoms: C_7  and  N_41
REMARK    3  A    between atoms: C_9  and  C_18
REMARK                            x       y       z     vdW  Elec       q    Type
REMARK                         _______ _______ _______ _____ _____    ______ ____
ROOT
ATOM      1  C   UNL     1       0.085   1.092   0.107  0.00  0.00    -0.063 C 
ATOM      2  C   UNL     1      -0.668   1.621  -1.134  0.00  0.00    +0.090 C 
ATOM      3  C   UNL     1      -1.456   2.842  -0.629  0.00  0.00    -0.033 C 
ATOM      4  C   UNL     1      -1.122   2.954   0.870  0.00  0.00    -0.071 C 
ATOM      5  C   UNL     1      -2.953   2.616  -0.816  0.00  0.00    +0.006 C 
ATOM      6  C   UNL     1      -3.723   3.829  -0.288  0.00  0.00    +0.000 C 
ATOM      7  C   UNL     1      -3.281   5.082  -1.046  0.00  0.00    +0.000 C 
ATOM      8  C   UNL     1      -1.783   5.308  -0.832  0.00  0.00    +0.000 C 
ATOM      9  C   UNL     1      -1.005   4.101  -1.362  0.00  0.00    +0.006 C 
ATOM     10  N   UNL     1      -0.709   1.599   1.232  0.00  0.00    +0.383 N 
ATOM     11  H   UNL     1      -1.536   1.007   1.373  0.00  0.00    -0.081 HD
ENDROOT
BRANCH   2  12
ATOM     12  C   UNL     1       0.310   2.033  -2.204  0.00  0.00    +0.358 C 
ATOM     13  O   UNL     1       1.371   2.523  -1.897  0.00  0.00    -0.246 OA
ATOM     14  O   UNL     1       0.003   1.855  -3.499  0.00  0.00    -0.246 OA
ENDBRANCH   2  12
BRANCH  10  15
ATOM     15  C   UNL     1       0.109   1.607   2.487  0.00  0.00    -0.041 C 
BRANCH  15  20
ATOM     16  C   UNL     1       3.212   3.675   1.896  0.00  0.00    +0.000 A 
ATOM     17  C   UNL     1       2.801   4.921   2.333  0.00  0.00    +0.001 A 
ATOM     18  C   UNL     1       1.520   5.095   2.820  0.00  0.00    +0.020 A 
ATOM     19  C   UNL     1       0.646   4.023   2.865  0.00  0.00    +0.042 A 
ATOM     20  C   UNL     1       1.059   2.776   2.433  0.00  0.00    -0.046 A 
ATOM     21  C   UNL     1       2.341   2.603   1.946  0.00  0.00    +0.003 A 
ATOM     22 CL   UNL     1      -0.967   4.243   3.469  0.00  0.00    -0.083 Cl
ENDBRANCH  15  20
ENDBRANCH  10  15
TORSDOF 3
