REMARK  Name = ZINC46184558
REMARK  11 active torsions:
REMARK  status: ('A' for Active; 'I' for Inactive)
REMARK    1  A    between atoms: C_1  and  C_2
REMARK    2  A    between atoms: C_7  and  N_12
REMARK    3  A    between atoms: C_9  and  C_11
REMARK    4  A    between atoms: C_13  and  C_15
REMARK    5  A    between atoms: C_15  and  S_16
REMARK    6  A    between atoms: S_16  and  C_19
REMARK    7  A    between atoms: C_19  and  C_20
REMARK    8  A    between atoms: C_23  and  C_25
REMARK    9  A    between atoms: C_25  and  C_26
REMARK   10  A    between atoms: C_25  and  C_27
REMARK   11  A    between atoms: C_25  and  C_28
REMARK                            x       y       z     vdW  Elec       q    Type
REMARK                         _______ _______ _______ _____ _____    ______ ____
ROOT
ATOM      1  C   UNL     1       2.785  -4.239   3.627  0.00  0.00    +0.261 C 
ENDROOT
BRANCH   1   3
ATOM      2  N   UNL     1       1.471  -2.526   2.420  0.00  0.00    -0.311 N 
ATOM      3  C   UNL     1       2.056  -3.740   2.406  0.00  0.00    +0.234 C 
ATOM      4  O   UNL     1       1.996  -4.431   1.411  0.00  0.00    -0.274 OA
ATOM      5  H   UNL     1       1.520  -1.974   3.216  0.00  0.00    +0.149 HD
BRANCH   2  11
ATOM      6  C   UNL     1      -0.019   1.526   0.010  0.00  0.00    +0.008 C 
ATOM      7  C   UNL     1       0.002  -0.004   0.002  0.00  0.00    -0.009 C 
ATOM      8  C   UNL     1      -1.433  -0.534   0.013  0.00  0.00    +0.003 C 
ATOM      9  C   UNL     1      -1.413  -2.063   0.004  0.00  0.00    +0.002 C 
ATOM     10  C   UNL     1      -0.673  -2.570   1.244  0.00  0.00    +0.022 C 
ATOM     11  C   UNL     1       0.763  -2.041   1.233  0.00  0.00    +0.076 C 
ATOM     12  C   UNL     1       0.742  -0.511   1.242  0.00  0.00    +0.009 C 
ATOM     13  C   UNL     1       0.026  -0.018   2.500  0.00  0.00    +0.009 C 
ENDBRANCH   2  11
ENDBRANCH   1   3
BRANCH   1  14
ATOM     14  S   UNL     1       3.457  -5.891   3.297  0.00  0.00    -0.017 S 
ATOM     15  O   UNL     1       2.372  -6.789   3.108  0.00  0.00    -0.174 OA
ATOM     16  O   UNL     1       4.446  -5.780   2.282  0.00  0.00    -0.174 OA
BRANCH  14  17
ATOM     17  C   UNL     1       4.282  -6.308   4.858  0.00  0.00    +0.222 C 
BRANCH  17  18
ATOM     18  C   UNL     1       4.904  -7.677   4.748  0.00  0.00    +0.070 A 
ATOM     19  C   UNL     1       4.215  -8.798   5.080  0.00  0.00    +0.071 A 
ATOM     20  S   UNL     1       5.443 -10.050   4.746  0.00  0.00    -0.080 S 
ATOM     21  C   UNL     1       6.678  -9.030   4.229  0.00  0.00    +0.084 A 
ATOM     22  N   UNL     1       6.139  -7.840   4.319  0.00  0.00    -0.247 NA
BRANCH  21  23
ATOM     23  C   UNL     1       8.065  -9.398   3.768  0.00  0.00    +0.011 C 
ATOM     24  C   UNL     1       9.098  -8.732   4.679  0.00  0.00    +0.017 C 
ATOM     25  C   UNL     1       8.236 -10.917   3.828  0.00  0.00    +0.017 C 
ATOM     26  C   UNL     1       8.268  -8.918   2.330  0.00  0.00    +0.017 C 
ENDBRANCH  21  23
ENDBRANCH  17  18
ENDBRANCH  14  17
ENDBRANCH   1  14
TORSDOF 6
