REMARK  Name = ZINC08323121
REMARK  7 active torsions:
REMARK  status: ('A' for Active; 'I' for Inactive)
REMARK    1  A    between atoms: C_1  and  C_2
REMARK    2  A    between atoms: C_2  and  N_3
REMARK    3  A    between atoms: C_4  and  C_22
REMARK    4  A    between atoms: C_5  and  C_18
REMARK    5  A    between atoms: C_6  and  C_11
REMARK    6  A    between atoms: C_18  and  O_20
REMARK    7  A    between atoms: O_20  and  C_21
REMARK                            x       y       z     vdW  Elec       q    Type
REMARK                         _______ _______ _______ _____ _____    ______ ____
ROOT
ATOM      1  N   UNL     1       0.703  -0.286  -1.288  0.00  0.00    -0.259 N 
ATOM      2  C   UNL     1      -0.070  -0.789  -2.295  0.00  0.00    +0.024 C 
ATOM      3  C   UNL     1       0.486  -1.419  -3.353  0.00  0.00    +0.078 C 
ATOM      4  C   UNL     1       1.995  -1.547  -3.383  0.00  0.00    +0.143 C 
ATOM      5  N   UNL     1       2.737  -0.969  -2.250  0.00  0.00    -0.288 N 
ATOM      6  C   UNL     1       2.039  -0.366  -1.267  0.00  0.00    +0.307 C 
ATOM      7  O   UNL     1       2.642   0.117  -0.329  0.00  0.00    -0.252 OA
ATOM      8  C   UNL     1      -1.568  -0.640  -2.225  0.00  0.00    +0.061 C 
ATOM      9  H   UNL     1       3.705  -1.020  -2.212  0.00  0.00    +0.151 HD
ENDROOT
BRANCH   4  10
ATOM     10  C   UNL     1       2.336  -3.012  -3.462  0.00  0.00    -0.022 A 
ATOM     11  C   UNL     1       2.303  -3.792  -2.321  0.00  0.00    +0.007 A 
ATOM     12  C   UNL     1       2.615  -5.137  -2.393  0.00  0.00    +0.015 A 
ATOM     13  C   UNL     1       2.961  -5.702  -3.608  0.00  0.00    +0.018 A 
ATOM     14  C   UNL     1       2.993  -4.922  -4.749  0.00  0.00    +0.015 A 
ATOM     15  C   UNL     1       2.676  -3.578  -4.677  0.00  0.00    +0.007 A 
ATOM     16 BR   UNL     1       3.388  -7.542  -3.707  0.00  0.00    -0.050 Br
ENDBRANCH   4  10
BRANCH   1  18
ATOM     17  C   UNL     1      -0.413  -0.657   0.856  0.00  0.00    +0.025 C 
ATOM     18  C   UNL     1       0.033   0.385  -0.172  0.00  0.00    +0.111 C 
ENDBRANCH   1  18
BRANCH   3  19
ATOM     19  C   UNL     1      -0.314  -1.942  -4.396  0.00  0.00    +0.339 C 
ATOM     20  O   UNL     1      -1.524  -1.828  -4.350  0.00  0.00    -0.245 OA
BRANCH  19  21
ATOM     21  O   UNL     1       0.266  -2.567  -5.442  0.00  0.00    -0.465 OA
ATOM     22  C   UNL     1      -0.602  -3.071  -6.459  0.00  0.00    +0.280 C 
ENDBRANCH  19  21
ENDBRANCH   3  19
TORSDOF 4
