REMARK  Name = ZINC36309450
REMARK  14 active torsions:
REMARK  status: ('A' for Active; 'I' for Inactive)
REMARK    1  A    between atoms: C_1  and  C_2
REMARK    2  A    between atoms: C_2  and  C_3
REMARK    3  A    between atoms: C_3  and  C_4
REMARK    4  A    between atoms: C_4  and  C_6
REMARK    5  A    between atoms: C_4  and  O_36
REMARK    6  A    between atoms: C_6  and  N_7
REMARK    7  A    between atoms: N_7  and  C_8
REMARK    8  A    between atoms: N_7  and  C_14
REMARK    9  A    between atoms: C_8  and  C_9
REMARK   10  A    between atoms: C_14  and  C_15
REMARK   11  A    between atoms: C_25  and  C_27
REMARK   12  A    between atoms: C_27  and  O_28
REMARK   13  A    between atoms: O_28  and  C_29
REMARK   14  A    between atoms: C_33  and  C_35
REMARK                            x       y       z     vdW  Elec       q    Type
REMARK                         _______ _______ _______ _____ _____    ______ ____
ROOT
ATOM      1  C   UNL     1       0.847  -5.960   4.217  0.00  0.00    +0.200 C 
ATOM      2  O   UNL     1       0.259  -6.477   3.291  0.00  0.00    -0.278 OA
ATOM      3  N   UNL     1       0.858  -6.557   5.426  0.00  0.00    -0.292 N 
ATOM      4  C   UNL     1       1.562  -5.936   6.558  0.00  0.00    +0.113 C 
ATOM      5  C   UNL     1       0.522  -5.559   7.624  0.00  0.00    +0.061 C 
ATOM      6  C   UNL     1      -0.448  -6.687   7.768  0.00  0.00    -0.004 A 
ATOM      7  C   UNL     1      -0.655  -7.725   6.913  0.00  0.00    -0.014 A 
ATOM      8  C   UNL     1      -1.633  -8.649   7.277  0.00  0.00    +0.013 A 
ATOM      9  C   UNL     1      -2.317  -8.491   8.433  0.00  0.00    +0.046 A 
ATOM     10  S   UNL     1      -1.597  -6.991   9.084  0.00  0.00    -0.101 S 
ATOM     11  C   UNL     1       0.162  -7.835   5.632  0.00  0.00    +0.144 C 
ENDROOT
BRANCH   1  12
ATOM     12  C   UNL     1       1.564  -4.650   4.018  0.00  0.00    +0.019 C 
BRANCH  12  13
ATOM     13  N   UNL     1       1.411  -4.216   2.622  0.00  0.00    +0.392 N 
ATOM     14  H   UNL     1       0.432  -4.203   2.380  0.00  0.00    -0.080 HD
BRANCH  13  15
ATOM     15  C   UNL     1       1.973  -2.868   2.465  0.00  0.00    -0.046 C 
BRANCH  15  16
ATOM     16  C   UNL     1       1.655  -2.344   1.063  0.00  0.00    +0.098 C 
BRANCH  16  17
ATOM     17  O   UNL     1       2.373  -3.111   0.094  0.00  0.00    -0.394 OA
ATOM     18  H   UNL     1       3.333  -3.078   0.200  0.00  0.00    +0.210 HD
ENDBRANCH  16  17
BRANCH  16  19
ATOM     19  C   UNL     1       2.072  -0.875   0.961  0.00  0.00    +0.029 C 
BRANCH  19  21
ATOM     20  C   UNL     1       2.058   1.153  -0.499  0.00  0.00    +0.004 C 
ATOM     21  C   UNL     1       1.642  -0.316  -0.397  0.00  0.00    -0.001 C 
ENDBRANCH  19  21
ENDBRANCH  16  19
ENDBRANCH  15  16
ENDBRANCH  13  15
BRANCH  13  22
ATOM     22  C   UNL     1       2.122  -5.149   1.738  0.00  0.00    -0.002 C 
BRANCH  22  23
ATOM     23  C   UNL     1       3.598  -5.099   2.039  0.00  0.00    +0.089 A 
ATOM     24  C   UNL     1       4.263  -5.933   2.858  0.00  0.00    +0.042 A 
ATOM     25  C   UNL     1       5.617  -5.527   2.846  0.00  0.00    +0.041 A 
ATOM     26  C   UNL     1       5.699  -4.469   2.019  0.00  0.00    +0.195 A 
ATOM     27  O   UNL     1       4.474  -4.218   1.529  0.00  0.00    -0.470 OA
ENDBRANCH  22  23
ENDBRANCH  13  22
ENDBRANCH  12  13
ENDBRANCH   1  12
BRANCH  11  28
ATOM     28  C   UNL     1       1.184  -8.965   5.770  0.00  0.00    +0.256 C 
BRANCH  28  29
ATOM     29  O   UNL     1       1.958  -8.765   6.954  0.00  0.00    -0.490 OA
BRANCH  29  30
ATOM     30  C   UNL     1       2.919  -9.687   7.227  0.00  0.00    +0.121 A 
ATOM     31  C   UNL     1       3.115 -10.759   6.369  0.00  0.00    +0.045 A 
ATOM     32  C   UNL     1       4.092 -11.695   6.648  0.00  0.00    +0.004 A 
ATOM     33  C   UNL     1       4.874 -11.564   7.781  0.00  0.00    +0.003 A 
ATOM     34  C   UNL     1       4.679 -10.496   8.638  0.00  0.00    -0.047 A 
ATOM     35  C   UNL     1       3.707  -9.555   8.360  0.00  0.00    +0.049 A 
ATOM     36  C   UNL     1       5.532 -10.357   9.872  0.00  0.00    +0.044 C 
ENDBRANCH  29  30
ENDBRANCH  28  29
ENDBRANCH  11  28
TORSDOF 12
