REMARK  Name = ZINC13732721
REMARK  5 active torsions:
REMARK  status: ('A' for Active; 'I' for Inactive)
REMARK    1  A    between atoms: C_1  and  C_2
REMARK    2  A    between atoms: N_10  and  C_19
REMARK    3  A    between atoms: C_11  and  C_13
REMARK    4  A    between atoms: C_19  and  C_20
REMARK    5  A    between atoms: C_20  and  C_21
REMARK                            x       y       z     vdW  Elec       q    Type
REMARK                         _______ _______ _______ _____ _____    ______ ____
ROOT
ATOM      1  C   UNL     1      -0.018   1.503   0.010  0.00  0.00    +0.065 C 
ATOM      2  C   UNL     1       0.002  -0.004   0.002  0.00  0.00    +0.039 A 
ATOM      3  C   UNL     1       0.008  -0.797  -1.084  0.00  0.00    +0.030 A 
ATOM      4  C   UNL     1       0.028  -2.127  -0.596  0.00  0.00    +0.153 A 
ATOM      5  N   UNL     1       0.033  -2.046   0.718  0.00  0.00    -0.169 NA
ATOM      6  N   UNL     1       0.024  -0.813   1.085  0.00  0.00    -0.281 N 
ATOM      7  H   UNL     1       0.029  -0.508   2.006  0.00  0.00    +0.189 HD
ATOM      8  C   UNL     1       0.036  -3.034  -1.757  0.00  0.00    +0.268 C 
ATOM      9  O   UNL     1       0.052  -4.248  -1.688  0.00  0.00    -0.268 OA
ATOM     10  N   UNL     1       0.021  -2.332  -2.902  0.00  0.00    -0.285 N 
ATOM     11  C   UNL     1       0.002  -0.899  -2.585  0.00  0.00    +0.141 C 
ENDROOT
BRANCH  11  12
ATOM     12  C   UNL     1      -1.244  -0.261  -3.142  0.00  0.00    -0.022 A 
ATOM     13  C   UNL     1      -2.447  -0.942  -3.100  0.00  0.00    +0.006 A 
ATOM     14  C   UNL     1      -3.590  -0.357  -3.611  0.00  0.00    +0.000 A 
ATOM     15  C   UNL     1      -3.531   0.909  -4.163  0.00  0.00    +0.000 A 
ATOM     16  C   UNL     1      -2.329   1.590  -4.205  0.00  0.00    +0.000 A 
ATOM     17  C   UNL     1      -1.187   1.007  -3.690  0.00  0.00    +0.006 A 
ENDBRANCH  11  12
BRANCH  10  18
ATOM     18  C   UNL     1       0.024  -2.904  -4.251  0.00  0.00    +0.114 C 
BRANCH  18  19
ATOM     19  C   UNL     1      -1.417  -3.123  -4.715  0.00  0.00    +0.056 C 
BRANCH  19  20
ATOM     20  C   UNL     1      -1.414  -3.711  -6.102  0.00  0.00    -0.021 A 
ATOM     21  C   UNL     1      -1.516  -3.035  -7.257  0.00  0.00    +0.087 A 
ATOM     22  N   UNL     1      -1.476  -3.904  -8.313  0.00  0.00    -0.360 N 
ATOM     23  H   UNL     1      -1.532  -3.650  -9.247  0.00  0.00    +0.165 HD
ATOM     24  C   UNL     1      -1.344  -5.195  -7.851  0.00  0.00    +0.047 A 
ATOM     25  C   UNL     1      -1.293  -5.130  -6.447  0.00  0.00    +0.003 A 
ATOM     26  C   UNL     1      -1.155  -6.301  -5.700  0.00  0.00    +0.010 A 
ATOM     27  C   UNL     1      -1.066  -7.506  -6.339  0.00  0.00    +0.001 A 
ATOM     28  C   UNL     1      -1.111  -7.575  -7.724  0.00  0.00    +0.002 A 
ATOM     29  C   UNL     1      -1.257  -6.433  -8.480  0.00  0.00    +0.026 A 
ENDBRANCH  19  20
ENDBRANCH  18  19
ENDBRANCH  10  18
TORSDOF 4
