REMARK  Name = ZINC58829089
REMARK  11 active torsions:
REMARK  status: ('A' for Active; 'I' for Inactive)
REMARK    1  A    between atoms: C_1  and  C_2
REMARK    2  A    between atoms: C_2  and  C_3
REMARK    3  A    between atoms: C_2  and  C_4
REMARK    4  A    between atoms: C_8  and  C_27
REMARK    5  A    between atoms: C_9  and  N_10
REMARK    6  A    between atoms: N_13  and  C_14
REMARK    7  A    between atoms: C_14  and  C_15
REMARK    8  A    between atoms: C_15  and  C_17
REMARK    9  A    between atoms: C_15  and  N_22
REMARK   10  A    between atoms: C_27  and  C_28
REMARK   11  A    between atoms: C_27  and  C_29
REMARK                            x       y       z     vdW  Elec       q    Type
REMARK                         _______ _______ _______ _____ _____    ______ ____
ROOT
ATOM      1  N   UNL     1      -0.695  -0.526  -2.254  0.00  0.00    -0.269 N 
ATOM      2  C   UNL     1      -0.680  -1.450  -3.234  0.00  0.00    +0.304 C 
ATOM      3  O   UNL     1      -1.393  -2.432  -3.155  0.00  0.00    -0.253 OA
ATOM      4  N   UNL     1       0.125  -1.286  -4.303  0.00  0.00    -0.300 N 
ATOM      5  H   UNL     1      -0.189   0.296  -2.354  0.00  0.00    +0.156 HD
ATOM      6  H   UNL     1       0.694  -0.502  -4.366  0.00  0.00    +0.150 HD
ENDROOT
BRANCH   1  12
ATOM      7  C   UNL     1      -0.814  -0.745   0.149  0.00  0.00    -0.023 A 
ATOM      8  C   UNL     1      -1.553  -0.963   1.295  0.00  0.00    +0.006 A 
ATOM      9  C   UNL     1      -2.914  -1.192   1.209  0.00  0.00    +0.001 A 
ATOM     10  C   UNL     1      -3.539  -1.205  -0.024  0.00  0.00    +0.006 A 
ATOM     11  C   UNL     1      -2.805  -0.988  -1.174  0.00  0.00    -0.023 A 
ATOM     12  C   UNL     1      -1.440  -0.751  -1.091  0.00  0.00    +0.042 A 
BRANCH   7  14
ATOM     13  C   UNL     1       0.923   0.750   1.095  0.00  0.00    +0.012 C 
ATOM     14  C   UNL     1       0.669  -0.496   0.244  0.00  0.00    +0.015 C 
ATOM     15  C   UNL     1       1.349  -1.704   0.892  0.00  0.00    +0.012 C 
ENDBRANCH   7  14
BRANCH  11  16
ATOM     16  C   UNL     1      -3.487  -1.003  -2.518  0.00  0.00    +0.015 C 
ATOM     17  C   UNL     1      -4.646  -2.002  -2.491  0.00  0.00    +0.012 C 
ATOM     18  C   UNL     1      -4.026   0.394  -2.833  0.00  0.00    +0.012 C 
ENDBRANCH  11  16
ENDBRANCH   1  12
BRANCH   4  19
ATOM     19  C   UNL     1       0.141  -2.290  -5.369  0.00  0.00    +0.095 C 
BRANCH  19  20
ATOM     20  C   UNL     1       1.039  -1.808  -6.511  0.00  0.00    -0.013 C 
BRANCH  20  21
ATOM     21  N   UNL     1       0.953  -2.752  -7.633  0.00  0.00    +0.386 N 
ATOM     22  C   UNL     1      -0.401  -2.700  -8.243  0.00  0.00    -0.078 C 
ATOM     23  C   UNL     1      -0.169  -3.265  -9.667  0.00  0.00    -0.020 C 
ATOM     24  C   UNL     1       1.215  -2.691 -10.046  0.00  0.00    -0.020 C 
ATOM     25  C   UNL     1       1.893  -2.357  -8.704  0.00  0.00    -0.078 C 
ATOM     26  H   UNL     1       1.157  -3.688  -7.318  0.00  0.00    -0.081 HD
ENDBRANCH  20  21
BRANCH  20  27
ATOM     27  C   UNL     1       2.465  -1.728  -6.029  0.00  0.00    -0.022 A 
ATOM     28  C   UNL     1       3.169  -0.644  -5.623  0.00  0.00    +0.009 A 
ATOM     29  C   UNL     1       4.480  -0.809  -5.219  0.00  0.00    +0.008 A 
ATOM     30  C   UNL     1       5.023  -2.051  -5.240  0.00  0.00    +0.045 A 
ATOM     31  S   UNL     1       3.662  -3.039  -5.839  0.00  0.00    -0.103 S 
ENDBRANCH  20  27
ENDBRANCH  19  20
ENDBRANCH   4  19
TORSDOF 7
