REMARK  Name = ZINC12155346
REMARK  9 active torsions:
REMARK  status: ('A' for Active; 'I' for Inactive)
REMARK    1  A    between atoms: C_1  and  C_2
REMARK    2  A    between atoms: C_2  and  C_3
REMARK    3  A    between atoms: C_2  and  C_4
REMARK    4  A    between atoms: C_4  and  C_5
REMARK    5  A    between atoms: C_5  and  C_6
REMARK    6  A    between atoms: C_6  and  C_13
REMARK    7  A    between atoms: C_18  and  C_19
REMARK    8  A    between atoms: C_18  and  N_58
REMARK    9  A    between atoms: C_20  and  C_21
REMARK                            x       y       z     vdW  Elec       q    Type
REMARK                         _______ _______ _______ _____ _____    ______ ____
ROOT
ATOM      1  C   UNL     1      -2.257   5.611   1.919  0.00  0.00    +0.018 C 
ATOM      2  C   UNL     1      -0.935   6.311   1.593  0.00  0.00    -0.013 C 
ATOM      3  C   UNL     1      -1.115   7.824   1.740  0.00  0.00    -0.078 C 
ATOM      4  C   UNL     1      -2.825   7.516   3.429  0.00  0.00    -0.078 C 
ATOM      5  C   UNL     1      -2.696   5.995   3.335  0.00  0.00    -0.013 C 
ATOM      6  N   UNL     1      -1.512   8.129   3.130  0.00  0.00    +0.383 N 
ATOM      7  H   UNL     1      -0.810   7.740   3.770  0.00  0.00    -0.081 HD
ENDROOT
BRANCH   1   8
ATOM      8  C   UNL     1      -2.068   4.095   1.835  0.00  0.00    +0.115 C 
ATOM      9  C   UNL     1      -1.157   3.610   2.945  0.00  0.00    +0.244 C 
ATOM     10  O   UNL     1      -0.001   3.922   3.133  0.00  0.00    -0.273 OA
ATOM     11  N   UNL     1      -1.899   2.758   3.680  0.00  0.00    -0.238 N 
ATOM     12  C   UNL     1      -3.140   2.640   3.193  0.00  0.00    +0.307 C 
ATOM     13  O   UNL     1      -3.994   1.929   3.687  0.00  0.00    -0.252 OA
ATOM     14  N   UNL     1      -3.337   3.396   2.098  0.00  0.00    -0.285 N 
ATOM     15  H   UNL     1      -1.575   2.290   4.465  0.00  0.00    +0.159 HD
ATOM     16  H   UNL     1      -4.156   3.466   1.582  0.00  0.00    +0.151 HD
BRANCH   8  17
ATOM     17  C   UNL     1      -1.508   3.699   0.467  0.00  0.00    +0.036 C 
BRANCH  17  18
ATOM     18  C   UNL     1      -1.495   2.174   0.344  0.00  0.00    +0.005 C 
BRANCH  18  20
ATOM     19  C   UNL     1      -1.037   0.261  -1.197  0.00  0.00    +0.007 C 
ATOM     20  C   UNL     1      -0.935   1.778  -1.024  0.00  0.00    -0.017 C 
ATOM     21  C   UNL     1       0.531   2.204  -1.118  0.00  0.00    +0.007 C 
ENDBRANCH  18  20
ENDBRANCH  17  18
ENDBRANCH   8  17
ENDBRANCH   1   8
BRANCH   6  22
ATOM     22  C   UNL     1      -1.582   9.591   3.326  0.00  0.00    -0.030 C 
BRANCH  22  23
ATOM     23  C   UNL     1      -0.335  10.225   2.763  0.00  0.00    +0.003 C 
ATOM     24  C   UNL     1      -0.421  11.061   1.736  0.00  0.00    +0.021 C 
ATOM     25 CL   UNL     1       1.213   9.861   3.459  0.00  0.00    -0.090 Cl
BRANCH  24  26
ATOM     26  C   UNL     1       0.773  11.805   1.287  0.00  0.00    -0.024 A 
ATOM     27  C   UNL     1       1.735  12.211   2.213  0.00  0.00    +0.008 A 
ATOM     28  C   UNL     1       2.851  12.901   1.787  0.00  0.00    +0.001 A 
ATOM     29  C   UNL     1       3.012  13.201   0.446  0.00  0.00    +0.000 A 
ATOM     30  C   UNL     1       2.060  12.806  -0.477  0.00  0.00    +0.001 A 
ATOM     31  C   UNL     1       0.942  12.111  -0.064  0.00  0.00    +0.008 A 
ENDBRANCH  24  26
ENDBRANCH  22  23
ENDBRANCH   6  22
TORSDOF 7
