REMARK  Name = ZINC22115793
REMARK  6 active torsions:
REMARK  status: ('A' for Active; 'I' for Inactive)
REMARK    1  A    between atoms: C_1  and  C_2
REMARK    2  A    between atoms: C_2  and  C_29
REMARK    3  A    between atoms: C_6  and  O_28
REMARK    4  A    between atoms: C_8  and  C_14
REMARK    5  A    between atoms: C_14  and  N_15
REMARK    6  A    between atoms: C_19  and  C_22
REMARK                            x       y       z     vdW  Elec       q    Type
REMARK                         _______ _______ _______ _____ _____    ______ ____
ROOT
ATOM      1  N   UNL     1      -1.007   2.991   3.967  0.00  0.00    +0.379 N 
ATOM      2  C   UNL     1      -0.314   2.111   4.918  0.00  0.00    -0.098 C 
ATOM      3  C   UNL     1      -1.306   1.633   5.982  0.00  0.00    -0.101 C 
ATOM      4  N   UNL     1      -2.418   0.927   5.329  0.00  0.00    +0.381 N 
ATOM      5  C   UNL     1      -3.110   1.808   4.378  0.00  0.00    -0.058 C 
ATOM      6  C   UNL     1      -2.119   2.286   3.314  0.00  0.00    -0.090 C 
ATOM      7  H   UNL     1      -2.029   0.054   4.784  0.00  0.00    -0.085 HD
ATOM      8  H   UNL     1      -3.138   0.593   6.091  0.00  0.00    -0.085 HD
ATOM      9  H   UNL     1      -1.425   3.838   4.531  0.00  0.00    -0.082 HD
ENDROOT
BRANCH   5  10
ATOM     10  C   UNL     1      -4.231   1.050   3.715  0.00  0.00    -0.063 A 
ATOM     11  C   UNL     1      -4.045  -0.267   3.336  0.00  0.00    +0.002 A 
ATOM     12  C   UNL     1      -5.075  -0.964   2.732  0.00  0.00    +0.000 A 
ATOM     13  C   UNL     1      -6.287  -0.342   2.499  0.00  0.00    +0.000 A 
ATOM     14  C   UNL     1      -6.471   0.976   2.874  0.00  0.00    +0.000 A 
ATOM     15  C   UNL     1      -5.443   1.672   3.482  0.00  0.00    +0.002 A 
ENDBRANCH   5  10
BRANCH   1  16
ATOM     16  C   UNL     1      -0.070   3.532   2.973  0.00  0.00    -0.044 C 
BRANCH  16  22
ATOM     17  C   UNL     1       1.620  -1.712   0.631  0.00  0.00    +0.074 C 
ATOM     18  C   UNL     1       1.378  -0.405  -0.126  0.00  0.00    +0.168 C 
ATOM     19  O   UNL     1       2.154   0.663   0.461  0.00  0.00    -0.338 OA
ATOM     20  C   UNL     1       1.478   1.855  -0.002  0.00  0.00    +0.208 C 
ATOM     21  C   UNL     1       1.542   2.920   1.123  0.00  0.00    +0.175 C 
ATOM     22  C   UNL     1       0.458   2.394   2.097  0.00  0.00    +0.136 C 
ATOM     23  O   UNL     1      -0.584   1.891   1.244  0.00  0.00    -0.345 OA
ATOM     24  C   UNL     1      -0.017   1.435   0.010  0.00  0.00    +0.285 C 
ATOM     25  O   UNL     1       0.002  -0.004   0.002  0.00  0.00    -0.318 OA
ATOM     26  C   UNL     1       1.743  -0.575  -1.602  0.00  0.00    +0.074 C 
BRANCH  21  27
ATOM     27  O   UNL     1       1.200   4.215   0.624  0.00  0.00    -0.387 OA
ATOM     28  H   UNL     1       1.198   5.082   1.301  0.00  0.00    +0.210 HD
ENDBRANCH  21  27
ENDBRANCH  16  22
ENDBRANCH   1  16
TORSDOF 4
