REMARK  Name = ZINC59301846
REMARK  7 active torsions:
REMARK  status: ('A' for Active; 'I' for Inactive)
REMARK    1  A    between atoms: C_1  and  C_2
REMARK    2  A    between atoms: C_4  and  S_10
REMARK    3  A    between atoms: C_5  and  C_9
REMARK    4  A    between atoms: S_10  and  C_11
REMARK    5  A    between atoms: C_11  and  C_12
REMARK    6  A    between atoms: N_14  and  C_15
REMARK    7  A    between atoms: C_17  and  C_23
REMARK                            x       y       z     vdW  Elec       q    Type
REMARK                         _______ _______ _______ _____ _____    ______ ____
ROOT
ATOM      1  C   UNL     1      -0.166  -2.266  -5.376  0.00  0.00    +0.228 C 
ATOM      2  O   UNL     1      -0.304  -3.464  -5.513  0.00  0.00    -0.275 OA
ATOM      3  N   UNL     1      -0.011  -1.477  -6.457  0.00  0.00    -0.281 N 
ATOM      4  H   UNL     1       0.027  -0.514  -6.353  0.00  0.00    +0.155 HD
ENDROOT
BRANCH   3   5
ATOM      5  C   UNL     1       0.096  -2.049  -7.732  0.00  0.00    +0.099 A 
ATOM      6  C   UNL     1      -0.795  -1.719  -8.717  0.00  0.00    +0.042 A 
ATOM      7  C   UNL     1      -0.665  -2.305  -9.983  0.00  0.00    +0.073 A 
ATOM      8  C   UNL     1       0.333  -3.187 -10.222  0.00  0.00    +0.098 A 
ATOM      9  N   UNL     1       1.220  -3.517  -9.245  0.00  0.00    -0.327 N 
ATOM     10  H   UNL     1       1.929  -4.151  -9.436  0.00  0.00    +0.168 HD
ATOM     11  C   UNL     1       1.129  -2.969  -8.018  0.00  0.00    +0.270 A 
ATOM     12  O   UNL     1       1.935  -3.271  -7.153  0.00  0.00    -0.266 OA
BRANCH   7  13
ATOM     13  C   UNL     1      -1.637  -1.954 -11.079  0.00  0.00    +0.419 C 
ATOM     14  F   UNL     1      -1.306  -2.660 -12.241  0.00  0.00    -0.166 F 
ATOM     15  F   UNL     1      -2.933  -2.296 -10.680  0.00  0.00    -0.166 F 
ATOM     16  F   UNL     1      -1.575  -0.580 -11.335  0.00  0.00    -0.166 F 
ENDBRANCH   7  13
ENDBRANCH   3   5
BRANCH   1  17
ATOM     17  C   UNL     1      -0.168  -1.661  -3.996  0.00  0.00    +0.170 C 
BRANCH  17  18
ATOM     18  S   UNL     1      -0.395  -2.971  -2.761  0.00  0.00    -0.116 S 
BRANCH  18  22
ATOM     19  C   UNL     1      -0.014   1.430   0.043  0.00  0.00    +0.045 C 
ATOM     20  C   UNL     1      -0.195  -0.066   0.013  0.00  0.00    -0.035 A 
ATOM     21  C   UNL     1      -0.209  -0.735  -1.195  0.00  0.00    +0.019 A 
ATOM     22  C   UNL     1      -0.375  -2.114  -1.222  0.00  0.00    +0.012 A 
ATOM     23  C   UNL     1      -0.526  -2.816  -0.032  0.00  0.00    -0.036 A 
ATOM     24  C   UNL     1      -0.511  -2.141   1.173  0.00  0.00    +0.020 A 
ATOM     25  C   UNL     1      -0.340  -0.768   1.196  0.00  0.00    +0.021 A 
ATOM     26 BR   UNL     1      -0.313   0.151   2.849  0.00  0.00    -0.050 Br
ATOM     27  C   UNL     1      -0.707  -4.312  -0.057  0.00  0.00    +0.045 C 
ENDBRANCH  18  22
ENDBRANCH  17  18
ENDBRANCH   1  17
TORSDOF 5
