REMARK  Name = ZINC09154386
REMARK  8 active torsions:
REMARK  status: ('A' for Active; 'I' for Inactive)
REMARK    1  A    between atoms: C_1  and  C_2
REMARK    2  A    between atoms: C_7  and  N_12
REMARK    3  A    between atoms: C_9  and  C_11
REMARK    4  A    between atoms: C_13  and  C_15
REMARK    5  A    between atoms: C_15  and  C_17
REMARK    6  A    between atoms: C_15  and  O_18
REMARK    7  A    between atoms: O_18  and  C_19
REMARK    8  A    between atoms: C_19  and  C_21
REMARK                            x       y       z     vdW  Elec       q    Type
REMARK                         _______ _______ _______ _____ _____    ______ ____
ROOT
ATOM      1  O   UNL     1      -2.498   8.053   0.066  0.00  0.00    -0.448 OA
ENDROOT
BRANCH   1   2
ATOM      2  C   UNL     1      -2.460   9.505   0.072  0.00  0.00    +0.259 C 
ATOM      3  C   UNL     1      -2.433  10.008   1.517  0.00  0.00    +0.062 C 
BRANCH   2   5
ATOM      4  N   UNL     1      -3.816  11.368  -0.828  0.00  0.00    -0.309 N 
ATOM      5  C   UNL     1      -3.684  10.042  -0.623  0.00  0.00    +0.254 C 
ATOM      6  O   UNL     1      -4.551   9.281  -0.999  0.00  0.00    -0.272 OA
ATOM      7  H   UNL     1      -3.123  11.976  -0.527  0.00  0.00    +0.149 HD
BRANCH   4  13
ATOM      8  C   UNL     1      -3.888  15.567  -1.738  0.00  0.00    +0.008 C 
ATOM      9  C   UNL     1      -4.221  14.224  -1.085  0.00  0.00    -0.009 C 
ATOM     10  C   UNL     1      -5.344  14.418  -0.064  0.00  0.00    +0.003 C 
ATOM     11  C   UNL     1      -5.676  13.076   0.590  0.00  0.00    +0.002 C 
ATOM     12  C   UNL     1      -6.129  12.084  -0.483  0.00  0.00    +0.022 C 
ATOM     13  C   UNL     1      -5.006  11.890  -1.504  0.00  0.00    +0.076 C 
ATOM     14  C   UNL     1      -4.674  13.232  -2.158  0.00  0.00    +0.009 C 
ATOM     15  C   UNL     1      -3.551  13.038  -3.179  0.00  0.00    +0.009 C 
ENDBRANCH   4  13
ENDBRANCH   2   5
ENDBRANCH   1   2
BRANCH   1  16
ATOM     16  C   UNL     1      -1.313   7.411   0.051  0.00  0.00    +0.356 C 
ATOM     17  O   UNL     1      -0.277   8.046   0.044  0.00  0.00    -0.243 OA
BRANCH  16  18
ATOM     18  C   UNL     1      -1.273   5.938   0.044  0.00  0.00    +0.128 A 
ATOM     19  C   UNL     1      -0.069   5.313   0.030  0.00  0.00    +0.041 A 
ATOM     20  C   UNL     1      -0.020   3.851   0.022  0.00  0.00    -0.011 A 
ATOM     21  C   UNL     1       1.192   3.156   0.007  0.00  0.00    +0.009 A 
ATOM     22  C   UNL     1       1.185   1.779   0.000  0.00  0.00    +0.001 A 
ATOM     23  C   UNL     1      -0.013   1.076   0.008  0.00  0.00    +0.001 A 
ATOM     24  C   UNL     1      -1.220   1.741   0.017  0.00  0.00    +0.014 A 
ATOM     25  C   UNL     1      -1.238   3.134   0.031  0.00  0.00    +0.046 A 
ATOM     26  C   UNL     1      -2.498   3.892   0.046  0.00  0.00    +0.257 A 
ATOM     27  O   UNL     1      -3.566   3.307   0.053  0.00  0.00    -0.267 OA
ATOM     28  N   UNL     1      -2.461   5.238   0.052  0.00  0.00    -0.316 N 
ATOM     29  H   UNL     1      -3.296   5.731   0.063  0.00  0.00    +0.169 HD
ENDBRANCH  16  18
ENDBRANCH   1  16
TORSDOF 5
