REMARK  Name = ZINC28511765
REMARK  3 active torsions:
REMARK  status: ('A' for Active; 'I' for Inactive)
REMARK    1  A    between atoms: C_8  and  C_12
REMARK    2  A    between atoms: N_23  and  C_24
REMARK    3  A    between atoms: C_24  and  C_25
REMARK                            x       y       z     vdW  Elec       q    Type
REMARK                         _______ _______ _______ _____ _____    ______ ____
ROOT
ATOM      1  C   UNL     1      -1.290   1.686  -0.005  0.00  0.00    +0.198 C 
ATOM      2  N   UNL     1       0.042   1.070  -0.057  0.00  0.00    -0.321 N 
ATOM      3  C   UNL     1       1.156   1.900  -0.097  0.00  0.00    +0.041 A 
ATOM      4  C   UNL     1       2.376   1.516   0.433  0.00  0.00    +0.024 A 
ATOM      5  C   UNL     1       3.452   2.381   0.370  0.00  0.00    +0.002 A 
ATOM      6  C   UNL     1       3.319   3.629  -0.219  0.00  0.00    +0.001 A 
ATOM      7  C   UNL     1       2.111   4.027  -0.753  0.00  0.00    +0.015 A 
ATOM      8  C   UNL     1       1.019   3.164  -0.698  0.00  0.00    +0.058 A 
ATOM      9  C   UNL     1      -0.292   3.534  -1.261  0.00  0.00    +0.250 C 
ATOM     10  O   UNL     1      -0.395   4.494  -2.000  0.00  0.00    -0.270 OA
ATOM     11  N   UNL     1      -1.377   2.795  -0.948  0.00  0.00    -0.267 N 
ATOM     12  H   UNL     1       0.141  -0.026  -0.063  0.00  0.00    +0.148 HD
ENDROOT
BRANCH   1  20
ATOM     13  C   UNL     1      -1.563   5.662   4.670  0.00  0.00    +0.001 A 
ATOM     14  C   UNL     1      -2.066   4.759   5.604  0.00  0.00    +0.002 A 
ATOM     15  C   UNL     1      -2.312   3.463   5.266  0.00  0.00    +0.026 A 
ATOM     16  C   UNL     1      -2.057   3.024   3.955  0.00  0.00    +0.049 A 
ATOM     17  C   UNL     1      -1.546   3.944   3.007  0.00  0.00    -0.001 A 
ATOM     18  C   UNL     1      -1.304   5.272   3.391  0.00  0.00    +0.010 A 
ATOM     19  C   UNL     1      -1.290   3.503   1.694  0.00  0.00    +0.022 A 
ATOM     20  C   UNL     1      -1.548   2.200   1.388  0.00  0.00    +0.056 A 
ATOM     21  C   UNL     1      -2.058   1.341   2.369  0.00  0.00    +0.256 A 
ATOM     22  N   UNL     1      -2.290   1.756   3.596  0.00  0.00    -0.322 N 
ATOM     23  O   UNL     1      -2.314   0.049   2.049  0.00  0.00    -0.267 OA
ATOM     24  H   UNL     1      -2.683   1.040   4.332  0.00  0.00    +0.169 HD
ENDBRANCH   1  20
BRANCH  11  25
ATOM     25  C   UNL     1      -2.666   3.110  -1.569  0.00  0.00    +0.184 C 
BRANCH  25  26
ATOM     26  C   UNL     1      -2.770   2.403  -2.896  0.00  0.00    +0.122 A 
ATOM     27  C   UNL     1      -3.268   1.169  -3.092  0.00  0.00    +0.046 A 
ATOM     28  C   UNL     1      -3.176   0.906  -4.478  0.00  0.00    +0.041 A 
ATOM     29  C   UNL     1      -2.619   1.991  -5.045  0.00  0.00    +0.195 A 
ATOM     30  O   UNL     1      -2.375   2.895  -4.081  0.00  0.00    -0.466 OA
ENDBRANCH  25  26
ENDBRANCH  11  25
TORSDOF 3
