REMARK  Name = ZINC01582436
REMARK  5 active torsions:
REMARK  status: ('A' for Active; 'I' for Inactive)
REMARK    1  A    between atoms: C_4  and  C_7
REMARK    2  A    between atoms: C_7  and  O_29
REMARK    3  A    between atoms: C_8  and  C_27
REMARK    4  A    between atoms: C_10  and  C_20
REMARK    5  A    between atoms: C_12  and  C_17
REMARK                            x       y       z     vdW  Elec       q    Type
REMARK                         _______ _______ _______ _____ _____    ______ ____
ROOT
ATOM      1  C   UNL     1      -0.018   1.453   0.010  0.00  0.00    +0.175 C 
ATOM      2  C   UNL     1       1.407   2.008  -0.001  0.00  0.00    +0.155 C 
ATOM      3  C   UNL     1       2.188   1.336  -1.137  0.00  0.00    +0.061 C 
ATOM      4  C   UNL     1       2.368  -0.144  -0.790  0.00  0.00    +0.169 C 
ATOM      5  C   UNL     1       1.052  -0.736  -0.373  0.00  0.00    +0.228 C 
ATOM      6  O   UNL     1       0.939  -1.943  -0.377  0.00  0.00    -0.275 OA
ATOM      7  N   UNL     1       0.002  -0.004   0.002  0.00  0.00    -0.282 N 
ATOM      8  H   UNL     1      -0.799  -0.471   0.287  0.00  0.00    +0.152 HD
ENDROOT
BRANCH   3   9
ATOM      9  C   UNL     1       3.537   1.991  -1.284  0.00  0.00    -0.042 A 
ATOM     10  C   UNL     1       4.415   2.010  -0.216  0.00  0.00    +0.005 A 
ATOM     11  C   UNL     1       5.655   2.606  -0.352  0.00  0.00    +0.020 A 
ATOM     12  C   UNL     1       6.012   3.192  -1.553  0.00  0.00    +0.041 A 
ATOM     13  C   UNL     1       5.130   3.177  -2.619  0.00  0.00    +0.020 A 
ATOM     14  C   UNL     1       3.893   2.577  -2.484  0.00  0.00    +0.005 A 
ATOM     15 CL   UNL     1       7.567   3.946  -1.723  0.00  0.00    -0.084 Cl
ENDBRANCH   3   9
BRANCH   1  19
ATOM     16  C   UNL     1      -2.038   2.819   3.517  0.00  0.00    +0.000 A 
ATOM     17  C   UNL     1      -1.348   1.621   3.539  0.00  0.00    +0.000 A 
ATOM     18  C   UNL     1      -0.695   1.179   2.404  0.00  0.00    +0.008 A 
ATOM     19  C   UNL     1      -0.731   1.935   1.247  0.00  0.00    +0.003 A 
ATOM     20  C   UNL     1      -1.415   3.136   1.227  0.00  0.00    +0.008 A 
ATOM     21  C   UNL     1      -2.073   3.575   2.361  0.00  0.00    +0.000 A 
ENDBRANCH   1  19
BRANCH   4  22
ATOM     22  C   UNL     1       2.888  -0.881  -1.997  0.00  0.00    +0.223 C 
ATOM     23  O   UNL     1       3.086  -0.284  -3.034  0.00  0.00    -0.275 OA
ATOM     24  N   UNL     1       3.133  -2.205  -1.925  0.00  0.00    -0.329 N 
ATOM     25  H   UNL     1       2.974  -2.683  -1.096  0.00  0.00    +0.145 HD
ATOM     26  H   UNL     1       3.467  -2.679  -2.702  0.00  0.00    +0.145 HD
ENDBRANCH   4  22
BRANCH   2  27
ATOM     27  C   UNL     1       1.369   3.463  -0.221  0.00  0.00    +0.071 C 
ATOM     28  N   UNL     1       1.340   4.586  -0.391  0.00  0.00    -0.196 NA
ENDBRANCH   2  27
BRANCH   1  29
ATOM     29  O   UNL     1      -0.716   1.923  -1.145  0.00  0.00    -0.366 OA
ATOM     30  H   UNL     1      -1.634   1.623  -1.198  0.00  0.00    +0.212 HD
ENDBRANCH   1  29
TORSDOF 5
