REMARK  Name = ZINC06252576
REMARK  4 active torsions:
REMARK  status: ('A' for Active; 'I' for Inactive)
REMARK    1  A    between atoms: C_4  and  C_7
REMARK    2  A    between atoms: C_12  and  O_26
REMARK    3  A    between atoms: C_14  and  C_17
REMARK    4  A    between atoms: C_20  and  N_23
REMARK                            x       y       z     vdW  Elec       q    Type
REMARK                         _______ _______ _______ _____ _____    ______ ____
ROOT
ATOM      1  C   UNL     1       1.621  -2.077   0.124  0.00  0.00    +0.003 A 
ATOM      2  C   UNL     1       2.908  -2.494  -0.015  0.00  0.00    +0.056 A 
ATOM      3  S   UNL     1       3.782  -0.995  -0.437  0.00  0.00    -0.081 S 
ATOM      4  C   UNL     1       2.425   0.127  -0.414  0.00  0.00    +0.080 A 
ATOM      5  C   UNL     1       1.323  -0.676  -0.086  0.00  0.00    +0.072 A 
ATOM      6  C   UNL     1       0.002  -0.004   0.002  0.00  0.00    +0.220 C 
ATOM      7  N   UNL     1      -0.016   1.301   0.009  0.00  0.00    -0.223 NA
ATOM      8  C   UNL     1       1.169   2.150   0.002  0.00  0.00    +0.224 C 
ATOM      9  N   UNL     1       2.316   1.475  -0.636  0.00  0.00    -0.313 N 
ATOM     10  H   UNL     1       3.023   2.053  -1.249  0.00  0.00    +0.149 HD
ENDROOT
BRANCH   1  14
ATOM     11  C   UNL     1      -1.456  -4.824   1.151  0.00  0.00    +0.000 A 
ATOM     12  C   UNL     1      -0.591  -5.117   0.113  0.00  0.00    +0.001 A 
ATOM     13  C   UNL     1       0.410  -4.229  -0.225  0.00  0.00    +0.008 A 
ATOM     14  C   UNL     1       0.548  -3.035   0.482  0.00  0.00    -0.017 A 
ATOM     15  C   UNL     1      -0.324  -2.749   1.532  0.00  0.00    +0.008 A 
ATOM     16  C   UNL     1      -1.325  -3.642   1.857  0.00  0.00    +0.001 A 
ENDBRANCH   1  14
BRANCH   8  17
ATOM     17  C   UNL     1       1.533   2.499   1.423  0.00  0.00    -0.005 A 
ATOM     18  C   UNL     1       2.854   2.723   1.763  0.00  0.00    +0.009 A 
ATOM     19  C   UNL     1       3.186   3.048   3.065  0.00  0.00    +0.033 A 
ATOM     20  C   UNL     1       2.199   3.139   4.028  0.00  0.00    +0.126 A 
ATOM     21  C   UNL     1       0.879   2.910   3.689  0.00  0.00    +0.033 A 
ATOM     22  C   UNL     1       0.546   2.590   2.386  0.00  0.00    +0.009 A 
BRANCH  20  23
ATOM     23  N   UNL     1       2.556   3.483   5.423  0.00  0.00    +0.056 N 
ATOM     24  O   UNL     1       1.686   3.563   6.272  0.00  0.00    -0.126 OA
ATOM     25  O   UNL     1       3.719   3.685   5.722  0.00  0.00    -0.126 OA
ENDBRANCH  20  23
ENDBRANCH   8  17
BRANCH   6  26
ATOM     26  O   UNL     1      -1.144  -0.720   0.073  0.00  0.00    -0.492 OA
ATOM     27  H   UNL     1      -2.113  -0.202   0.138  0.00  0.00    +0.294 HD
ENDBRANCH   6  26
TORSDOF 4
