REMARK  Name = ZINC07005596
REMARK  7 active torsions:
REMARK  status: ('A' for Active; 'I' for Inactive)
REMARK    1  A    between atoms: C_1  and  C_2
REMARK    2  A    between atoms: C_2  and  C_3
REMARK    3  A    between atoms: C_6  and  C_20
REMARK    4  A    between atoms: C_8  and  S_9
REMARK    5  A    between atoms: S_9  and  N_12
REMARK    6  A    between atoms: N_12  and  C_13
REMARK    7  A    between atoms: C_22  and  C_25
REMARK                            x       y       z     vdW  Elec       q    Type
REMARK                         _______ _______ _______ _____ _____    ______ ____
ROOT
ATOM      1  C   UNL     1       0.846   4.222   0.351  0.00  0.00    -0.021 A 
ATOM      2  C   UNL     1       1.620   5.091  -0.399  0.00  0.00    +0.006 A 
ATOM      3  C   UNL     1       1.112   6.314  -0.784  0.00  0.00    +0.012 A 
ATOM      4  C   UNL     1      -0.185   6.675  -0.418  0.00  0.00    +0.022 A 
ATOM      5  C   UNL     1      -0.963   5.792   0.332  0.00  0.00    +0.040 A 
ATOM      6  C   UNL     1      -0.441   4.574   0.717  0.00  0.00    +0.112 A 
ENDROOT
BRANCH   4   7
ATOM      7  C   UNL     1      -0.736   7.984  -0.828  0.00  0.00    +0.168 A 
ATOM      8  C   UNL     1      -0.101   8.950  -1.560  0.00  0.00    +0.075 A 
ATOM      9  C   UNL     1      -1.060   9.978  -1.669  0.00  0.00    +0.081 A 
ATOM     10  N   UNL     1      -2.117   9.570  -1.026  0.00  0.00    -0.083 NA
ATOM     11  O   UNL     1      -1.960   8.468  -0.552  0.00  0.00    -0.354 OA
ATOM     12  C   UNL     1      -0.893  11.294  -2.383  0.00  0.00    +0.069 C 
ENDBRANCH   4   7
BRANCH   6  13
ATOM     13  S   UNL     1      -1.419   3.460   1.670  0.00  0.00    +0.073 S 
ATOM     14  O   UNL     1      -1.350   2.199   1.019  0.00  0.00    -0.150 OA
ATOM     15  O   UNL     1      -2.651   4.119   1.927  0.00  0.00    -0.150 OA
BRANCH  13  16
ATOM     16  N   UNL     1      -0.666   3.278   3.134  0.00  0.00    -0.216 N 
ATOM     17  H   UNL     1      -0.280   2.422   3.378  0.00  0.00    +0.174 HD
BRANCH  16  18
ATOM     18  C   UNL     1      -0.587   4.357   4.018  0.00  0.00    +0.051 A 
ATOM     19  C   UNL     1      -0.887   4.179   5.362  0.00  0.00    +0.024 A 
ATOM     20  C   UNL     1      -0.802   5.246   6.235  0.00  0.00    +0.005 A 
ATOM     21  C   UNL     1      -0.419   6.491   5.773  0.00  0.00    +0.038 A 
ATOM     22  C   UNL     1      -0.118   6.673   4.433  0.00  0.00    +0.125 A 
ATOM     23  C   UNL     1      -0.202   5.608   3.554  0.00  0.00    +0.062 A 
ATOM     24  F   UNL     1       0.257   7.891   3.985  0.00  0.00    -0.205 F 
ENDBRANCH  16  18
ENDBRANCH  13  16
ENDBRANCH   6  13
BRANCH   1  26
ATOM     25  C   UNL     1       1.153   1.859  -0.335  0.00  0.00    +0.009 C 
ATOM     26  C   UNL     1       1.407   2.888   0.769  0.00  0.00    +0.034 C 
ENDBRANCH   1  26
TORSDOF 5
