REMARK  Name = ZINC64774012
REMARK  7 active torsions:
REMARK  status: ('A' for Active; 'I' for Inactive)
REMARK    1  A    between atoms: C_3  and  C_8
REMARK    2  A    between atoms: C_8  and  S_9
REMARK    3  A    between atoms: S_9  and  C_10
REMARK    4  A    between atoms: C_16  and  C_24
REMARK    5  A    between atoms: C_27  and  O_30
REMARK    6  A    between atoms: O_30  and  C_31
REMARK    7  A    between atoms: C_31  and  C_32
REMARK                            x       y       z     vdW  Elec       q    Type
REMARK                         _______ _______ _______ _____ _____    ______ ____
ROOT
ATOM      1  C   UNL     1       5.827   3.412   2.118  0.00  0.00    +0.182 C 
ATOM      2  N   UNL     1       6.125   3.508   0.834  0.00  0.00    -0.154 NA
ATOM      3  C   UNL     1       7.241   4.104   0.407  0.00  0.00    +0.249 C 
ATOM      4  O   UNL     1       7.494   4.211  -0.778  0.00  0.00    -0.273 OA
ATOM      5  C   UNL     1       8.175   4.641   1.471  0.00  0.00    +0.148 C 
ATOM      6  C   UNL     1       8.423   6.124   1.188  0.00  0.00    +0.047 C 
ATOM      7  C   UNL     1       9.498   6.633   2.152  0.00  0.00    +0.105 C 
ATOM      8  C   UNL     1       9.186   6.233   3.565  0.00  0.00    +0.219 C 
ATOM      9  O   UNL     1       9.725   6.835   4.469  0.00  0.00    -0.275 OA
ATOM     10  N   UNL     1       8.336   5.239   3.872  0.00  0.00    -0.273 N 
ATOM     11  C   UNL     1       7.668   4.562   2.899  0.00  0.00    +0.117 C 
ATOM     12  N   UNL     1       6.542   3.943   3.117  0.00  0.00    -0.212 NA
ATOM     13  H   UNL     1       8.205   4.989   4.800  0.00  0.00    +0.156 HD
ENDROOT
BRANCH   6  14
ATOM     14  C   UNL     1       7.147   6.898   1.393  0.00  0.00    -0.042 A 
ATOM     15  C   UNL     1       6.703   7.170   2.673  0.00  0.00    +0.007 A 
ATOM     16  C   UNL     1       5.533   7.879   2.864  0.00  0.00    +0.046 A 
ATOM     17  C   UNL     1       4.803   8.319   1.769  0.00  0.00    +0.121 A 
ATOM     18  C   UNL     1       5.251   8.045   0.485  0.00  0.00    +0.046 A 
ATOM     19  C   UNL     1       6.425   7.340   0.299  0.00  0.00    +0.007 A 
BRANCH  17  20
ATOM     20  O   UNL     1       3.652   9.017   1.954  0.00  0.00    -0.483 OA
BRANCH  20  21
ATOM     21  C   UNL     1       2.953   9.438   0.780  0.00  0.00    +0.324 C 
BRANCH  21  22
ATOM     22  C   UNL     1       1.710  10.191   1.179  0.00  0.00    +0.248 C 
ATOM     23  O   UNL     1       1.448  10.351   2.353  0.00  0.00    -0.272 OA
ATOM     24  N   UNL     1       0.889  10.687   0.232  0.00  0.00    -0.327 N 
ATOM     25  H   UNL     1       1.098  10.558  -0.706  0.00  0.00    +0.145 HD
ATOM     26  H   UNL     1       0.089  11.171   0.489  0.00  0.00    +0.145 HD
ENDBRANCH  21  22
ENDBRANCH  20  21
ENDBRANCH  17  20
ENDBRANCH   6  14
BRANCH   1  27
ATOM     27  S   UNL     1       4.368   2.522   2.547  0.00  0.00    -0.084 S 
BRANCH  27  28
ATOM     28  C   UNL     1       3.701   1.975   0.951  0.00  0.00    +0.112 C 
BRANCH  28  31
ATOM     29  C   UNL     1       0.053   1.121   1.412  0.00  0.00    +0.002 A 
ATOM     30  C   UNL     1       1.215   1.840   1.204  0.00  0.00    +0.004 A 
ATOM     31  C   UNL     1       2.435   1.191   1.178  0.00  0.00    -0.036 A 
ATOM     32  C   UNL     1       2.494  -0.178   1.360  0.00  0.00    +0.024 A 
ATOM     33  C   UNL     1       1.331  -0.898   1.568  0.00  0.00    +0.041 A 
ATOM     34  C   UNL     1       0.110  -0.248   1.594  0.00  0.00    +0.020 A 
ATOM     35 CL   UNL     1       1.403  -2.618   1.796  0.00  0.00    -0.084 Cl
ENDBRANCH  28  31
ENDBRANCH  27  28
ENDBRANCH   1  27
TORSDOF 7
