REMARK  Name = ZINC51606953
REMARK  9 active torsions:
REMARK  status: ('A' for Active; 'I' for Inactive)
REMARK    1  A    between atoms: C_1  and  C_2
REMARK    2  A    between atoms: C_2  and  C_3
REMARK    3  A    between atoms: C_3  and  C_5
REMARK    4  A    between atoms: C_3  and  N_22
REMARK    5  A    between atoms: C_5  and  C_7
REMARK    6  A    between atoms: C_5  and  S_13
REMARK    7  A    between atoms: S_13  and  C_14
REMARK    8  A    between atoms: C_16  and  C_21
REMARK    9  A    between atoms: C_18  and  C_20
REMARK                            x       y       z     vdW  Elec       q    Type
REMARK                         _______ _______ _______ _____ _____    ______ ____
ROOT
ATOM      1  C   UNL     1       0.528  -2.016  -1.268  0.00  0.00    +0.076 C 
ENDROOT
BRANCH   1   2
ATOM      2  C   UNL     1       1.483  -2.470  -2.342  0.00  0.00    +0.003 A 
ATOM      3  C   UNL     1       1.229  -3.192  -3.461  0.00  0.00    +0.027 A 
ATOM      4  C   UNL     1       2.274  -3.496  -4.314  0.00  0.00    +0.025 A 
ATOM      5  C   UNL     1       3.522  -3.065  -4.005  0.00  0.00    +0.060 A 
ATOM      6  S   UNL     1       3.242  -2.192  -2.473  0.00  0.00    -0.099 S 
ATOM      7 BR   UNL     1       1.967  -4.501  -5.887  0.00  0.00    -0.050 Br
ENDBRANCH   1   2
BRANCH   1   8
ATOM      8  C   UNL     1       0.535  -0.487  -1.194  0.00  0.00    -0.057 C 
BRANCH   8   9
ATOM      9  N   UNL     1      -0.352  -0.046  -0.109  0.00  0.00    +0.381 N 
ATOM     10  H   UNL     1      -1.290  -0.370  -0.290  0.00  0.00    -0.090 HD
ATOM     11  H   UNL     1      -0.028  -0.427   0.767  0.00  0.00    -0.090 HD
ATOM     12  H   UNL     1      -0.347   0.961  -0.060  0.00  0.00    -0.090 HD
ENDBRANCH   8   9
BRANCH   8  14
ATOM     13  C   UNL     1       0.178   1.614  -2.496  0.00  0.00    +0.002 C 
ATOM     14  C   UNL     1       0.043   0.090  -2.522  0.00  0.00    -0.018 C 
ENDBRANCH   8  14
ENDBRANCH   1   8
BRANCH   1  15
ATOM     15  S   UNL     1       1.044  -2.702   0.330  0.00  0.00    -0.079 S 
BRANCH  15  16
ATOM     16  C   UNL     1       0.759  -4.433   0.162  0.00  0.00    +0.189 A 
ATOM     17  N   UNL     1       0.178  -4.889  -0.938  0.00  0.00    -0.227 NA
ATOM     18  C   UNL     1      -0.049  -6.183  -1.095  0.00  0.00    +0.043 A 
ATOM     19  C   UNL     1       0.328  -7.063  -0.093  0.00  0.00    +0.046 A 
ATOM     20  C   UNL     1       0.933  -6.551   1.045  0.00  0.00    +0.043 A 
ATOM     21  N   UNL     1       1.137  -5.248   1.137  0.00  0.00    -0.227 NA
ATOM     22  C   UNL     1       1.360  -7.471   2.160  0.00  0.00    +0.066 C 
ATOM     23  C   UNL     1      -0.711  -6.694  -2.349  0.00  0.00    +0.066 C 
ENDBRANCH  15  16
ENDBRANCH   1  15
TORSDOF 6
