REMARK  Name = ZINC67483211
REMARK  8 active torsions:
REMARK  status: ('A' for Active; 'I' for Inactive)
REMARK    1  A    between atoms: C_1  and  N_2
REMARK    2  A    between atoms: C_5  and  C_8
REMARK    3  A    between atoms: C_8  and  N_9
REMARK    4  A    between atoms: N_9  and  C_10
REMARK    5  A    between atoms: N_13  and  C_14
REMARK    6  A    between atoms: C_14  and  C_15
REMARK    7  A    between atoms: N_20  and  C_21
REMARK    8  A    between atoms: C_21  and  C_22
REMARK                            x       y       z     vdW  Elec       q    Type
REMARK                         _______ _______ _______ _____ _____    ______ ____
ROOT
ATOM      1  N   UNL     1       1.655  -4.450   1.425  0.00  0.00    -0.288 N 
ATOM      2  C   UNL     1       1.134  -4.699   2.772  0.00  0.00    +0.133 C 
ATOM      3  C   UNL     1       2.926  -4.780   1.122  0.00  0.00    +0.302 C 
ATOM      4  O   UNL     1       3.358  -4.574   0.004  0.00  0.00    -0.253 OA
ATOM      5  N   UNL     1       3.719  -5.337   2.059  0.00  0.00    -0.301 N 
ATOM      6  H   UNL     1       3.374  -5.502   2.950  0.00  0.00    +0.150 HD
ENDROOT
BRANCH   1   7
ATOM      7  C   UNL     1       0.793  -3.844   0.407  0.00  0.00    +0.112 C 
BRANCH   7  12
ATOM      8  C   UNL     1      -0.349   1.730   0.785  0.00  0.00    -0.096 C 
ATOM      9  N   UNL     1      -0.354   0.263   0.718  0.00  0.00    +0.378 N 
ATOM     10  C   UNL     1       0.205  -0.168  -0.570  0.00  0.00    -0.079 C 
ATOM     11  C   UNL     1       0.128  -1.692  -0.679  0.00  0.00    -0.014 C 
ATOM     12  C   UNL     1       0.930  -2.321   0.463  0.00  0.00    +0.003 C 
ATOM     13  C   UNL     1       0.387  -1.807   1.800  0.00  0.00    -0.014 C 
ATOM     14  C   UNL     1       0.454  -0.279   1.817  0.00  0.00    -0.079 C 
ATOM     15  H   UNL     1      -1.302  -0.074   0.800  0.00  0.00    -0.082 HD
ENDBRANCH   7  12
ENDBRANCH   1   7
BRANCH   5  16
ATOM     16  C   UNL     1       5.101  -5.695   1.730  0.00  0.00    +0.090 C 
BRANCH  16  17
ATOM     17  C   UNL     1       5.776  -6.306   2.959  0.00  0.00    -0.051 C 
ATOM     18  C   UNL     1       7.276  -6.531   2.677  0.00  0.00    -0.016 C 
ATOM     19  C   UNL     1       7.941  -5.276   3.302  0.00  0.00    -0.020 C 
ATOM     20  C   UNL     1       7.049  -5.034   4.544  0.00  0.00    -0.078 C 
ATOM     21  N   UNL     1       5.677  -5.376   4.099  0.00  0.00    +0.383 N 
ATOM     22  H   UNL     1       5.194  -4.537   3.813  0.00  0.00    -0.081 HD
BRANCH  21  23
ATOM     23  C   UNL     1       4.943  -6.017   5.198  0.00  0.00    -0.075 C 
BRANCH  23  24
ATOM     24  C   UNL     1       4.723  -5.004   6.324  0.00  0.00    -0.028 C 
ATOM     25  C   UNL     1       4.083  -5.706   7.524  0.00  0.00    +0.002 C 
ATOM     26  C   UNL     1       3.864  -4.693   8.649  0.00  0.00    +0.000 C 
ATOM     27  C   UNL     1       2.939  -3.577   8.159  0.00  0.00    +0.000 C 
ATOM     28  C   UNL     1       3.579  -2.876   6.959  0.00  0.00    +0.000 C 
ATOM     29  C   UNL     1       3.798  -3.888   5.833  0.00  0.00    +0.002 C 
ENDBRANCH  23  24
ENDBRANCH  21  23
ENDBRANCH  16  17
ENDBRANCH   5  16
TORSDOF 6
