REMARK  Name = ZINC11565940
REMARK  2 active torsions:
REMARK  status: ('A' for Active; 'I' for Inactive)
REMARK    1  A    between atoms: C_9  and  S_14
REMARK    2  A    between atoms: S_14  and  N_17
REMARK                            x       y       z     vdW  Elec       q    Type
REMARK                         _______ _______ _______ _____ _____    ______ ____
ROOT
ATOM      1  C   UNL     1      -1.310   6.070   2.018  0.00  0.00    +0.001 A 
ATOM      2  C   UNL     1      -1.090   4.708   2.222  0.00  0.00    +0.004 A 
ATOM      3  C   UNL     1      -0.958   3.856   1.170  0.00  0.00    -0.039 A 
ATOM      4  C   UNL     1      -1.041   4.350  -0.142  0.00  0.00    -0.009 A 
ATOM      5  C   UNL     1      -1.264   5.734  -0.350  0.00  0.00    -0.003 A 
ATOM      6  C   UNL     1      -1.397   6.585   0.761  0.00  0.00    +0.009 A 
ATOM      7  C   UNL     1      -1.348   6.230  -1.663  0.00  0.00    +0.027 A 
ATOM      8  C   UNL     1      -1.213   5.376  -2.715  0.00  0.00    +0.044 A 
ATOM      9  C   UNL     1      -0.993   4.016  -2.511  0.00  0.00    +0.110 A 
ATOM     10  C   UNL     1      -0.908   3.501  -1.254  0.00  0.00    -0.013 A 
ATOM     11  C   UNL     1      -0.671   2.026  -1.056  0.00  0.00    +0.038 C 
ATOM     12  C   UNL     1       0.089   1.804   0.254  0.00  0.00    +0.009 C 
ATOM     13  C   UNL     1      -0.722   2.387   1.414  0.00  0.00    +0.036 C 
ATOM     14 BR   UNL     1      -1.647   8.072  -1.966  0.00  0.00    -0.050 Br
ENDROOT
BRANCH   9  15
ATOM     15  S   UNL     1      -0.823   2.945  -3.900  0.00  0.00    +0.061 S 
ATOM     16  O   UNL     1      -0.896   3.767  -5.057  0.00  0.00    -0.153 OA
ATOM     17  O   UNL     1       0.290   2.104  -3.632  0.00  0.00    -0.153 OA
BRANCH  15  18
ATOM     18  N   UNL     1      -2.159   1.967  -3.930  0.00  0.00    -0.177 NA
ATOM     19  C   UNL     1      -2.121   0.630  -3.322  0.00  0.00    +0.109 C 
ATOM     20  C   UNL     1      -3.287   0.512  -2.329  0.00  0.00    +0.017 C 
ATOM     21  C   UNL     1      -4.598   0.838  -3.049  0.00  0.00    +0.003 C 
ATOM     22  C   UNL     1      -4.552   2.276  -3.569  0.00  0.00    +0.017 C 
ATOM     23  C   UNL     1      -3.402   2.417  -4.571  0.00  0.00    +0.109 C 
ENDBRANCH  15  18
ENDBRANCH   9  15
TORSDOF 2
