REMARK  Name = ZINC58390680
REMARK  6 active torsions:
REMARK  status: ('A' for Active; 'I' for Inactive)
REMARK    1  A    between atoms: C_1  and  C_2
REMARK    2  A    between atoms: C_2  and  C_3
REMARK    3  A    between atoms: C_2  and  C_4
REMARK    4  A    between atoms: C_2  and  O_5
REMARK    5  A    between atoms: O_5  and  C_6
REMARK    6  A    between atoms: C_14  and  C_16
REMARK                            x       y       z     vdW  Elec       q    Type
REMARK                         _______ _______ _______ _____ _____    ______ ____
ROOT
ATOM      1  C   UNL     1       1.895   0.035  -1.380  0.00  0.00    +0.403 C 
ATOM      2  O   UNL     1       2.420   0.760  -0.559  0.00  0.00    -0.226 OA
ATOM      3  N   UNL     1       2.597  -0.392  -2.449  0.00  0.00    -0.264 N 
ATOM      4  C   UNL     1       1.972  -1.265  -3.453  0.00  0.00    +0.130 C 
ATOM      5  C   UNL     1       2.121  -0.609  -4.832  0.00  0.00    +0.127 C 
ATOM      6  N   UNL     1       3.524  -0.211  -5.013  0.00  0.00    -0.298 N 
ATOM      7  C   UNL     1       4.148   0.661  -4.009  0.00  0.00    +0.127 C 
ATOM      8  C   UNL     1       3.998   0.011  -2.633  0.00  0.00    +0.130 C 
ATOM      9  C   UNL     1       4.226  -0.638  -6.082  0.00  0.00    +0.222 C 
ATOM     10  O   UNL     1       3.732  -1.434  -6.852  0.00  0.00    -0.275 OA
ENDROOT
BRANCH   9  11
ATOM     11  C   UNL     1       5.623  -0.127  -6.319  0.00  0.00    +0.049 C 
ATOM     12  C   UNL     1       6.547  -0.634  -5.209  0.00  0.00    +0.019 C 
ATOM     13  C   UNL     1       7.966  -0.115  -5.450  0.00  0.00    -0.008 C 
ATOM     14  C   UNL     1       8.471  -0.619  -6.803  0.00  0.00    +0.007 C 
ATOM     15  C   UNL     1       7.547  -0.112  -7.913  0.00  0.00    -0.008 C 
ATOM     16  C   UNL     1       6.128  -0.631  -7.672  0.00  0.00    +0.019 C 
ATOM     17  C   UNL     1       7.538   1.418  -7.910  0.00  0.00    +0.021 C 
ATOM     18  C   UNL     1       7.034   1.922  -6.556  0.00  0.00    +0.028 C 
ATOM     19  C   UNL     1       7.957   1.415  -5.447  0.00  0.00    +0.021 C 
ATOM     20  C   UNL     1       5.614   1.403  -6.315  0.00  0.00    +0.034 C 
ATOM     21 BR   UNL     1       7.022   3.888  -6.552  0.00  0.00    -0.084 Br
ENDBRANCH   9  11
BRANCH   1  22
ATOM     22  O   UNL     1       0.612  -0.341  -1.223  0.00  0.00    -0.445 OA
BRANCH  22  24
ATOM     23  C   UNL     1      -0.093   1.679  -0.099  0.00  0.00    +0.055 C 
ATOM     24  C   UNL     1      -0.071   0.149  -0.068  0.00  0.00    +0.107 C 
ATOM     25  C   UNL     1       0.654  -0.326   1.193  0.00  0.00    +0.055 C 
ATOM     26  C   UNL     1      -1.506  -0.381  -0.060  0.00  0.00    +0.055 C 
ENDBRANCH  22  24
ENDBRANCH   1  22
TORSDOF 3
