REMARK  Name = ZINC39531138
REMARK  11 active torsions:
REMARK  status: ('A' for Active; 'I' for Inactive)
REMARK    1  A    between atoms: C_1  and  C_2
REMARK    2  A    between atoms: C_2  and  O_3
REMARK    3  A    between atoms: O_3  and  N_4
REMARK    4  A    between atoms: N_4  and  C_5
REMARK    5  A    between atoms: C_5  and  C_6
REMARK    6  A    between atoms: C_6  and  C_8
REMARK    7  A    between atoms: C_6  and  N_21
REMARK    8  A    between atoms: C_11  and  C_14
REMARK    9  A    between atoms: C_14  and  C_15
REMARK   10  A    between atoms: C_25  and  S_28
REMARK   11  A    between atoms: S_28  and  C_29
REMARK                            x       y       z     vdW  Elec       q    Type
REMARK                         _______ _______ _______ _____ _____    ______ ____
ROOT
ATOM      1  C   UNL     1       1.555  -3.877   2.523  0.00  0.00    -0.021 C 
ENDROOT
BRANCH   1   2
ATOM      2  N   UNL     1       0.191  -4.420   2.556  0.00  0.00    +0.387 N 
ATOM      3  C   UNL     1       0.249  -5.877   2.736  0.00  0.00    -0.062 C 
ATOM      4  C   UNL     1      -1.172  -6.442   2.790  0.00  0.00    +0.063 C 
ATOM      5  N   UNL     1      -1.874  -6.113   1.541  0.00  0.00    -0.308 NA
ATOM      6  C   UNL     1      -1.919  -4.659   1.334  0.00  0.00    +0.095 C 
ATOM      7  C   UNL     1      -0.491  -4.109   1.293  0.00  0.00    -0.048 C 
ATOM      8  H   UNL     1      -1.448  -6.577   0.753  0.00  0.00    +0.123 HD
ATOM      9  H   UNL     1      -0.318  -4.007   3.323  0.00  0.00    -0.081 HD
BRANCH   6  10
ATOM     10  S   UNL     1      -2.754  -4.295  -0.235  0.00  0.00    -0.147 S 
ATOM     11  C   UNL     1      -3.578  -5.853  -0.664  0.00  0.00    +0.086 C 
ENDBRANCH   6  10
ENDBRANCH   1   2
BRANCH   1  12
ATOM     12  C   UNL     1       2.304  -4.325   3.751  0.00  0.00    -0.060 A 
ATOM     13  C   UNL     1       1.664  -4.366   4.975  0.00  0.00    +0.002 A 
ATOM     14  C   UNL     1       2.351  -4.777   6.101  0.00  0.00    +0.004 A 
ATOM     15  C   UNL     1       3.679  -5.148   6.004  0.00  0.00    -0.043 A 
ATOM     16  C   UNL     1       4.320  -5.108   4.779  0.00  0.00    +0.004 A 
ATOM     17  C   UNL     1       3.631  -4.701   3.652  0.00  0.00    +0.002 A 
BRANCH  15  18
ATOM     18  C   UNL     1       4.429  -5.596   7.232  0.00  0.00    +0.070 C 
BRANCH  18  19
ATOM     19  C   UNL     1       4.286  -7.087   7.392  0.00  0.00    -0.043 A 
ATOM     20  C   UNL     1       3.233  -7.606   8.122  0.00  0.00    +0.004 A 
ATOM     21  C   UNL     1       3.101  -8.974   8.269  0.00  0.00    +0.000 A 
ATOM     22  C   UNL     1       4.023  -9.823   7.686  0.00  0.00    +0.000 A 
ATOM     23  C   UNL     1       5.075  -9.305   6.955  0.00  0.00    +0.000 A 
ATOM     24  C   UNL     1       5.204  -7.937   6.804  0.00  0.00    +0.004 A 
ENDBRANCH  18  19
ENDBRANCH  15  18
ENDBRANCH   1  12
BRANCH   1  25
ATOM     25  C   UNL     1       1.494  -2.348   2.492  0.00  0.00    +0.100 C 
BRANCH  25  26
ATOM     26  N   UNL     1       0.915  -1.906   1.216  0.00  0.00    -0.202 NA
ATOM     27  H   UNL     1       1.436  -2.277   0.436  0.00  0.00    +0.154 HD
BRANCH  26  28
ATOM     28  O   UNL     1       0.841  -0.447   1.151  0.00  0.00    -0.300 OA
BRANCH  28  30
ATOM     29  C   UNL     1       0.257   1.583  -0.024  0.00  0.00    +0.036 C 
ATOM     30  C   UNL     1       0.286   0.054  -0.067  0.00  0.00    +0.182 C 
ENDBRANCH  28  30
ENDBRANCH  26  28
ENDBRANCH  25  26
ENDBRANCH   1  25
TORSDOF 9
