REMARK  Name = ZINC06753185
REMARK  8 active torsions:
REMARK  status: ('A' for Active; 'I' for Inactive)
REMARK    1  A    between atoms: C_1  and  C_2
REMARK    2  A    between atoms: C_5  and  C_8
REMARK    3  A    between atoms: C_11  and  C_22
REMARK    4  A    between atoms: N_18  and  C_19
REMARK    5  A    between atoms: C_19  and  C_20
REMARK    6  A    between atoms: C_20  and  O_21
REMARK    7  A    between atoms: C_24  and  C_29
REMARK    8  A    between atoms: C_27  and  O_28
REMARK                            x       y       z     vdW  Elec       q    Type
REMARK                         _______ _______ _______ _____ _____    ______ ____
ROOT
ATOM      1  C   UNL     1       0.287  -4.485  -0.180  0.00  0.00    +0.141 C 
ATOM      2  C   UNL     1      -1.163  -4.774   0.099  0.00  0.00    +0.035 A 
ATOM      3  C   UNL     1      -2.490  -4.673  -0.332  0.00  0.00    +0.102 A 
ATOM      4  N   UNL     1      -3.247  -5.238   0.587  0.00  0.00    -0.173 NA
ATOM      5  N   UNL     1      -2.530  -5.686   1.556  0.00  0.00    -0.272 N 
ATOM      6  H   UNL     1      -2.876  -6.139   2.341  0.00  0.00    +0.189 HD
ATOM      7  C   UNL     1      -1.211  -5.429   1.315  0.00  0.00    +0.126 A 
ATOM      8  C   UNL     1       0.158  -5.568   1.824  0.00  0.00    +0.266 C 
ATOM      9  O   UNL     1       0.457  -6.100   2.876  0.00  0.00    -0.268 OA
ATOM     10  N   UNL     1       1.037  -5.022   0.962  0.00  0.00    -0.283 N 
ENDROOT
BRANCH   1  15
ATOM     11  C   UNL     1       1.126   1.217  -0.606  0.00  0.00    +0.044 C 
ATOM     12  C   UNL     1       0.907  -0.270  -0.495  0.00  0.00    -0.050 A 
ATOM     13  C   UNL     1       1.035  -1.073  -1.613  0.00  0.00    +0.004 A 
ATOM     14  C   UNL     1       0.834  -2.437  -1.511  0.00  0.00    +0.006 A 
ATOM     15  C   UNL     1       0.506  -2.998  -0.291  0.00  0.00    -0.022 A 
ATOM     16  C   UNL     1       0.380  -2.195   0.827  0.00  0.00    +0.006 A 
ATOM     17  C   UNL     1       0.584  -0.832   0.726  0.00  0.00    +0.004 A 
ENDBRANCH   1  15
BRANCH   3  18
ATOM     18  C   UNL     1      -2.959  -4.045  -1.593  0.00  0.00    +0.044 A 
ATOM     19  C   UNL     1      -2.310  -4.319  -2.794  0.00  0.00    +0.017 A 
ATOM     20  C   UNL     1      -2.749  -3.732  -3.963  0.00  0.00    -0.050 A 
ATOM     21  C   UNL     1      -3.833  -2.873  -3.947  0.00  0.00    +0.007 A 
ATOM     22  C   UNL     1      -4.484  -2.594  -2.760  0.00  0.00    +0.046 A 
ATOM     23  C   UNL     1      -4.057  -3.181  -1.580  0.00  0.00    +0.126 A 
ATOM     24  C   UNL     1      -2.046  -4.029  -5.263  0.00  0.00    +0.044 C 
BRANCH  23  25
ATOM     25  O   UNL     1      -4.700  -2.913  -0.413  0.00  0.00    -0.506 OA
ATOM     26  H   UNL     1      -4.397  -2.107   0.027  0.00  0.00    +0.292 HD
ENDBRANCH  23  25
ENDBRANCH   3  18
BRANCH  10  27
ATOM     27  C   UNL     1       2.491  -4.974   1.133  0.00  0.00    +0.137 C 
BRANCH  27  28
ATOM     28  C   UNL     1       2.864  -3.763   1.992  0.00  0.00    +0.175 C 
BRANCH  28  29
ATOM     29  O   UNL     1       2.341  -3.935   3.310  0.00  0.00    -0.393 OA
ATOM     30  H   UNL     1       2.539  -3.203   3.910  0.00  0.00    +0.209 HD
ENDBRANCH  28  29
ENDBRANCH  27  28
ENDBRANCH  10  27
TORSDOF 6
