REMARK  Name = ZINC39152060
REMARK  4 active torsions:
REMARK  status: ('A' for Active; 'I' for Inactive)
REMARK    1  A    between atoms: C_3  and  N_9
REMARK    2  A    between atoms: C_10  and  C_12
REMARK    3  A    between atoms: C_12  and  S_13
REMARK    4  A    between atoms: S_13  and  C_14
REMARK                            x       y       z     vdW  Elec       q    Type
REMARK                         _______ _______ _______ _____ _____    ______ ____
ROOT
ATOM      1  S   UNL     1       4.508   6.012  -0.346  0.00  0.00    -0.079 S 
ENDROOT
BRANCH   1   2
ATOM      2  C   UNL     1       6.099   6.756  -0.483  0.00  0.00    +0.182 C 
ATOM      3  N   UNL     1       7.163   5.971  -0.488  0.00  0.00    -0.151 NA
ATOM      4  C   UNL     1       8.405   6.442  -0.593  0.00  0.00    +0.272 C 
ATOM      5  O   UNL     1       9.364   5.688  -0.593  0.00  0.00    -0.268 OA
ATOM      6  C   UNL     1       8.588   7.925  -0.712  0.00  0.00    +0.071 C 
ATOM      7  C   UNL     1       9.735   8.601  -0.889  0.00  0.00    -0.042 C 
ATOM      8  C   UNL     1      11.079   7.935  -1.173  0.00  0.00    +0.033 C 
ATOM      9  C   UNL     1      11.616   8.557  -2.470  0.00  0.00    +0.004 C 
ATOM     10  C   UNL     1      11.630  10.080  -2.359  0.00  0.00    +0.002 C 
ATOM     11  C   UNL     1      10.209  10.627  -2.195  0.00  0.00    +0.019 C 
ATOM     12  C   UNL     1       9.642  10.122  -0.866  0.00  0.00    +0.079 C 
ATOM     13  S   UNL     1       7.830  10.392  -0.815  0.00  0.00    -0.097 S 
ATOM     14  C   UNL     1       7.326   8.695  -0.683  0.00  0.00    +0.112 C 
ATOM     15  N   UNL     1       6.173   8.084  -0.581  0.00  0.00    -0.217 NA
ENDBRANCH   1   2
BRANCH   1  16
ATOM     16  C   UNL     1       4.861   4.236  -0.238  0.00  0.00    +0.173 C 
BRANCH  16  18
ATOM     17  N   UNL     1       3.584   2.129  -0.021  0.00  0.00    -0.283 N 
ATOM     18  C   UNL     1       3.567   3.473  -0.116  0.00  0.00    +0.228 C 
ATOM     19  O   UNL     1       2.511   4.069  -0.103  0.00  0.00    -0.275 OA
ATOM     20  H   UNL     1       4.430   1.658   0.049  0.00  0.00    +0.155 HD
BRANCH  17  23
ATOM     21  C   UNL     1       0.065   1.243  -0.620  0.00  0.00    +0.017 A 
ATOM     22  C   UNL     1       1.250   1.953  -0.618  0.00  0.00    +0.027 A 
ATOM     23  C   UNL     1       2.381   1.411  -0.024  0.00  0.00    +0.069 A 
ATOM     24  C   UNL     1       2.318   0.154   0.567  0.00  0.00    +0.146 A 
ATOM     25  C   UNL     1       1.129  -0.551   0.562  0.00  0.00    +0.055 A 
ATOM     26  C   UNL     1       0.004  -0.007  -0.032  0.00  0.00    +0.021 A 
ATOM     27 BR   UNL     1      -1.621  -0.974  -0.037  0.00  0.00    -0.050 Br
ATOM     28  F   UNL     1       3.417  -0.377   1.146  0.00  0.00    -0.204 F 
ENDBRANCH  17  23
ENDBRANCH  16  18
ENDBRANCH   1  16
TORSDOF 4
