REMARK  Name = ZINC02377058
REMARK  12 active torsions:
REMARK  status: ('A' for Active; 'I' for Inactive)
REMARK    1  A    between atoms: C_1  and  C_2
REMARK    2  A    between atoms: C_2  and  C_3
REMARK    3  A    between atoms: C_2  and  C_4
REMARK    4  A    between atoms: C_4  and  C_5
REMARK    5  A    between atoms: C_5  and  N_6
REMARK    6  A    between atoms: C_7  and  C_9
REMARK    7  A    between atoms: N_20  and  N_23
REMARK    8  A    between atoms: C_21  and  N_22
REMARK    9  A    between atoms: C_24  and  C_25
REMARK   10  A    between atoms: C_28  and  C_31
REMARK   11  A    between atoms: C_31  and  C_32
REMARK   12  A    between atoms: C_31  and  C_33
REMARK                            x       y       z     vdW  Elec       q    Type
REMARK                         _______ _______ _______ _____ _____    ______ ____
ROOT
ATOM      1  C   UNL     1      -5.166   5.345   7.470  0.00  0.00    +0.105 A 
ATOM      2  C   UNL     1      -3.913   5.376   8.242  0.00  0.00    +0.124 A 
ATOM      3  C   UNL     1      -2.871   4.929   7.312  0.00  0.00    +0.183 A 
ATOM      4  N   UNL     1      -1.624   4.853   7.725  0.00  0.00    -0.224 NA
ATOM      5  C   UNL     1      -1.318   5.184   8.986  0.00  0.00    +0.092 A 
ATOM      6  C   UNL     1       0.013   5.106   9.436  0.00  0.00    +0.030 A 
ATOM      7  C   UNL     1       0.315   5.444  10.719  0.00  0.00    +0.002 A 
ATOM      8  C   UNL     1      -0.677   5.869  11.601  0.00  0.00    +0.002 A 
ATOM      9  C   UNL     1      -1.975   5.957  11.203  0.00  0.00    +0.030 A 
ATOM     10  C   UNL     1      -2.326   5.616   9.883  0.00  0.00    +0.090 A 
ATOM     11  N   UNL     1      -3.600   5.699   9.481  0.00  0.00    -0.241 NA
ATOM     12  N   UNL     1      -3.493   4.665   6.107  0.00  0.00    -0.198 N 
ATOM     13  C   UNL     1      -4.832   4.911   6.191  0.00  0.00    +0.134 A 
ENDROOT
BRANCH   1  15
ATOM     14  N   UNL     1      -7.290   4.764   8.505  0.00  0.00    -0.311 N 
ATOM     15  C   UNL     1      -6.498   5.703   7.951  0.00  0.00    +0.250 C 
ATOM     16  O   UNL     1      -6.893   6.851   7.851  0.00  0.00    -0.270 OA
ATOM     17  H   UNL     1      -6.975   3.850   8.585  0.00  0.00    +0.149 HD
BRANCH  14  18
ATOM     18  C   UNL     1      -8.626   5.123   8.988  0.00  0.00    +0.105 C 
BRANCH  18  19
ATOM     19  C   UNL     1      -9.310   3.883   9.566  0.00  0.00    +0.022 C 
BRANCH  19  21
ATOM     20  C   UNL     1     -11.436   2.997  10.534  0.00  0.00    +0.007 C 
ATOM     21  C   UNL     1     -10.705   4.258  10.070  0.00  0.00    -0.016 C 
ATOM     22  C   UNL     1     -10.578   5.235  11.241  0.00  0.00    +0.007 C 
ENDBRANCH  19  21
ENDBRANCH  18  19
ENDBRANCH  14  18
ENDBRANCH   1  15
BRANCH  13  23
ATOM     23  N   UNL     1      -5.723   4.750   5.162  0.00  0.00    -0.342 N 
ATOM     24  H   UNL     1      -5.414   4.440   4.296  0.00  0.00    +0.144 HD
ATOM     25  H   UNL     1      -6.663   4.947   5.299  0.00  0.00    +0.144 HD
ENDBRANCH  13  23
BRANCH  12  26
ATOM     26  N   UNL     1      -2.837   4.213   4.954  0.00  0.00    -0.171 NA
ATOM     27  C   UNL     1      -2.704   2.941   4.740  0.00  0.00    +0.141 C 
BRANCH  27  28
ATOM     28  C   UNL     1      -2.014   2.465   3.527  0.00  0.00    -0.005 A 
ATOM     29  C   UNL     1      -1.868   1.095   3.294  0.00  0.00    +0.010 A 
ATOM     30  C   UNL     1      -1.222   0.658   2.156  0.00  0.00    +0.004 A 
ATOM     31  C   UNL     1      -0.718   1.572   1.248  0.00  0.00    -0.045 A 
ATOM     32  C   UNL     1      -0.854   2.930   1.475  0.00  0.00    +0.004 A 
ATOM     33  C   UNL     1      -1.503   3.382   2.605  0.00  0.00    +0.010 A 
BRANCH  31  34
ATOM     34  C   UNL     1      -0.013   1.086   0.008  0.00  0.00    +0.013 C 
ATOM     35  C   UNL     1       1.423   1.615  -0.003  0.00  0.00    +0.012 C 
ATOM     36  C   UNL     1      -0.753   1.593  -1.232  0.00  0.00    +0.012 C 
ENDBRANCH  31  34
ENDBRANCH  27  28
ENDBRANCH  12  26
TORSDOF 8
