REMARK  Name = ZINC01064712
REMARK  11 active torsions:
REMARK  status: ('A' for Active; 'I' for Inactive)
REMARK    1  A    between atoms: C_1  and  O_2
REMARK    2  A    between atoms: O_2  and  C_3
REMARK    3  A    between atoms: C_6  and  O_33
REMARK    4  A    between atoms: C_7  and  N_9
REMARK    5  A    between atoms: C_12  and  C_19
REMARK    6  A    between atoms: C_14  and  C_17
REMARK    7  A    between atoms: C_15  and  N_16
REMARK    8  A    between atoms: C_22  and  O_26
REMARK    9  A    between atoms: C_23  and  O_25
REMARK   10  A    between atoms: O_26  and  C_27
REMARK   11  A    between atoms: O_33  and  C_34
REMARK                            x       y       z     vdW  Elec       q    Type
REMARK                         _______ _______ _______ _____ _____    ______ ____
ROOT
ATOM      1  N   UNL     1      -1.204   2.028   0.030  0.00  0.00    -0.257 N 
ATOM      2  C   UNL     1      -0.016   1.346   0.009  0.00  0.00    +0.025 C 
ATOM      3  C   UNL     1       0.002  -0.004   0.002  0.00  0.00    +0.025 C 
ATOM      4  C   UNL     1      -1.281  -0.796  -0.010  0.00  0.00    +0.097 C 
ATOM      5  C   UNL     1      -2.442   0.048   0.426  0.00  0.00    +0.077 C 
ATOM      6  C   UNL     1      -2.364   1.404   0.426  0.00  0.00    +0.107 C 
ATOM      7  C   UNL     1       1.216  -0.712   0.001  0.00  0.00    +0.162 C 
ATOM      8  O   UNL     1       1.198  -1.927  -0.017  0.00  0.00    -0.292 OA
ATOM      9  C   UNL     1       2.538   0.005   0.022  0.00  0.00    +0.080 C 
ATOM     10  C   UNL     1       2.362   1.355   0.726  0.00  0.00    +0.014 C 
ATOM     11  C   UNL     1       1.267   2.140   0.002  0.00  0.00    +0.052 C 
ENDROOT
BRANCH   1  16
ATOM     12  C   UNL     1      -1.503   5.038  -2.071  0.00  0.00    +0.122 A 
ATOM     13  C   UNL     1      -1.309   6.037  -1.128  0.00  0.00    +0.049 A 
ATOM     14  C   UNL     1      -1.080   5.708   0.195  0.00  0.00    +0.051 A 
ATOM     15  C   UNL     1      -1.050   4.379   0.584  0.00  0.00    +0.142 A 
ATOM     16  C   UNL     1      -1.239   3.373  -0.360  0.00  0.00    +0.085 A 
ATOM     17  C   UNL     1      -1.469   3.706  -1.688  0.00  0.00    +0.073 A 
BRANCH  12  19
ATOM     18  C   UNL     1      -1.751   6.756  -3.696  0.00  0.00    +0.277 C 
ATOM     19  O   UNL     1      -1.729   5.365  -3.371  0.00  0.00    -0.495 OA
ENDBRANCH  12  19
BRANCH  15  20
ATOM     20  O   UNL     1      -0.829   4.057   1.887  0.00  0.00    -0.493 OA
ATOM     21  C   UNL     1      -0.643   5.140   2.801  0.00  0.00    +0.277 C 
ENDBRANCH  15  20
ENDBRANCH   1  16
BRANCH   4  22
ATOM     22  C   UNL     1      -1.536  -1.303  -1.406  0.00  0.00    -0.031 A 
ATOM     23  C   UNL     1      -1.680  -0.407  -2.449  0.00  0.00    +0.008 A 
ATOM     24  C   UNL     1      -1.915  -0.867  -3.732  0.00  0.00    +0.050 A 
ATOM     25  C   UNL     1      -2.005  -2.228  -3.974  0.00  0.00    +0.161 A 
ATOM     26  C   UNL     1      -1.859  -3.130  -2.924  0.00  0.00    +0.159 A 
ATOM     27  C   UNL     1      -1.620  -2.662  -1.642  0.00  0.00    +0.053 A 
BRANCH  26  28
ATOM     28  O   UNL     1      -1.947  -4.467  -3.157  0.00  0.00    -0.503 OA
ATOM     29  H   UNL     1      -1.102  -4.885  -3.372  0.00  0.00    +0.292 HD
ENDBRANCH  26  28
BRANCH  25  30
ATOM     30  O   UNL     1      -2.235  -2.682  -5.235  0.00  0.00    -0.491 OA
ATOM     31  C   UNL     1      -2.373  -1.699  -6.263  0.00  0.00    +0.277 C 
ENDBRANCH  25  30
ENDBRANCH   4  22
BRANCH   6  32
ATOM     32  N   UNL     1      -3.444   2.154   0.825  0.00  0.00    -0.345 N 
ATOM     33  H   UNL     1      -4.262   1.714   1.106  0.00  0.00    +0.144 HD
ATOM     34  H   UNL     1      -3.389   3.122   0.825  0.00  0.00    +0.144 HD
ENDBRANCH   6  32
BRANCH   5  35
ATOM     35  C   UNL     1      -3.654  -0.587   0.850  0.00  0.00    +0.099 C 
ATOM     36  N   UNL     1      -4.615  -1.091   1.186  0.00  0.00    -0.191 NA
ENDBRANCH   5  35
TORSDOF 8
