REMARK  Name = ZINC09067123
REMARK  13 active torsions:
REMARK  status: ('A' for Active; 'I' for Inactive)
REMARK    1  A    between atoms: C_1  and  C_2
REMARK    2  A    between atoms: C_2  and  C_3
REMARK    3  A    between atoms: C_3  and  C_4
REMARK    4  A    between atoms: C_4  and  C_5
REMARK    5  A    between atoms: C_5  and  C_29
REMARK    6  A    between atoms: N_8  and  C_12
REMARK    7  A    between atoms: C_12  and  C_13
REMARK    8  A    between atoms: N_15  and  C_16
REMARK    9  A    between atoms: C_16  and  C_17
REMARK   10  A    between atoms: N_19  and  C_20
REMARK   11  A    between atoms: C_21  and  C_28
REMARK   12  A    between atoms: C_23  and  C_27
REMARK   13  A    between atoms: C_25  and  C_26
REMARK                            x       y       z     vdW  Elec       q    Type
REMARK                         _______ _______ _______ _____ _____    ______ ____
ROOT
ATOM      1  C   UNL     1      -0.891   4.881   1.608  0.00  0.00    +0.138 C 
ATOM      2  C   UNL     1      -1.294   5.231   0.189  0.00  0.00    +0.251 C 
ATOM      3  O   UNL     1      -1.165   4.542  -0.800  0.00  0.00    -0.272 OA
ATOM      4  N   UNL     1      -1.825   6.468   0.256  0.00  0.00    -0.215 N 
ATOM      5  C   UNL     1      -1.814   6.943   1.506  0.00  0.00    +0.310 C 
ATOM      6  O   UNL     1      -2.241   8.038   1.817  0.00  0.00    -0.252 OA
ATOM      7  N   UNL     1      -1.279   6.074   2.382  0.00  0.00    -0.281 N 
ATOM      8  H   UNL     1      -1.170   6.205   3.337  0.00  0.00    +0.152 HD
ENDROOT
BRANCH   1   9
ATOM      9  C   UNL     1      -1.646   3.669   2.090  0.00  0.00    -0.015 A 
ATOM     10  C   UNL     1      -2.908   3.812   2.636  0.00  0.00    +0.009 A 
ATOM     11  C   UNL     1      -3.600   2.700   3.078  0.00  0.00    +0.039 A 
ATOM     12  C   UNL     1      -3.029   1.443   2.973  0.00  0.00    +0.123 A 
ATOM     13  C   UNL     1      -1.766   1.301   2.426  0.00  0.00    +0.039 A 
ATOM     14  C   UNL     1      -1.075   2.414   1.985  0.00  0.00    +0.009 A 
ATOM     15  F   UNL     1      -3.705   0.356   3.405  0.00  0.00    -0.205 F 
ENDBRANCH   1   9
BRANCH   1  16
ATOM     16  C   UNL     1       0.618   4.647   1.701  0.00  0.00    +0.040 C 
BRANCH  16  17
ATOM     17  C   UNL     1       1.358   5.932   1.326  0.00  0.00    +0.003 C 
BRANCH  17  19
ATOM     18  C   UNL     1       3.607   6.983   1.043  0.00  0.00    +0.004 C 
ATOM     19  C   UNL     1       2.867   5.697   1.418  0.00  0.00    -0.003 C 
ENDBRANCH  17  19
ENDBRANCH  16  17
ENDBRANCH   1  16
BRANCH   4  20
ATOM     20  C   UNL     1      -2.351   7.201  -0.899  0.00  0.00    +0.213 C 
BRANCH  20  21
ATOM     21  C   UNL     1      -1.247   8.017  -1.521  0.00  0.00    +0.231 C 
ATOM     22  O   UNL     1      -0.131   7.988  -1.046  0.00  0.00    -0.274 OA
ATOM     23  N   UNL     1      -1.499   8.777  -2.604  0.00  0.00    -0.305 N 
ATOM     24  H   UNL     1      -2.392   8.800  -2.983  0.00  0.00    +0.149 HD
BRANCH  23  25
ATOM     25  C   UNL     1      -0.426   9.570  -3.209  0.00  0.00    +0.200 C 
BRANCH  25  26
ATOM     26  C   UNL     1      -0.966  10.324  -4.396  0.00  0.00    +0.234 C 
ATOM     27  O   UNL     1      -2.133  10.211  -4.707  0.00  0.00    -0.274 OA
ATOM     28  N   UNL     1      -0.153  11.125  -5.113  0.00  0.00    -0.284 N 
ATOM     29  H   UNL     1       0.767  11.257  -4.834  0.00  0.00    +0.155 HD
BRANCH  28  30
ATOM     30  C   UNL     1      -0.635  11.766  -6.260  0.00  0.00    +0.039 A 
ATOM     31  C   UNL     1      -1.265  11.030  -7.255  0.00  0.00    -0.029 A 
ATOM     32  C   UNL     1      -1.745  11.666  -8.383  0.00  0.00    +0.008 A 
ATOM     33  C   UNL     1      -1.589  13.033  -8.527  0.00  0.00    -0.050 A 
ATOM     34  C   UNL     1      -0.957  13.767  -7.541  0.00  0.00    +0.008 A 
ATOM     35  C   UNL     1      -0.480  13.138  -6.408  0.00  0.00    -0.029 A 
ATOM     36  C   UNL     1       0.209  13.939  -5.333  0.00  0.00    +0.045 C 
ATOM     37  C   UNL     1      -2.108  13.723  -9.762  0.00  0.00    +0.044 C 
ATOM     38  C   UNL     1      -1.429   9.540  -7.102  0.00  0.00    +0.045 C 
ENDBRANCH  28  30
ENDBRANCH  25  26
ENDBRANCH  23  25
ENDBRANCH  20  21
ENDBRANCH   4  20
TORSDOF 9
