REMARK  Name = ZINC19669520
REMARK  7 active torsions:
REMARK  status: ('A' for Active; 'I' for Inactive)
REMARK    1  A    between atoms: C_1  and  C_2
REMARK    2  A    between atoms: C_3  and  C_29
REMARK    3  A    between atoms: C_11  and  C_13
REMARK    4  A    between atoms: C_13  and  C_15
REMARK    5  A    between atoms: C_13  and  N_16
REMARK    6  A    between atoms: N_16  and  C_17
REMARK    7  A    between atoms: C_26  and  C_28
REMARK                            x       y       z     vdW  Elec       q    Type
REMARK                         _______ _______ _______ _____ _____    ______ ____
ROOT
ATOM      1  C   UNL     1       0.084  -3.433   4.550  0.00  0.00    +0.133 C 
ATOM      2  C   UNL     1      -1.093  -3.131   5.479  0.00  0.00    +0.036 C 
ENDROOT
BRANCH   1  13
ATOM      3  C   UNL     1      -0.029   1.504   0.015  0.00  0.00    +0.045 C 
ATOM      4  C   UNL     1      -0.007  -0.003   0.006  0.00  0.00    -0.026 A 
ATOM      5  C   UNL     1      -0.003  -0.675  -1.156  0.00  0.00    -0.008 A 
ATOM      6  S   UNL     1       0.025  -2.383  -0.644  0.00  0.00    -0.073 S 
ATOM      7  C   UNL     1       0.030  -2.143   1.114  0.00  0.00    +0.116 A 
ATOM      8  C   UNL     1       0.016  -0.744   1.254  0.00  0.00    +0.075 A 
ATOM      9  C   UNL     1       0.021  -0.256   2.601  0.00  0.00    +0.260 A 
ATOM     10  O   UNL     1       0.004   0.942   2.826  0.00  0.00    -0.267 OA
ATOM     11  N   UNL     1       0.043  -1.142   3.615  0.00  0.00    -0.309 N 
ATOM     12  H   UNL     1       0.046  -0.818   4.529  0.00  0.00    +0.170 HD
ATOM     13  C   UNL     1       0.060  -2.480   3.383  0.00  0.00    +0.131 A 
ATOM     14  N   UNL     1       0.047  -2.955   2.167  0.00  0.00    -0.225 NA
ATOM     15  C   UNL     1      -0.018  -0.119  -2.556  0.00  0.00    +0.052 C 
ENDBRANCH   1  13
BRANCH   1  16
ATOM     16  N   UNL     1      -0.020  -4.809   4.059  0.00  0.00    -0.334 N 
ATOM     17  H   UNL     1      -0.441  -4.988   3.204  0.00  0.00    +0.147 HD
BRANCH  16  18
ATOM     18  C   UNL     1       0.486  -5.865   4.824  0.00  0.00    +0.028 A 
ATOM     19  C   UNL     1       1.084  -5.613   6.052  0.00  0.00    +0.025 A 
ATOM     20  C   UNL     1       1.583  -6.653   6.805  0.00  0.00    +0.025 A 
ATOM     21  C   UNL     1       1.493  -7.967   6.341  0.00  0.00    +0.040 A 
ATOM     22  C   UNL     1       0.895  -8.212   5.116  0.00  0.00    -0.023 A 
ATOM     23  C   UNL     1       0.389  -7.170   4.362  0.00  0.00    +0.028 A 
ATOM     24  C   UNL     1       0.926  -9.700   4.853  0.00  0.00    +0.056 C 
ATOM     25  C   UNL     1       1.622 -10.298   6.086  0.00  0.00    +0.118 C 
ATOM     26  N   UNL     1       1.933  -9.152   6.945  0.00  0.00    -0.271 N 
ATOM     27  C   UNL     1       2.552  -9.228   8.140  0.00  0.00    +0.217 C 
ATOM     28  O   UNL     1       2.847  -8.213   8.735  0.00  0.00    -0.276 OA
ATOM     29  C   UNL     1       2.876 -10.573   8.738  0.00  0.00    +0.109 C 
ENDBRANCH  16  18
ENDBRANCH   1  16
TORSDOF 3
