REMARK  Name = ZINC27256822
REMARK  11 active torsions:
REMARK  status: ('A' for Active; 'I' for Inactive)
REMARK    1  A    between atoms: C_1  and  N_2
REMARK    2  A    between atoms: N_2  and  C_3
REMARK    3  A    between atoms: N_2  and  C_10
REMARK    4  A    between atoms: C_3  and  C_4
REMARK    5  A    between atoms: C_10  and  C_11
REMARK    6  A    between atoms: C_11  and  C_13
REMARK    7  A    between atoms: C_11  and  C_20
REMARK    8  A    between atoms: C_20  and  C_21
REMARK    9  A    between atoms: C_20  and  C_24
REMARK   10  A    between atoms: C_20  and  O_31
REMARK   11  A    between atoms: C_21  and  C_22
REMARK                            x       y       z     vdW  Elec       q    Type
REMARK                         _______ _______ _______ _____ _____    ______ ____
ROOT
ATOM      1  C   UNL     1       2.066   4.415   0.724  0.00  0.00    +0.069 C 
ENDROOT
BRANCH   1   2
ATOM      2  C   UNL     1       3.439   4.195   0.144  0.00  0.00    -0.040 A 
ATOM      3  C   UNL     1       3.710   4.575  -1.157  0.00  0.00    +0.005 A 
ATOM      4  C   UNL     1       4.971   4.379  -1.687  0.00  0.00    +0.020 A 
ATOM      5  C   UNL     1       5.960   3.792  -0.918  0.00  0.00    +0.041 A 
ATOM      6  C   UNL     1       5.688   3.406   0.382  0.00  0.00    +0.020 A 
ATOM      7  C   UNL     1       4.427   3.608   0.913  0.00  0.00    +0.005 A 
ATOM      8 CL   UNL     1       7.543   3.538  -1.585  0.00  0.00    -0.084 Cl
ENDBRANCH   1   2
BRANCH   1   9
ATOM      9  C   UNL     1       1.717   5.903   0.658  0.00  0.00    +0.095 C 
BRANCH   9  11
ATOM     10  C   UNL     1       2.384   6.304   2.951  0.00  0.00    +0.105 C 
ATOM     11  N   UNL     1       2.615   6.656   1.544  0.00  0.00    -0.300 NA
BRANCH  11  12
ATOM     12  C   UNL     1       2.473   8.103   1.333  0.00  0.00    +0.119 C 
BRANCH  12  13
ATOM     13  C   UNL     1       3.569   8.829   2.069  0.00  0.00    -0.033 A 
ATOM     14  C   UNL     1       3.371   9.239   3.374  0.00  0.00    +0.005 A 
ATOM     15  C   UNL     1       4.378   9.900   4.052  0.00  0.00    +0.000 A 
ATOM     16  C   UNL     1       5.580  10.160   3.420  0.00  0.00    +0.000 A 
ATOM     17  C   UNL     1       5.776   9.755   2.113  0.00  0.00    +0.000 A 
ATOM     18  C   UNL     1       4.771   9.089   1.438  0.00  0.00    +0.005 A 
ENDBRANCH  12  13
ENDBRANCH  11  12
ENDBRANCH   9  11
ENDBRANCH   1   9
BRANCH   1  19
ATOM     19  C   UNL     1       1.039   3.615  -0.081  0.00  0.00    +0.102 C 
BRANCH  19  20
ATOM     20  C   UNL     1      -0.345   3.912   0.435  0.00  0.00    -0.015 A 
ATOM     21  C   UNL     1      -1.320   4.377  -0.428  0.00  0.00    +0.009 A 
ATOM     22  C   UNL     1      -2.590   4.649   0.044  0.00  0.00    +0.039 A 
ATOM     23  C   UNL     1      -2.886   4.457   1.383  0.00  0.00    +0.123 A 
ATOM     24  C   UNL     1      -1.909   3.991   2.247  0.00  0.00    +0.039 A 
ATOM     25  C   UNL     1      -0.640   3.720   1.772  0.00  0.00    +0.009 A 
ATOM     26  F   UNL     1      -4.127   4.723   1.845  0.00  0.00    -0.205 F 
ENDBRANCH  19  20
BRANCH  19  27
ATOM     27  O   UNL     1       1.123   3.983  -1.459  0.00  0.00    -0.383 OA
ATOM     28  H   UNL     1       0.457   3.510  -2.196  0.00  0.00    +0.211 HD
ENDBRANCH  19  27
BRANCH  19  29
ATOM     29  C   UNL     1       1.329   2.120   0.066  0.00  0.00    +0.066 C 
BRANCH  29  30
ATOM     30  C   UNL     1       2.676   1.808  -0.531  0.00  0.00    -0.031 C 
ATOM     31  C   UNL     1       3.578   1.176   0.179  0.00  0.00    +0.004 C 
ENDBRANCH  29  30
ENDBRANCH  19  29
ENDBRANCH   1  19
TORSDOF 10
