REMARK  Name = ZINC18030963
REMARK  4 active torsions:
REMARK  status: ('A' for Active; 'I' for Inactive)
REMARK    1  A    between atoms: C_1  and  C_2
REMARK    2  A    between atoms: C_7  and  C_8
REMARK    3  A    between atoms: N_16  and  C_19
REMARK    4  A    between atoms: N_26  and  C_27
REMARK                            x       y       z     vdW  Elec       q    Type
REMARK                         _______ _______ _______ _____ _____    ______ ____
ROOT
ATOM      1  C   UNL     1       0.198   0.298   2.279  0.00  0.00    +0.157 C 
ATOM      2  C   UNL     1       1.619   0.525   2.849  0.00  0.00    +0.145 C 
ATOM      3  C   UNL     1       1.786  -0.634   3.869  0.00  0.00    +0.249 C 
ATOM      4  C   UNL     1       1.832   0.077   5.202  0.00  0.00    +0.259 C 
ATOM      5  O   UNL     1       1.947  -0.463   6.281  0.00  0.00    -0.272 OA
ATOM      6  N   UNL     1       1.726   1.397   5.005  0.00  0.00    -0.208 N 
ATOM      7  C   UNL     1       1.609   1.771   3.707  0.00  0.00    +0.235 C 
ATOM      8  O   UNL     1       1.510   2.906   3.292  0.00  0.00    -0.274 OA
ATOM      9  O   UNL     1       0.583  -1.415   3.770  0.00  0.00    -0.257 OA
ATOM     10  N   UNL     1      -0.455  -0.520   3.329  0.00  0.00    -0.244 N 
ENDROOT
BRANCH   1  17
ATOM     11  C   UNL     1       0.736   1.711  -0.184  0.00  0.00    +0.044 C 
ATOM     12  C   UNL     1       0.518   0.220  -0.203  0.00  0.00    -0.045 A 
ATOM     13  C   UNL     1       0.580  -0.473  -1.397  0.00  0.00    +0.004 A 
ATOM     14  C   UNL     1       0.380  -1.841  -1.415  0.00  0.00    +0.000 A 
ATOM     15  C   UNL     1       0.118  -2.516  -0.237  0.00  0.00    +0.000 A 
ATOM     16  C   UNL     1       0.056  -1.823   0.958  0.00  0.00    +0.006 A 
ATOM     17  C   UNL     1       0.260  -0.456   0.976  0.00  0.00    -0.019 A 
ENDBRANCH   1  17
BRANCH   6  18
ATOM     18  C   UNL     1       1.740   2.324   6.057  0.00  0.00    +0.044 A 
ATOM     19  C   UNL     1       0.597   3.051   6.359  0.00  0.00    +0.024 A 
ATOM     20  C   UNL     1       0.614   3.963   7.396  0.00  0.00    +0.002 A 
ATOM     21  C   UNL     1       1.769   4.153   8.132  0.00  0.00    +0.000 A 
ATOM     22  C   UNL     1       2.910   3.431   7.833  0.00  0.00    +0.002 A 
ATOM     23  C   UNL     1       2.897   2.513   6.801  0.00  0.00    +0.024 A 
ENDBRANCH   6  18
BRANCH  10  24
ATOM     24  C   UNL     1      -1.775  -0.441   3.777  0.00  0.00    +0.065 A 
ATOM     25  C   UNL     1      -2.645   0.487   3.218  0.00  0.00    +0.028 A 
ATOM     26  C   UNL     1      -3.950   0.564   3.663  0.00  0.00    +0.002 A 
ATOM     27  C   UNL     1      -4.392  -0.283   4.664  0.00  0.00    +0.000 A 
ATOM     28  C   UNL     1      -3.529  -1.208   5.222  0.00  0.00    +0.002 A 
ATOM     29  C   UNL     1      -2.224  -1.293   4.778  0.00  0.00    +0.028 A 
ENDBRANCH  10  24
TORSDOF 3
