REMARK  Name = ZINC16322901
REMARK  4 active torsions:
REMARK  status: ('A' for Active; 'I' for Inactive)
REMARK    1  A    between atoms: C_1  and  N_2
REMARK    2  A    between atoms: C_15  and  S_16
REMARK    3  A    between atoms: S_16  and  C_17
REMARK    4  A    between atoms: C_17  and  C_18
REMARK                            x       y       z     vdW  Elec       q    Type
REMARK                         _______ _______ _______ _____ _____    ______ ____
ROOT
ATOM      1  C   UNL     1      -0.018   1.461   0.010  0.00  0.00    +0.155 C 
ATOM      2  N   UNL     1       0.002  -0.004   0.002  0.00  0.00    -0.280 N 
ATOM      3  C   UNL     1       0.005  -0.661  -1.176  0.00  0.00    +0.263 A 
ATOM      4  O   UNL     1      -0.008  -0.049  -2.226  0.00  0.00    -0.267 OA
ATOM      5  C   UNL     1       0.026  -2.135  -1.167  0.00  0.00    +0.064 A 
ATOM      6  C   UNL     1       0.031  -2.866  -2.354  0.00  0.00    +0.015 A 
ATOM      7  C   UNL     1       0.051  -4.244  -2.306  0.00  0.00    +0.001 A 
ATOM      8  C   UNL     1       0.066  -4.902  -1.086  0.00  0.00    +0.002 A 
ATOM      9  C   UNL     1       0.060  -4.189   0.097  0.00  0.00    +0.027 A 
ATOM     10  C   UNL     1       0.041  -2.803   0.067  0.00  0.00    +0.064 A 
ATOM     11  N   UNL     1       0.037  -2.060   1.245  0.00  0.00    -0.256 N 
ATOM     12  C   UNL     1       0.023  -0.693   1.205  0.00  0.00    +0.240 A 
ATOM     13  N   UNL     1       0.028  -0.255   2.445  0.00  0.00    -0.109 NA
ATOM     14  N   UNL     1       0.051  -1.364   3.298  0.00  0.00    -0.120 NA
ATOM     15  C   UNL     1       0.049  -2.446   2.558  0.00  0.00    +0.198 A 
ENDROOT
BRANCH  15  16
ATOM     16  S   UNL     1       0.074  -4.106   3.150  0.00  0.00    -0.076 S 
BRANCH  16  17
ATOM     17  C   UNL     1       0.081  -3.928   4.955  0.00  0.00    +0.173 C 
BRANCH  17  18
ATOM     18  C   UNL     1       0.102  -5.293   5.595  0.00  0.00    +0.207 A 
ATOM     19  N   UNL     1       1.178  -5.948   5.909  0.00  0.00    -0.213 NA
ATOM     20  C   UNL     1       0.821  -7.138   6.465  0.00  0.00    +0.110 A 
ATOM     21  C   UNL     1       1.539  -8.220   6.977  0.00  0.00    +0.031 A 
ATOM     22  C   UNL     1       0.865  -9.308   7.483  0.00  0.00    +0.002 A 
ATOM     23  C   UNL     1      -0.522  -9.336   7.486  0.00  0.00    +0.004 A 
ATOM     24  C   UNL     1      -1.245  -8.274   6.983  0.00  0.00    +0.048 A 
ATOM     25  C   UNL     1      -0.582  -7.170   6.470  0.00  0.00    +0.155 A 
ATOM     26  O   UNL     1      -0.989  -6.002   5.926  0.00  0.00    -0.439 OA
ENDBRANCH  17  18
ENDBRANCH  16  17
ENDBRANCH  15  16
TORSDOF 3
