REMARK  Name = ZINC58987661
REMARK  11 active torsions:
REMARK  status: ('A' for Active; 'I' for Inactive)
REMARK    1  A    between atoms: C_1  and  O_2
REMARK    2  A    between atoms: O_2  and  C_3
REMARK    3  A    between atoms: C_6  and  C_11
REMARK    4  A    between atoms: C_8  and  O_9
REMARK    5  A    between atoms: O_9  and  C_10
REMARK    6  A    between atoms: N_12  and  N_13
REMARK    7  A    between atoms: C_14  and  C_16
REMARK    8  A    between atoms: C_16  and  S_17
REMARK    9  A    between atoms: S_17  and  C_18
REMARK   10  A    between atoms: C_21  and  C_24
REMARK   11  A    between atoms: N_22  and  N_23
REMARK                            x       y       z     vdW  Elec       q    Type
REMARK                         _______ _______ _______ _____ _____    ______ ____
ROOT
ATOM      1  C   UNL     1      -9.773  -2.546   0.070  0.00  0.00    +0.174 C 
ENDROOT
BRANCH   1   3
ATOM      2  N   UNL     1      -7.299  -2.568   0.052  0.00  0.00    -0.206 N 
ATOM      3  C   UNL     1      -8.437  -1.847   0.062  0.00  0.00    +0.242 C 
ATOM      4  O   UNL     1      -8.387  -0.634   0.063  0.00  0.00    -0.273 OA
ATOM      5  H   UNL     1      -7.339  -3.537   0.051  0.00  0.00    +0.177 HD
BRANCH   2   7
ATOM      6  C   UNL     1      -4.962  -2.613   0.035  0.00  0.00    +0.138 C 
ATOM      7  N   UNL     1      -6.058  -1.919   0.044  0.00  0.00    -0.188 NA
BRANCH   6  11
ATOM      8  C   UNL     1      -1.201  -0.638   0.010  0.00  0.00    +0.162 A 
ATOM      9  C   UNL     1      -2.373   0.104   0.019  0.00  0.00    +0.050 A 
ATOM     10  C   UNL     1      -3.596  -0.534   0.027  0.00  0.00    +0.013 A 
ATOM     11  C   UNL     1      -3.656  -1.930   0.026  0.00  0.00    -0.002 A 
ATOM     12  C   UNL     1      -2.474  -2.676   0.016  0.00  0.00    +0.059 A 
ATOM     13  C   UNL     1      -1.253  -2.030   0.003  0.00  0.00    +0.162 A 
BRANCH   8  15
ATOM     14  C   UNL     1      -0.017   1.425   0.010  0.00  0.00    +0.277 C 
ATOM     15  O   UNL     1       0.002  -0.004   0.002  0.00  0.00    -0.491 OA
ENDBRANCH   8  15
BRANCH  13  16
ATOM     16  O   UNL     1      -0.101  -2.753  -0.011  0.00  0.00    -0.491 OA
ATOM     17  C   UNL     1      -0.229  -4.176  -0.018  0.00  0.00    +0.277 C 
ENDBRANCH  13  16
ENDBRANCH   6  11
ENDBRANCH   2   7
ENDBRANCH   1   3
BRANCH   1  18
ATOM     18  S   UNL     1     -11.101  -1.311   0.082  0.00  0.00    -0.075 S 
BRANCH  18  19
ATOM     19  C   UNL     1     -12.577  -2.273   0.092  0.00  0.00    +0.209 A 
ATOM     20  N   UNL     1     -12.652  -3.585   0.096  0.00  0.00    -0.121 NA
ATOM     21  N   UNL     1     -13.883  -3.957   0.103  0.00  0.00    -0.127 NA
ATOM     22  C   UNL     1     -14.668  -2.905   0.103  0.00  0.00    +0.182 A 
ATOM     23  N   UNL     1     -13.856  -1.794   0.102  0.00  0.00    -0.224 N 
BRANCH  22  24
ATOM     24  C   UNL     1     -16.147  -2.913   0.110  0.00  0.00    +0.021 A 
ATOM     25  C   UNL     1     -16.855  -1.753  -0.209  0.00  0.00    +0.013 A 
ATOM     26  C   UNL     1     -18.234  -1.766  -0.201  0.00  0.00    +0.016 A 
ATOM     27  C   UNL     1     -18.916  -2.927   0.123  0.00  0.00    +0.018 A 
ATOM     28  C   UNL     1     -18.219  -4.080   0.441  0.00  0.00    +0.016 A 
ATOM     29  C   UNL     1     -16.840  -4.081   0.430  0.00  0.00    +0.013 A 
ATOM     30 BR   UNL     1     -20.807  -2.937   0.132  0.00  0.00    -0.050 Br
ENDBRANCH  22  24
BRANCH  23  31
ATOM     31  N   UNL     1     -14.248  -0.486   0.107  0.00  0.00    -0.295 N 
ATOM     32  H   UNL     1     -14.359  -0.138  -0.833  0.00  0.00    +0.163 HD
ATOM     33  H   UNL     1     -15.096  -0.364   0.640  0.00  0.00    +0.163 HD
ENDBRANCH  23  31
ENDBRANCH  18  19
ENDBRANCH   1  18
TORSDOF 9
