REMARK  Name = ZINC32623933
REMARK  4 active torsions:
REMARK  status: ('A' for Active; 'I' for Inactive)
REMARK    1  A    between atoms: C_10  and  C_11
REMARK    2  A    between atoms: C_17  and  C_19
REMARK    3  A    between atoms: C_19  and  O_20
REMARK    4  A    between atoms: O_20  and  C_21
REMARK                            x       y       z     vdW  Elec       q    Type
REMARK                         _______ _______ _______ _____ _____    ______ ____
ROOT
ATOM      1  C   UNL     1       4.434   0.765  -0.036  0.00  0.00    +0.260 A 
ATOM      2  N   UNL     1       3.584   1.776  -0.077  0.00  0.00    -0.174 NA
ATOM      3  C   UNL     1       2.359   1.218  -0.043  0.00  0.00    +0.262 A 
ATOM      4  N   UNL     1       2.520  -0.077   0.020  0.00  0.00    -0.039 NA
ATOM      5  O   UNL     1       3.700  -0.358   0.020  0.00  0.00    -0.331 OA
ATOM      6  N   UNL     1       1.143   1.897  -0.066  0.00  0.00    -0.249 N 
ATOM      7  C   UNL     1      -0.015   1.208  -0.027  0.00  0.00    +0.257 C 
ATOM      8  O   UNL     1       0.002  -0.003   0.028  0.00  0.00    -0.272 OA
ATOM      9  H   UNL     1       1.128   2.996  -0.116  0.00  0.00    +0.158 HD
ENDROOT
BRANCH   1  19
ATOM     10  C   UNL     1       8.229  -1.335   2.668  0.00  0.00    +0.001 A 
ATOM     11  C   UNL     1       6.840  -1.434   2.698  0.00  0.00    +0.001 A 
ATOM     12  C   UNL     1       6.068  -0.730   1.823  0.00  0.00    +0.009 A 
ATOM     13  C   UNL     1       6.677   0.110   0.881  0.00  0.00    -0.006 A 
ATOM     14  C   UNL     1       8.089   0.208   0.845  0.00  0.00    -0.017 A 
ATOM     15  C   UNL     1       8.854  -0.532   1.763  0.00  0.00    +0.008 A 
ATOM     16  C   UNL     1       8.701   1.046  -0.103  0.00  0.00    +0.008 A 
ATOM     17  C   UNL     1       7.939   1.754  -0.983  0.00  0.00    +0.001 A 
ATOM     18  C   UNL     1       6.553   1.667  -0.966  0.00  0.00    +0.014 A 
ATOM     19  C   UNL     1       5.907   0.853  -0.048  0.00  0.00    +0.047 A 
ENDBRANCH   1  19
BRANCH   7  20
ATOM     20  C   UNL     1      -1.330   1.942  -0.058  0.00  0.00    +0.325 C 
BRANCH  20  21
ATOM     21  O   UNL     1      -2.403   1.000  -0.014  0.00  0.00    -0.483 OA
BRANCH  21  22
ATOM     22  C   UNL     1      -3.666   1.501  -0.034  0.00  0.00    +0.121 A 
ATOM     23  C   UNL     1      -3.868   2.873  -0.090  0.00  0.00    +0.047 A 
ATOM     24  C   UNL     1      -5.153   3.380  -0.116  0.00  0.00    +0.023 A 
ATOM     25  C   UNL     1      -6.238   2.522  -0.075  0.00  0.00    +0.041 A 
ATOM     26  C   UNL     1      -6.038   1.155  -0.014  0.00  0.00    +0.023 A 
ATOM     27  C   UNL     1      -4.755   0.643   0.006  0.00  0.00    +0.047 A 
ATOM     28 CL   UNL     1      -7.851   3.163  -0.102  0.00  0.00    -0.084 Cl
ENDBRANCH  21  22
ENDBRANCH  20  21
ENDBRANCH   7  20
TORSDOF 4
