REMARK  Name = ZINC08567393
REMARK  10 active torsions:
REMARK  status: ('A' for Active; 'I' for Inactive)
REMARK    1  A    between atoms: C_1  and  O_2
REMARK    2  A    between atoms: O_2  and  C_3
REMARK    3  A    between atoms: C_6  and  C_9
REMARK    4  A    between atoms: C_16  and  N_40
REMARK    5  A    between atoms: C_17  and  C_38
REMARK    6  A    between atoms: C_18  and  C_20
REMARK    7  A    between atoms: C_23  and  O_36
REMARK    8  A    between atoms: C_24  and  C_26
REMARK    9  A    between atoms: C_26  and  N_27
REMARK   10  A    between atoms: O_36  and  C_37
REMARK                            x       y       z     vdW  Elec       q    Type
REMARK                         _______ _______ _______ _____ _____    ______ ____
ROOT
ATOM      1  C   UNL     1       2.431  -3.007   4.983  0.00  0.00    +0.100 A 
ATOM      2  C   UNL     1       1.807  -4.199   5.364  0.00  0.00    +0.054 A 
ATOM      3  C   UNL     1       2.490  -4.711   6.428  0.00  0.00    +0.223 A 
ATOM      4  N   UNL     1       3.509  -3.871   6.706  0.00  0.00    -0.246 N 
ATOM      5  H   UNL     1       4.163  -3.982   7.413  0.00  0.00    +0.192 HD
ATOM      6  N   UNL     1       3.459  -2.811   5.787  0.00  0.00    -0.171 NA
ATOM      7  O   UNL     1       2.133  -5.869   7.038  0.00  0.00    -0.423 OA
ATOM      8  C   UNL     1       0.917  -6.378   6.750  0.00  0.00    +0.200 C 
ATOM      9  C   UNL     1       0.154  -5.962   5.715  0.00  0.00    +0.098 C 
ATOM     10  C   UNL     1       0.599  -4.875   4.769  0.00  0.00    +0.102 C 
ENDROOT
BRANCH   1  14
ATOM     11  C   UNL     1       1.238  -0.467   1.786  0.00  0.00    +0.120 A 
ATOM     12  C   UNL     1       0.280  -1.035   2.613  0.00  0.00    +0.046 A 
ATOM     13  C   UNL     1       0.663  -1.859   3.651  0.00  0.00    +0.013 A 
ATOM     14  C   UNL     1       2.015  -2.121   3.867  0.00  0.00    +0.003 A 
ATOM     15  C   UNL     1       2.975  -1.549   3.034  0.00  0.00    +0.013 A 
ATOM     16  C   UNL     1       2.585  -0.730   1.996  0.00  0.00    +0.046 A 
BRANCH  11  18
ATOM     17  C   UNL     1      -0.545   0.573   0.605  0.00  0.00    +0.277 C 
ATOM     18  O   UNL     1       0.857   0.345   0.764  0.00  0.00    -0.495 OA
ENDBRANCH  11  18
ENDBRANCH   1  14
BRANCH  10  19
ATOM     19  C   UNL     1       0.958  -5.477   3.435  0.00  0.00    -0.034 A 
ATOM     20  C   UNL     1       0.302  -5.061   2.291  0.00  0.00    +0.008 A 
ATOM     21  C   UNL     1       0.629  -5.612   1.067  0.00  0.00    +0.046 A 
ATOM     22  C   UNL     1       1.617  -6.583   0.987  0.00  0.00    +0.125 A 
ATOM     23  C   UNL     1       2.274  -6.998   2.136  0.00  0.00    +0.016 A 
ATOM     24  C   UNL     1       1.947  -6.440   3.357  0.00  0.00    +0.013 A 
BRANCH  22  25
ATOM     25  O   UNL     1       1.941  -7.128  -0.216  0.00  0.00    -0.495 OA
ATOM     26  C   UNL     1       1.223  -6.653  -1.357  0.00  0.00    +0.277 C 
ENDBRANCH  22  25
BRANCH  23  27
ATOM     27  C   UNL     1       3.347  -8.053   2.053  0.00  0.00    +0.184 C 
BRANCH  27  28
ATOM     28  N   UNL     1       2.733  -9.381   2.114  0.00  0.00    -0.239 N 
ATOM     29  C   UNL     1       2.567 -10.160   3.235  0.00  0.00    +0.089 A 
ATOM     30  C   UNL     1       2.883  -9.998   4.579  0.00  0.00    +0.029 A 
ATOM     31  C   UNL     1       2.578 -10.986   5.473  0.00  0.00    +0.002 A 
ATOM     32  C   UNL     1       1.954 -12.153   5.050  0.00  0.00    +0.002 A 
ATOM     33  C   UNL     1       1.633 -12.336   3.737  0.00  0.00    +0.032 A 
ATOM     34  C   UNL     1       1.934 -11.338   2.801  0.00  0.00    +0.113 A 
ATOM     35  N   UNL     1       1.745 -11.234   1.470  0.00  0.00    -0.129 NA
ATOM     36  N   UNL     1       2.192 -10.107   1.042  0.00  0.00    -0.064 NA
ENDBRANCH  27  28
ENDBRANCH  23  27
ENDBRANCH  10  19
BRANCH   8  37
ATOM     37  N   UNL     1       0.428  -7.377   7.554  0.00  0.00    -0.328 N 
ATOM     38  H   UNL     1       0.953  -7.697   8.305  0.00  0.00    +0.145 HD
ATOM     39  H   UNL     1      -0.444  -7.763   7.372  0.00  0.00    +0.145 HD
ENDBRANCH   8  37
BRANCH   9  40
ATOM     40  C   UNL     1      -1.123  -6.575   5.510  0.00  0.00    +0.101 C 
ATOM     41  N   UNL     1      -2.136  -7.062   5.346  0.00  0.00    -0.191 NA
ENDBRANCH   9  40
TORSDOF 8
