REMARK  Name = ZINC37673039
REMARK  4 active torsions:
REMARK  status: ('A' for Active; 'I' for Inactive)
REMARK    1  A    between atoms: C_1  and  N_2
REMARK    2  A    between atoms: N_2  and  C_3
REMARK    3  A    between atoms: C_3  and  C_4
REMARK    4  A    between atoms: C_6  and  N_11
REMARK                            x       y       z     vdW  Elec       q    Type
REMARK                         _______ _______ _______ _____ _____    ______ ____
ROOT
ATOM      1  C   UNL     1      -0.008   1.442  -0.027  0.00  0.00    +0.131 C 
ATOM      2  N   UNL     1       0.001  -0.023  -0.009  0.00  0.00    -0.315 N 
ATOM      3  C   UNL     1      -0.116  -0.733  -1.195  0.00  0.00    +0.107 A 
ATOM      4  C   UNL     1       1.054  -1.183  -1.863  0.00  0.00    +0.027 A 
ATOM      5  C   UNL     1       2.451  -1.021  -1.497  0.00  0.00    +0.019 A 
ATOM      6  C   UNL     1       3.401  -1.538  -2.290  0.00  0.00    +0.046 A 
ATOM      7  S   UNL     1       2.475  -2.296  -3.611  0.00  0.00    -0.096 S 
ATOM      8  C   UNL     1       0.838  -1.897  -3.062  0.00  0.00    +0.024 A 
ATOM      9  C   UNL     1      -0.441  -2.127  -3.534  0.00  0.00    +0.033 A 
ATOM     10  C   UNL     1      -1.505  -1.650  -2.817  0.00  0.00    +0.085 A 
ATOM     11  N   UNL     1      -1.310  -0.986  -1.687  0.00  0.00    -0.349 N 
ATOM     12  H   UNL     1      -2.087  -0.666  -1.201  0.00  0.00    +0.167 HD
ENDROOT
BRANCH   2  13
ATOM     13  C   UNL     1       0.134  -0.738   1.263  0.00  0.00    +0.142 C 
BRANCH  13  14
ATOM     14  C   UNL     1      -1.233  -1.114   1.773  0.00  0.00    -0.010 A 
ATOM     15  C   UNL     1      -1.713  -2.395   1.580  0.00  0.00    +0.029 A 
ATOM     16  C   UNL     1      -2.973  -2.741   2.051  0.00  0.00    +0.025 A 
ATOM     17  C   UNL     1      -3.747  -1.798   2.715  0.00  0.00    +0.024 A 
ATOM     18  C   UNL     1      -3.262  -0.519   2.905  0.00  0.00    +0.022 A 
ATOM     19  C   UNL     1      -2.004  -0.178   2.439  0.00  0.00    +0.046 A 
ATOM     20 CL   UNL     1      -1.395   1.428   2.686  0.00  0.00    -0.083 Cl
BRANCH  16  21
ATOM     21  N   UNL     1      -3.461  -4.036   1.856  0.00  0.00    -0.358 N 
ATOM     22  H   UNL     1      -2.920  -4.694   1.392  0.00  0.00    +0.142 HD
ATOM     23  H   UNL     1      -4.341  -4.277   2.186  0.00  0.00    +0.142 HD
ENDBRANCH  16  21
ENDBRANCH  13  14
ENDBRANCH   2  13
TORSDOF 3
