REMARK  Name = ZINC01765748
REMARK  3 active torsions:
REMARK  status: ('A' for Active; 'I' for Inactive)
REMARK    1  A    between atoms: C_6  and  S_7
REMARK    2  A    between atoms: S_7  and  O_10
REMARK    3  A    between atoms: O_10  and  C_11
REMARK                            x       y       z     vdW  Elec       q    Type
REMARK                         _______ _______ _______ _____ _____    ______ ____
ROOT
ATOM      1  S   UNL     1      -1.018   0.805  -3.563  0.00  0.00    +0.112 S 
ATOM      2  O   UNL     1      -0.226   0.174  -4.560  0.00  0.00    -0.142 OA
ATOM      3  O   UNL     1      -2.165   0.186  -2.996  0.00  0.00    -0.142 OA
ENDROOT
BRANCH   1   9
ATOM      4  C   UNL     1      -2.706   2.941  -3.765  0.00  0.00    +0.030 A 
ATOM      5  C   UNL     1      -3.128   4.145  -4.296  0.00  0.00    +0.017 A 
ATOM      6  C   UNL     1      -2.408   4.740  -5.316  0.00  0.00    +0.018 A 
ATOM      7  C   UNL     1      -1.264   4.133  -5.800  0.00  0.00    +0.017 A 
ATOM      8  C   UNL     1      -0.840   2.932  -5.264  0.00  0.00    +0.030 A 
ATOM      9  C   UNL     1      -1.559   2.337  -4.245  0.00  0.00    +0.117 A 
ATOM     10 BR   UNL     1      -2.989   6.385  -6.048  0.00  0.00    -0.050 Br
ENDBRANCH   1   9
BRANCH   1  11
ATOM     11  O   UNL     1      -0.084   1.132  -2.407  0.00  0.00    -0.230 OA
BRANCH  11  12
ATOM     12  C   UNL     1      -0.753   1.593  -1.232  0.00  0.00    +0.167 C 
ATOM     13  C   UNL     1      -0.773   3.123  -1.223  0.00  0.00    +0.035 C 
ATOM     14  C   UNL     1      -1.490   3.616   0.036  0.00  0.00    +0.003 C 
ATOM     15  C   UNL     1      -0.750   3.109   1.275  0.00  0.00    +0.002 C 
ATOM     16  C   UNL     1      -0.729   1.579   1.267  0.00  0.00    +0.022 C 
ATOM     17  C   UNL     1      -0.013   1.086   0.008  0.00  0.00    +0.112 C 
ATOM     18 CL   UNL     1       1.679   1.710  -0.005  0.00  0.00    -0.119 Cl
ENDBRANCH  11  12
ENDBRANCH   1  11
TORSDOF 3
