REMARK  Name = ZINC12895832
REMARK  6 active torsions:
REMARK  status: ('A' for Active; 'I' for Inactive)
REMARK    1  A    between atoms: C_1  and  C_2
REMARK    2  A    between atoms: C_2  and  C_4
REMARK    3  A    between atoms: C_2  and  N_11
REMARK    4  A    between atoms: C_17  and  N_20
REMARK    5  A    between atoms: N_20  and  S_21
REMARK    6  A    between atoms: S_21  and  C_24
REMARK                            x       y       z     vdW  Elec       q    Type
REMARK                         _______ _______ _______ _____ _____    ______ ____
ROOT
ATOM      1  N   UNL     1      -3.348   6.463  -4.634  0.00  0.00    -0.293 N 
ATOM      2  C   UNL     1      -3.529   6.133  -3.340  0.00  0.00    +0.303 C 
ATOM      3  O   UNL     1      -4.572   6.414  -2.781  0.00  0.00    -0.253 OA
ATOM      4  N   UNL     1      -2.554   5.492  -2.665  0.00  0.00    -0.286 N 
ATOM      5  C   UNL     1      -1.336   5.044  -3.354  0.00  0.00    +0.111 C 
ATOM      6  C   UNL     1      -1.136   3.550  -3.082  0.00  0.00    +0.039 C 
ATOM      7  C   UNL     1      -1.128   3.308  -1.571  0.00  0.00    +0.080 C 
ATOM      8  C   UNL     1      -2.474   3.731  -0.977  0.00  0.00    +0.039 C 
ATOM      9  C   UNL     1      -2.689   5.227  -1.226  0.00  0.00    +0.111 C 
ATOM     10  H   UNL     1      -2.547   6.176  -5.100  0.00  0.00    +0.151 HD
ENDROOT
BRANCH   1  12
ATOM     11  C   UNL     1      -5.449   6.325  -5.878  0.00  0.00    +0.033 C 
ATOM     12  C   UNL     1      -4.361   7.254  -5.337  0.00  0.00    +0.103 C 
BRANCH  12  13
ATOM     13  C   UNL     1      -3.716   7.992  -6.481  0.00  0.00    -0.009 A 
ATOM     14  C   UNL     1      -2.552   7.509  -7.048  0.00  0.00    +0.007 A 
ATOM     15  C   UNL     1      -1.963   8.183  -8.101  0.00  0.00    +0.000 A 
ATOM     16  C   UNL     1      -2.532   9.348  -8.581  0.00  0.00    +0.001 A 
ATOM     17  C   UNL     1      -3.693   9.835  -8.012  0.00  0.00    +0.020 A 
ATOM     18  C   UNL     1      -4.286   9.158  -6.962  0.00  0.00    +0.046 A 
ATOM     19 CL   UNL     1      -5.745   9.770  -6.246  0.00  0.00    -0.083 Cl
ENDBRANCH  12  13
ENDBRANCH   1  12
BRANCH   7  20
ATOM     20  N   UNL     1      -0.903   1.885  -1.306  0.00  0.00    -0.186 NA
ATOM     21  H   UNL     1      -1.271   1.216  -1.904  0.00  0.00    +0.148 HD
BRANCH  20  22
ATOM     22  S   UNL     1      -0.022   1.418   0.016  0.00  0.00    +0.065 S 
ATOM     23  O   UNL     1      -0.006  -0.003   0.012  0.00  0.00    -0.153 OA
ATOM     24  O   UNL     1       1.169   2.193   0.004  0.00  0.00    -0.153 OA
BRANCH  22  25
ATOM     25  C   UNL     1      -0.927   1.907   1.446  0.00  0.00    +0.142 A 
ATOM     26  C   UNL     1      -1.863   1.216   2.142  0.00  0.00    +0.036 A 
ATOM     27  C   UNL     1      -2.448   1.806   3.247  0.00  0.00    +0.010 A 
ATOM     28  C   UNL     1      -2.070   3.059   3.601  0.00  0.00    +0.047 A 
ATOM     29  S   UNL     1      -0.845   3.440   2.359  0.00  0.00    -0.077 S 
ENDBRANCH  22  25
ENDBRANCH  20  22
ENDBRANCH   7  20
TORSDOF 5
