REMARK  Name = ZINC10041805
REMARK  10 active torsions:
REMARK  status: ('A' for Active; 'I' for Inactive)
REMARK    1  A    between atoms: C_1  and  C_2
REMARK    2  A    between atoms: C_2  and  C_3
REMARK    3  A    between atoms: C_2  and  C_4
REMARK    4  A    between atoms: C_4  and  C_6
REMARK    5  A    between atoms: C_4  and  N_26
REMARK    6  A    between atoms: N_8  and  N_9
REMARK    7  A    between atoms: C_10  and  C_11
REMARK    8  A    between atoms: C_14  and  C_16
REMARK    9  A    between atoms: C_21  and  N_22
REMARK   10  A    between atoms: C_27  and  C_29
REMARK                            x       y       z     vdW  Elec       q    Type
REMARK                         _______ _______ _______ _____ _____    ______ ____
ROOT
ATOM      1  C   UNL     1      -2.202   2.160   1.505  0.00  0.00    +0.253 C 
ATOM      2  O   UNL     1      -3.122   1.599   2.051  0.00  0.00    -0.272 OA
ATOM      3  N   UNL     1      -2.414   2.852   0.368  0.00  0.00    -0.205 N 
ATOM      4  H   UNL     1      -3.288   2.837  -0.053  0.00  0.00    +0.177 HD
ENDROOT
BRANCH   3   5
ATOM      5  N   UNL     1      -1.455   3.534  -0.160  0.00  0.00    -0.185 NA
ATOM      6  C   UNL     1      -1.692   4.308  -1.212  0.00  0.00    +0.176 C 
BRANCH   6   7
ATOM      7  C   UNL     1      -2.997   4.512  -1.644  0.00  0.00    +0.148 A 
ATOM      8  C   UNL     1      -3.398   5.227  -2.863  0.00  0.00    +0.051 A 
ATOM      9  C   UNL     1      -4.754   5.191  -2.906  0.00  0.00    +0.050 A 
ATOM     10  C   UNL     1      -5.197   4.467  -1.716  0.00  0.00    +0.138 A 
ATOM     11  O   UNL     1      -4.113   4.093  -1.013  0.00  0.00    -0.454 OA
BRANCH  10  12
ATOM     12  C   UNL     1      -6.542   4.204  -1.362  0.00  0.00    +0.048 A 
ATOM     13  C   UNL     1      -7.460   5.265  -1.222  0.00  0.00    +0.015 A 
ATOM     14  C   UNL     1      -8.755   5.000  -0.886  0.00  0.00    +0.021 A 
ATOM     15  C   UNL     1      -9.169   3.690  -0.670  0.00  0.00    +0.043 A 
ATOM     16  C   UNL     1      -8.271   2.638  -0.800  0.00  0.00    +0.053 A 
ATOM     17  C   UNL     1      -6.972   2.881  -1.141  0.00  0.00    +0.138 A 
ATOM     18 CL   UNL     1     -10.818   3.368  -0.236  0.00  0.00    -0.083 Cl
BRANCH  17  19
ATOM     19  N   UNL     1      -6.017   1.757  -1.278  0.00  0.00    +0.057 N 
ATOM     20  O   UNL     1      -6.390   0.534  -0.962  0.00  0.00    -0.126 OA
ATOM     21  O   UNL     1      -4.795   1.981  -1.715  0.00  0.00    -0.126 OA
ENDBRANCH  17  19
ENDBRANCH  10  12
ENDBRANCH   6   7
ENDBRANCH   3   5
BRANCH   1  22
ATOM     22  C   UNL     1      -0.817   2.084   2.094  0.00  0.00    +0.163 C 
BRANCH  22  23
ATOM     23  N   UNL     1      -0.678   0.843   2.859  0.00  0.00    -0.300 N 
ATOM     24  C   UNL     1       0.541   0.301   3.049  0.00  0.00    +0.245 C 
ATOM     25  O   UNL     1       1.526   0.842   2.586  0.00  0.00    -0.270 OA
ATOM     26  H   UNL     1      -1.464   0.411   3.229  0.00  0.00    +0.150 HD
BRANCH  24  27
ATOM     27  C   UNL     1       0.680  -0.952   3.821  0.00  0.00    +0.038 A 
ATOM     28  C   UNL     1       1.942  -1.516   4.020  0.00  0.00    +0.013 A 
ATOM     29  C   UNL     1       2.066  -2.685   4.742  0.00  0.00    +0.002 A 
ATOM     30  C   UNL     1       0.944  -3.299   5.269  0.00  0.00    +0.020 A 
ATOM     31  C   UNL     1      -0.310  -2.745   5.077  0.00  0.00    +0.042 A 
ATOM     32  C   UNL     1      -0.448  -1.573   4.360  0.00  0.00    +0.033 A 
ATOM     33 CL   UNL     1      -1.712  -3.522   5.743  0.00  0.00    -0.084 Cl
ENDBRANCH  24  27
ENDBRANCH  22  23
BRANCH  22  35
ATOM     34  C   UNL     1       0.747   3.120   3.744  0.00  0.00    +0.009 C 
ATOM     35  C   UNL     1      -0.590   3.282   3.019  0.00  0.00    +0.012 C 
ATOM     36  C   UNL     1      -0.570   4.569   2.192  0.00  0.00    +0.009 C 
ENDBRANCH  22  35
ENDBRANCH   1  22
TORSDOF 8
