REMARK  Name = ZINC29329520
REMARK  6 active torsions:
REMARK  status: ('A' for Active; 'I' for Inactive)
REMARK    1  A    between atoms: C_2  and  C_3
REMARK    2  A    between atoms: C_3  and  N_4
REMARK    3  A    between atoms: N_7  and  C_8
REMARK    4  A    between atoms: C_11  and  N_14
REMARK    5  A    between atoms: N_14  and  S_15
REMARK    6  A    between atoms: S_15  and  C_18
REMARK                            x       y       z     vdW  Elec       q    Type
REMARK                         _______ _______ _______ _____ _____    ______ ____
ROOT
ATOM      1  C   UNL     1      -1.257   1.697   0.325  0.00  0.00    +0.035 A 
ATOM      2  C   UNL     1      -1.339   3.068   0.120  0.00  0.00    +0.025 A 
ATOM      3  C   UNL     1      -2.573   3.675  -0.006  0.00  0.00    +0.026 A 
ATOM      4  C   UNL     1      -3.732   2.915   0.082  0.00  0.00    +0.048 A 
ATOM      5  C   UNL     1      -3.650   1.545   0.292  0.00  0.00    +0.026 A 
ATOM      6  C   UNL     1      -2.416   0.938   0.413  0.00  0.00    +0.025 A 
ENDROOT
BRANCH   1  10
ATOM      7  N   UNL     1       1.414  -0.718  -0.006  0.00  0.00    -0.296 N 
ATOM      8  C   UNL     1       0.187  -0.161  -0.041  0.00  0.00    +0.304 C 
ATOM      9  O   UNL     1      -0.748  -0.779  -0.512  0.00  0.00    -0.253 OA
ATOM     10  N   UNL     1      -0.004   1.080   0.448  0.00  0.00    -0.269 N 
ATOM     11  H   UNL     1       2.260  -0.158   0.420  0.00  0.00    +0.151 HD
ATOM     12  H   UNL     1       0.823   1.610   0.943  0.00  0.00    +0.156 HD
BRANCH   7  13
ATOM     13  C   UNL     1       1.621  -2.067  -0.537  0.00  0.00    +0.132 C 
BRANCH  13  15
ATOM     14  C   UNL     1       3.390  -3.554   0.252  0.00  0.00    +0.005 C 
ATOM     15  C   UNL     1       3.070  -2.452  -0.380  0.00  0.00    -0.016 C 
ENDBRANCH  13  15
ENDBRANCH   7  13
ENDBRANCH   1  10
BRANCH   4  16
ATOM     16  N   UNL     1      -4.982   3.531  -0.042  0.00  0.00    -0.216 N 
ATOM     17  H   UNL     1      -5.756   3.081  -0.681  0.00  0.00    +0.174 HD
BRANCH  16  18
ATOM     18  S   UNL     1      -5.298   4.936   0.776  0.00  0.00    +0.073 S 
ATOM     19  O   UNL     1      -4.212   5.813   0.511  0.00  0.00    -0.150 OA
ATOM     20  O   UNL     1      -6.645   5.282   0.484  0.00  0.00    -0.150 OA
BRANCH  18  21
ATOM     21  C   UNL     1      -5.236   4.563   2.497  0.00  0.00    +0.123 A 
ATOM     22  C   UNL     1      -4.266   5.141   3.295  0.00  0.00    +0.045 A 
ATOM     23  C   UNL     1      -4.217   4.848   4.645  0.00  0.00    +0.020 A 
ATOM     24  C   UNL     1      -5.139   3.977   5.198  0.00  0.00    +0.016 A 
ATOM     25  C   UNL     1      -6.108   3.399   4.401  0.00  0.00    +0.018 A 
ATOM     26  C   UNL     1      -6.160   3.696   3.050  0.00  0.00    +0.045 A 
ATOM     27 BR   UNL     1      -7.491   2.911   1.960  0.00  0.00    -0.048 Br
ATOM     28 BR   UNL     1      -2.891   5.639   5.737  0.00  0.00    -0.050 Br
ENDBRANCH  18  21
ENDBRANCH  16  18
ENDBRANCH   4  16
TORSDOF 6
