REMARK  Name = ZINC15731425
REMARK  9 active torsions:
REMARK  status: ('A' for Active; 'I' for Inactive)
REMARK    1  A    between atoms: C_1  and  C_2
REMARK    2  A    between atoms: C_2  and  C_3
REMARK    3  A    between atoms: C_2  and  C_4
REMARK    4  A    between atoms: C_4  and  C_5
REMARK    5  A    between atoms: C_5  and  C_7
REMARK    6  A    between atoms: C_5  and  N_18
REMARK    7  A    between atoms: N_9  and  C_10
REMARK    8  A    between atoms: N_18  and  S_19
REMARK    9  A    between atoms: S_19  and  C_22
REMARK                            x       y       z     vdW  Elec       q    Type
REMARK                         _______ _______ _______ _____ _____    ______ ____
ROOT
ATOM      1  N   UNL     1       4.165  -0.703  -1.176  0.00  0.00    -0.178 NA
ATOM      2  H   UNL     1       3.941  -1.642  -1.276  0.00  0.00    +0.149 HD
ENDROOT
BRANCH   1   3
ATOM      3  S   UNL     1       4.055   0.021   0.309  0.00  0.00    +0.059 S 
ATOM      4  O   UNL     1       5.287   0.697   0.523  0.00  0.00    -0.153 OA
ATOM      5  O   UNL     1       3.561  -0.964   1.206  0.00  0.00    -0.153 OA
BRANCH   3   6
ATOM      6  C   UNL     1       2.812   1.264   0.192  0.00  0.00    +0.106 A 
ATOM      7  C   UNL     1       3.148   2.553  -0.181  0.00  0.00    +0.030 A 
ATOM      8  C   UNL     1       2.168   3.512  -0.264  0.00  0.00    +0.025 A 
ATOM      9  C   UNL     1       0.825   3.215   0.025  0.00  0.00    +0.037 A 
ATOM     10  C   UNL     1       0.495   1.926   0.388  0.00  0.00    -0.024 A 
ATOM     11  C   UNL     1       1.499   0.961   0.471  0.00  0.00    +0.034 A 
ATOM     12  C   UNL     1      -0.886   1.448   0.701  0.00  0.00    +0.037 C 
ATOM     13  C   UNL     1      -1.986   2.061  -0.107  0.00  0.00    +0.014 C 
ATOM     14  C   UNL     1      -2.359   3.453   0.344  0.00  0.00    +0.096 C 
ATOM     15  C   UNL     1      -1.329   4.454  -0.038  0.00  0.00    +0.217 C 
ATOM     16  O   UNL     1      -1.735   5.554  -0.351  0.00  0.00    -0.275 OA
ATOM     17  N   UNL     1      -0.038   4.281  -0.074  0.00  0.00    -0.285 N 
ATOM     18  H   UNL     1       0.435   5.118  -0.203  0.00  0.00    +0.155 HD
ENDBRANCH   3   6
ENDBRANCH   1   3
BRANCH   1  19
ATOM     19  C   UNL     1       4.601   0.073  -2.339  0.00  0.00    +0.162 C 
BRANCH  19  20
ATOM     20  C   UNL     1       3.840  -0.378  -3.559  0.00  0.00    +0.232 C 
ATOM     21  O   UNL     1       3.202  -1.409  -3.528  0.00  0.00    -0.274 OA
ATOM     22  N   UNL     1       3.869   0.363  -4.684  0.00  0.00    -0.311 N 
ATOM     23  H   UNL     1       4.434   1.150  -4.732  0.00  0.00    +0.149 HD
BRANCH  22  24
ATOM     24  C   UNL     1       3.046  -0.019  -5.834  0.00  0.00    +0.073 C 
ATOM     25  C   UNL     1       3.793  -1.057  -6.674  0.00  0.00    +0.022 C 
ATOM     26  C   UNL     1       2.812  -1.744  -7.626  0.00  0.00    +0.002 C 
ATOM     27  C   UNL     1       1.526  -2.089  -6.873  0.00  0.00    +0.000 C 
ATOM     28  C   UNL     1       0.373  -1.245  -7.419  0.00  0.00    +0.000 C 
ATOM     29  C   UNL     1       0.492   0.184  -6.887  0.00  0.00    +0.000 C 
ATOM     30  C   UNL     1       1.600   0.920  -7.643  0.00  0.00    +0.002 C 
ATOM     31  C   UNL     1       2.758   1.218  -6.689  0.00  0.00    +0.022 C 
ENDBRANCH  22  24
ENDBRANCH  19  20
BRANCH  19  32
ATOM     32  C   UNL     1       6.099  -0.142  -2.564  0.00  0.00    +0.032 C 
BRANCH  32  34
ATOM     33  C   UNL     1       6.476   2.236  -3.228  0.00  0.00    +0.007 C 
ATOM     34  C   UNL     1       6.585   0.780  -3.684  0.00  0.00    -0.015 C 
ATOM     35  C   UNL     1       8.044   0.457  -4.014  0.00  0.00    +0.007 C 
ENDBRANCH  32  34
ENDBRANCH  19  32
ENDBRANCH   1  19
TORSDOF 7
