REMARK  Name = ZINC27580477
REMARK  9 active torsions:
REMARK  status: ('A' for Active; 'I' for Inactive)
REMARK    1  A    between atoms: C_1  and  O_2
REMARK    2  A    between atoms: O_2  and  C_3
REMARK    3  A    between atoms: C_6  and  C_9
REMARK    4  A    between atoms: C_9  and  C_11
REMARK    5  A    between atoms: C_9  and  N_24
REMARK    6  A    between atoms: C_11  and  N_12
REMARK    7  A    between atoms: C_13  and  C_15
REMARK    8  A    between atoms: C_15  and  O_16
REMARK    9  A    between atoms: O_16  and  C_17
REMARK                            x       y       z     vdW  Elec       q    Type
REMARK                         _______ _______ _______ _____ _____    ______ ____
ROOT
ATOM      1  C   UNL     1       4.359   8.689  -0.057  0.00  0.00    -0.020 C 
ENDROOT
BRANCH   1   2
ATOM      2  N   UNL     1       5.102   8.310  -1.266  0.00  0.00    +0.385 N 
ATOM      3  C   UNL     1       5.153   6.838  -1.418  0.00  0.00    -0.078 C 
ATOM      4  C   UNL     1       6.124   6.394  -2.478  0.00  0.00    -0.019 C 
ATOM      5  C   UNL     1       7.479   6.092  -1.805  0.00  0.00    -0.002 C 
ATOM      6  C   UNL     1       8.232   7.307  -1.512  0.00  0.00    -0.002 C 
ATOM      7  C   UNL     1       7.479   8.238  -0.538  0.00  0.00    -0.019 C 
ATOM      8  C   UNL     1       6.421   8.980  -1.309  0.00  0.00    -0.078 C 
ATOM      9  H   UNL     1       4.558   8.677  -2.148  0.00  0.00    -0.081 HD
ENDBRANCH   1   2
BRANCH   1  13
ATOM     10  C   UNL     1       3.581  12.890  -0.123  0.00  0.00    +0.120 A 
ATOM     11  C   UNL     1       3.938  12.268   1.064  0.00  0.00    +0.046 A 
ATOM     12  C   UNL     1       4.189  10.910   1.083  0.00  0.00    +0.005 A 
ATOM     13  C   UNL     1       4.084  10.171  -0.081  0.00  0.00    -0.059 A 
ATOM     14  C   UNL     1       3.734  10.789  -1.266  0.00  0.00    +0.005 A 
ATOM     15  C   UNL     1       3.477  12.146  -1.289  0.00  0.00    +0.046 A 
BRANCH  10  17
ATOM     16  C   UNL     1       2.972  14.800  -1.402  0.00  0.00    +0.277 C 
ATOM     17  O   UNL     1       3.335  14.227  -0.144  0.00  0.00    -0.495 OA
ENDBRANCH  10  17
ENDBRANCH   1  13
BRANCH   1  18
ATOM     18  C   UNL     1       3.033   7.926  -0.014  0.00  0.00    +0.093 C 
BRANCH  18  19
ATOM     19  N   UNL     1       2.334   8.232   1.237  0.00  0.00    -0.314 N 
ATOM     20  C   UNL     1       1.090   7.758   1.447  0.00  0.00    +0.251 C 
ATOM     21  O   UNL     1       0.549   7.078   0.601  0.00  0.00    -0.272 OA
ATOM     22  H   UNL     1       2.825   8.849   2.004  0.00  0.00    +0.149 HD
BRANCH  20  23
ATOM     23  C   UNL     1       0.371   8.073   2.733  0.00  0.00    +0.324 C 
BRANCH  23  24
ATOM     24  O   UNL     1      -0.921   7.463   2.719  0.00  0.00    -0.483 OA
BRANCH  24  25
ATOM     25  C   UNL     1      -1.705   7.651   3.813  0.00  0.00    +0.121 A 
ATOM     26  C   UNL     1      -2.971   7.087   3.866  0.00  0.00    +0.047 A 
ATOM     27  C   UNL     1      -3.766   7.280   4.979  0.00  0.00    +0.019 A 
ATOM     28  C   UNL     1      -3.300   8.034   6.041  0.00  0.00    +0.018 A 
ATOM     29  C   UNL     1      -2.038   8.598   5.990  0.00  0.00    +0.019 A 
ATOM     30  C   UNL     1      -1.239   8.408   4.879  0.00  0.00    +0.047 A 
ATOM     31 BR   UNL     1      -4.391   8.296   7.563  0.00  0.00    -0.050 Br
ENDBRANCH  24  25
ENDBRANCH  23  24
ENDBRANCH  20  23
ENDBRANCH  18  19
ENDBRANCH   1  18
TORSDOF 8
