REMARK  Name = ZINC03139163
REMARK  7 active torsions:
REMARK  status: ('A' for Active; 'I' for Inactive)
REMARK    1  A    between atoms: C_4  and  C_7
REMARK    2  A    between atoms: C_7  and  N_8
REMARK    3  A    between atoms: C_10  and  C_17
REMARK    4  A    between atoms: N_18  and  N_19
REMARK    5  A    between atoms: C_20  and  C_22
REMARK    6  A    between atoms: C_22  and  O_23
REMARK    7  A    between atoms: O_23  and  C_24
REMARK                            x       y       z     vdW  Elec       q    Type
REMARK                         _______ _______ _______ _____ _____    ______ ____
ROOT
ATOM      1  N   UNL     1       4.262  12.274   0.024  0.00  0.00    -0.342 N 
ATOM      2  C   UNL     1       4.843  11.041   0.012  0.00  0.00    +0.096 A 
ATOM      3  C   UNL     1       3.880  10.081   0.017  0.00  0.00    +0.020 A 
ATOM      4  C   UNL     1       2.585  10.784   0.027  0.00  0.00    +0.009 A 
ATOM      5  C   UNL     1       2.889  12.156   0.036  0.00  0.00    +0.050 A 
ATOM      6  C   UNL     1       1.853  13.084   0.051  0.00  0.00    +0.026 A 
ATOM      7  C   UNL     1       0.544  12.654   0.061  0.00  0.00    +0.002 A 
ATOM      8  C   UNL     1       0.245  11.299   0.057  0.00  0.00    +0.001 A 
ATOM      9  C   UNL     1       1.256  10.364   0.043  0.00  0.00    +0.010 A 
ENDROOT
BRANCH   3  10
ATOM     10  C   UNL     1       4.090   8.624   0.008  0.00  0.00    +0.140 C 
ATOM     11  N   UNL     1       3.069   7.821   0.013  0.00  0.00    -0.188 NA
BRANCH  11  12
ATOM     12  N   UNL     1       3.269   6.434   0.004  0.00  0.00    -0.204 N 
ATOM     13  C   UNL     1       2.210   5.600   0.010  0.00  0.00    +0.270 C 
ATOM     14  O   UNL     1       1.083   6.051   0.023  0.00  0.00    -0.270 OA
ATOM     15  H   UNL     1       4.170   6.074  -0.006  0.00  0.00    +0.177 HD
BRANCH  13  16
ATOM     16  C   UNL     1       2.425   4.109   0.001  0.00  0.00    +0.326 C 
BRANCH  16  17
ATOM     17  O   UNL     1       1.160   3.445   0.009  0.00  0.00    -0.483 OA
BRANCH  17  18
ATOM     18  C   UNL     1       1.176   2.086   0.002  0.00  0.00    +0.121 A 
ATOM     19  C   UNL     1      -0.017   1.377   0.010  0.00  0.00    +0.046 A 
ATOM     20  C   UNL     1       0.002  -0.004   0.002  0.00  0.00    +0.018 A 
ATOM     21  C   UNL     1       1.209  -0.680  -0.013  0.00  0.00    +0.014 A 
ATOM     22  C   UNL     1       2.399   0.024  -0.020  0.00  0.00    +0.018 A 
ATOM     23  C   UNL     1       2.385   1.406  -0.012  0.00  0.00    +0.046 A 
ATOM     24  I   UNL     1       1.233  -2.775  -0.025  0.00  0.00    -0.044 I 
ENDBRANCH  17  18
ENDBRANCH  16  17
ENDBRANCH  13  16
ENDBRANCH  11  12
ENDBRANCH   3  10
BRANCH   1  25
ATOM     25  C   UNL     1       4.993  13.544   0.022  0.00  0.00    +0.157 C 
BRANCH  25  29
ATOM     26  C   UNL     1       5.438  14.937   4.036  0.00  0.00    +0.000 A 
ATOM     27  C   UNL     1       6.400  14.116   3.479  0.00  0.00    +0.000 A 
ATOM     28  C   UNL     1       6.256  13.665   2.180  0.00  0.00    +0.005 A 
ATOM     29  C   UNL     1       5.150  14.035   1.438  0.00  0.00    -0.028 A 
ATOM     30  C   UNL     1       4.190  14.860   1.994  0.00  0.00    +0.005 A 
ATOM     31  C   UNL     1       4.331  15.307   3.295  0.00  0.00    +0.000 A 
ENDBRANCH  25  29
ENDBRANCH   1  25
TORSDOF 7
