REMARK  Name = ZINC08892716
REMARK  10 active torsions:
REMARK  status: ('A' for Active; 'I' for Inactive)
REMARK    1  A    between atoms: C_1  and  O_2
REMARK    2  A    between atoms: O_2  and  C_3
REMARK    3  A    between atoms: N_10  and  C_11
REMARK    4  A    between atoms: C_14  and  N_18
REMARK    5  A    between atoms: C_16  and  O_17
REMARK    6  A    between atoms: C_22  and  C_24
REMARK    7  A    between atoms: C_27  and  O_32
REMARK    8  A    between atoms: C_28  and  O_30
REMARK    9  A    between atoms: O_30  and  C_31
REMARK   10  A    between atoms: O_32  and  C_33
REMARK                            x       y       z     vdW  Elec       q    Type
REMARK                         _______ _______ _______ _____ _____    ______ ____
ROOT
ATOM      1  C   UNL     1      -6.005   7.390   0.069  0.00  0.00    +0.121 A 
ATOM      2  C   UNL     1      -4.767   8.033   0.062  0.00  0.00    +0.049 A 
ATOM      3  C   UNL     1      -3.599   7.306   0.058  0.00  0.00    +0.050 A 
ATOM      4  C   UNL     1      -3.645   5.913   0.059  0.00  0.00    +0.138 A 
ATOM      5  C   UNL     1      -4.895   5.263   0.067  0.00  0.00    +0.044 A 
ATOM      6  C   UNL     1      -6.073   6.010   0.072  0.00  0.00    +0.059 A 
ATOM      7  C   UNL     1      -4.929   3.790   0.068  0.00  0.00    +0.054 A 
ATOM      8  N   UNL     1      -6.095   3.119   0.075  0.00  0.00    -0.352 N 
ATOM      9  C   UNL     1      -3.702   3.114   0.063  0.00  0.00    +0.073 A 
ATOM     10  C   UNL     1      -2.511   3.856   0.056  0.00  0.00    +0.138 A 
ATOM     11  O   UNL     1      -2.509   5.191   0.060  0.00  0.00    -0.455 OA
ATOM     12  H   UNL     1      -7.044   3.667   0.169  0.00  0.00    +0.166 HD
ENDROOT
BRANCH   8  13
ATOM     13  C   UNL     1      -6.100   1.800  -0.030  0.00  0.00    +0.082 A 
ATOM     14  C   UNL     1      -6.060   1.148  -1.344  0.00  0.00    +0.031 A 
ATOM     15  C   UNL     1      -6.066  -0.207  -1.410  0.00  0.00    +0.035 A 
ATOM     16  C   UNL     1      -6.111  -0.990  -0.255  0.00  0.00    +0.130 A 
ATOM     17  C   UNL     1      -6.150  -0.433   1.006  0.00  0.00    +0.080 A 
ATOM     18  C   UNL     1      -6.140   0.943   1.172  0.00  0.00    +0.142 A 
BRANCH  16  19
ATOM     19  N   UNL     1      -6.117  -2.464  -0.387  0.00  0.00    +0.057 N 
ATOM     20  O   UNL     1      -6.080  -3.018  -1.582  0.00  0.00    -0.126 OA
ATOM     21  O   UNL     1      -6.159  -3.222   0.689  0.00  0.00    -0.126 OA
ENDBRANCH  16  19
BRANCH  18  22
ATOM     22  O   UNL     1      -6.172   1.489   2.406  0.00  0.00    -0.505 OA
ATOM     23  H   UNL     1      -6.202   0.839   3.294  0.00  0.00    +0.292 HD
ENDBRANCH  18  22
ENDBRANCH   8  13
BRANCH  10  24
ATOM     24  C   UNL     1      -1.230   3.143   0.051  0.00  0.00    +0.021 A 
ATOM     25  C   UNL     1      -1.205   1.738   0.046  0.00  0.00    +0.015 A 
ATOM     26  C   UNL     1      -0.013   1.075   0.045  0.00  0.00    +0.050 A 
ATOM     27  C   UNL     1       1.185   1.784   0.039  0.00  0.00    +0.162 A 
ATOM     28  C   UNL     1       1.176   3.183   0.038  0.00  0.00    +0.162 A 
ATOM     29  C   UNL     1      -0.024   3.862   0.044  0.00  0.00    +0.061 A 
BRANCH  28  30
ATOM     30  O   UNL     1       2.348   3.872   0.032  0.00  0.00    -0.491 OA
ATOM     31  C   UNL     1       2.261   5.299   0.031  0.00  0.00    +0.277 C 
ENDBRANCH  28  30
BRANCH  27  32
ATOM     32  O   UNL     1       2.366   1.117   0.033  0.00  0.00    -0.491 OA
ATOM     33  C   UNL     1       2.304  -0.311   0.034  0.00  0.00    +0.277 C 
ENDBRANCH  27  32
ENDBRANCH  10  24
BRANCH   1  35
ATOM     34  C   UNL     1      -7.008   9.546   0.072  0.00  0.00    +0.277 C 
ATOM     35  O   UNL     1      -7.149   8.124   0.074  0.00  0.00    -0.495 OA
ENDBRANCH   1  35
TORSDOF 7
