REMARK  Name = ZINC32536667
REMARK  8 active torsions:
REMARK  status: ('A' for Active; 'I' for Inactive)
REMARK    1  A    between atoms: C_1  and  C_2
REMARK    2  A    between atoms: C_4  and  O_28
REMARK    3  A    between atoms: C_5  and  C_27
REMARK    4  A    between atoms: C_7  and  S_8
REMARK    5  A    between atoms: S_8  and  C_11
REMARK    6  A    between atoms: C_18  and  N_20
REMARK    7  A    between atoms: N_20  and  C_21
REMARK    8  A    between atoms: O_28  and  C_29
REMARK                            x       y       z     vdW  Elec       q    Type
REMARK                         _______ _______ _______ _____ _____    ______ ____
ROOT
ATOM      1  C   UNL     1       2.168   1.181  -1.017  0.00  0.00    +0.144 C 
ATOM      2  C   UNL     1       1.643  -0.253  -0.764  0.00  0.00    +0.190 C 
ATOM      3  S   UNL     1      -0.055   0.046  -0.123  0.00  0.00    -0.031 S 
ATOM      4  O   UNL     1      -0.138  -0.439   1.210  0.00  0.00    -0.174 OA
ATOM      5  O   UNL     1      -0.999  -0.398  -1.088  0.00  0.00    -0.174 OA
ATOM      6  C   UNL     1      -0.050   1.888  -0.093  0.00  0.00    +0.152 C 
ATOM      7  C   UNL     1       1.480   2.168  -0.060  0.00  0.00    -0.024 C 
ENDROOT
BRANCH   1   8
ATOM      8  S   UNL     1       3.960   1.224  -0.739  0.00  0.00    +0.000 S 
ATOM      9  O   UNL     1       4.498   2.452  -1.209  0.00  0.00    -0.169 OA
ATOM     10  O   UNL     1       4.264   0.752   0.566  0.00  0.00    -0.169 OA
BRANCH   8  17
ATOM     11  C   UNL     1       3.967   1.457  -3.753  0.00  0.00    +0.046 C 
ATOM     12  C   UNL     1       4.574   0.197  -3.192  0.00  0.00    -0.022 A 
ATOM     13  C   UNL     1       5.088  -0.761  -4.045  0.00  0.00    +0.051 A 
ATOM     14  C   UNL     1       5.647  -1.920  -3.527  0.00  0.00    +0.123 A 
ATOM     15  C   UNL     1       5.688  -2.115  -2.154  0.00  0.00    -0.007 A 
ATOM     16  C   UNL     1       5.178  -1.152  -1.306  0.00  0.00    +0.034 A 
ATOM     17  C   UNL     1       4.616   0.001  -1.824  0.00  0.00    +0.092 A 
ATOM     18  C   UNL     1       6.295  -3.373  -1.589  0.00  0.00    +0.047 C 
BRANCH  14  19
ATOM     19  O   UNL     1       6.154  -2.864  -4.364  0.00  0.00    -0.495 OA
ATOM     20  C   UNL     1       6.079  -2.596  -5.766  0.00  0.00    +0.277 C 
ENDBRANCH  14  19
ENDBRANCH   8  17
ENDBRANCH   1   8
BRANCH   7  21
ATOM     21  N   UNL     1       1.741   3.546  -0.496  0.00  0.00    +0.385 N 
ATOM     22  H   UNL     1       2.753   3.610  -0.922  0.00  0.00    -0.085 HD
ATOM     23  H   UNL     1       1.004   3.836  -1.258  0.00  0.00    -0.085 HD
BRANCH  21  24
ATOM     24  C   UNL     1       1.645   4.482   0.632  0.00  0.00    -0.071 C 
ATOM     25  C   UNL     1       0.185   4.892   0.832  0.00  0.00    -0.016 C 
ATOM     26  C   UNL     1       0.085   5.867   2.007  0.00  0.00    -0.002 C 
ATOM     27  C   UNL     1       0.928   7.110   1.712  0.00  0.00    -0.000 C 
ATOM     28  C   UNL     1       2.389   6.699   1.512  0.00  0.00    -0.002 C 
ATOM     29  C   UNL     1       2.488   5.724   0.337  0.00  0.00    -0.016 C 
ENDBRANCH  21  24
ENDBRANCH   7  21
TORSDOF 5
