REMARK  Name = ZINC63588685
REMARK  6 active torsions:
REMARK  status: ('A' for Active; 'I' for Inactive)
REMARK    1  A    between atoms: C_4  and  N_7
REMARK    2  A    between atoms: N_9  and  C_10
REMARK    3  A    between atoms: C_10  and  C_11
REMARK    4  A    between atoms: C_11  and  C_12
REMARK    5  A    between atoms: N_21  and  C_22
REMARK    6  A    between atoms: C_22  and  C_24
REMARK                            x       y       z     vdW  Elec       q    Type
REMARK                         _______ _______ _______ _____ _____    ______ ____
ROOT
ATOM      1  N   UNL     1       3.264  -1.025  -0.064  0.00  0.00    -0.328 N 
ATOM      2  C   UNL     1       3.618  -2.343  -0.063  0.00  0.00    +0.194 C 
ATOM      3  N   UNL     1       4.928  -2.697  -0.204  0.00  0.00    -0.357 N 
ATOM      4  N   UNL     1       2.691  -3.278   0.075  0.00  0.00    -0.143 NA
ATOM      5  H   UNL     1       5.159  -3.579  -0.535  0.00  0.00    +0.162 HD
ATOM      6  H   UNL     1       2.638  -0.691   0.597  0.00  0.00    +0.169 HD
ENDROOT
BRANCH   1  10
ATOM      7  C   UNL     1       4.871   1.562  -2.906  0.00  0.00    +0.000 A 
ATOM      8  C   UNL     1       4.475   2.050  -1.674  0.00  0.00    +0.002 A 
ATOM      9  C   UNL     1       3.942   1.195  -0.730  0.00  0.00    +0.026 A 
ATOM     10  C   UNL     1       3.803  -0.156  -1.018  0.00  0.00    +0.042 A 
ATOM     11  C   UNL     1       4.202  -0.643  -2.256  0.00  0.00    +0.026 A 
ATOM     12  C   UNL     1       4.734   0.217  -3.196  0.00  0.00    +0.002 A 
ENDBRANCH   1  10
BRANCH   4  13
ATOM     13  C   UNL     1       1.411  -2.930   0.262  0.00  0.00    +0.270 C 
ATOM     14  O   UNL     1       1.086  -1.757   0.213  0.00  0.00    -0.268 OA
BRANCH  13  15
ATOM     15  C   UNL     1       0.391  -3.970   0.527  0.00  0.00    +0.039 A 
ATOM     16  C   UNL     1       0.776  -5.301   0.695  0.00  0.00    +0.014 A 
ATOM     17  C   UNL     1      -0.178  -6.266   0.942  0.00  0.00    +0.016 A 
ATOM     18  C   UNL     1      -1.515  -5.916   1.025  0.00  0.00    +0.018 A 
ATOM     19  C   UNL     1      -1.903  -4.597   0.859  0.00  0.00    +0.016 A 
ATOM     20  C   UNL     1      -0.957  -3.623   0.617  0.00  0.00    +0.014 A 
ATOM     21 BR   UNL     1      -2.817  -7.245   1.364  0.00  0.00    -0.050 Br
ENDBRANCH  13  15
ENDBRANCH   4  13
BRANCH   3  22
ATOM     22  C   UNL     1       5.986  -1.745   0.143  0.00  0.00    +0.120 C 
BRANCH  22  23
ATOM     23  C   UNL     1       7.348  -2.343  -0.214  0.00  0.00    +0.054 C 
BRANCH  23  24
ATOM     24  C   UNL     1       8.441  -1.418   0.255  0.00  0.00    -0.040 C 
ATOM     25  C   UNL     1       9.083  -1.454   1.445  0.00  0.00    -0.001 A 
ATOM     26  C   UNL     1       8.958  -2.331   2.615  0.00  0.00    +0.010 A 
ATOM     27  C   UNL     1       9.757  -2.114   3.685  0.00  0.00    +0.001 A 
ATOM     28  C   UNL     1      10.698  -1.075   3.704  0.00  0.00    +0.002 A 
ATOM     29  C   UNL     1      10.870  -0.229   2.667  0.00  0.00    +0.026 A 
ATOM     30  C   UNL     1      10.084  -0.365   1.490  0.00  0.00    +0.043 A 
ATOM     31  N   UNL     1      10.063   0.318   0.371  0.00  0.00    -0.380 N 
ATOM     32  C   UNL     1       9.048  -0.265  -0.514  0.00  0.00    +0.144 C 
ATOM     33  H   UNL     1      10.626   1.079   0.161  0.00  0.00    +0.160 HD
ENDBRANCH  23  24
ENDBRANCH  22  23
ENDBRANCH   3  22
TORSDOF 6
