REMARK  Name = ZINC22040044
REMARK  10 active torsions:
REMARK  status: ('A' for Active; 'I' for Inactive)
REMARK    1  A    between atoms: C_1  and  C_2
REMARK    2  A    between atoms: C_7  and  C_9
REMARK    3  A    between atoms: C_7  and  C_10
REMARK    4  A    between atoms: N_13  and  C_17
REMARK    5  A    between atoms: C_17  and  C_18
REMARK    6  A    between atoms: C_18  and  O_20
REMARK    7  A    between atoms: O_20  and  C_21
REMARK    8  A    between atoms: C_21  and  C_23
REMARK    9  A    between atoms: C_21  and  C_24
REMARK   10  A    between atoms: N_26  and  C_27
REMARK                            x       y       z     vdW  Elec       q    Type
REMARK                         _______ _______ _______ _____ _____    ______ ____
ROOT
ATOM      1  C   UNL     1       0.473  -3.371  -4.562  0.00  0.00    +0.238 C 
ENDROOT
BRANCH   1  13
ATOM      2  C   UNL     1      -0.163   1.361   0.677  0.00  0.00    +0.007 C 
ATOM      3  C   UNL     1      -0.073  -0.148   0.439  0.00  0.00    -0.011 C 
ATOM      4  C   UNL     1       0.564  -0.413  -0.928  0.00  0.00    +0.038 C 
ATOM      5  C   UNL     1       0.673  -1.916  -1.157  0.00  0.00    +0.113 C 
ATOM      6  C   UNL     1       1.508  -2.570  -0.061  0.00  0.00    +0.041 C 
ATOM      7  C   UNL     1       0.868  -2.297   1.302  0.00  0.00    -0.032 C 
ATOM      8  C   UNL     1       0.785  -0.787   1.533  0.00  0.00    +0.009 C 
ATOM      9  C   UNL     1      -0.540  -2.896   1.333  0.00  0.00    +0.011 C 
ATOM     10  C   UNL     1       1.718  -2.936   2.402  0.00  0.00    +0.011 C 
ATOM     11  C   UNL     1       1.268  -2.201  -2.516  0.00  0.00    +0.247 C 
ATOM     12  O   UNL     1       2.367  -1.883  -2.918  0.00  0.00    -0.273 OA
ATOM     13  N   UNL     1       0.320  -2.886  -3.188  0.00  0.00    -0.213 N 
ATOM     14  C   UNL     1      -0.778  -3.068  -2.444  0.00  0.00    +0.310 C 
ATOM     15  O   UNL     1      -1.767  -3.658  -2.832  0.00  0.00    -0.252 OA
ATOM     16  N   UNL     1      -0.662  -2.525  -1.217  0.00  0.00    -0.285 N 
ATOM     17  H   UNL     1      -1.329  -2.533  -0.513  0.00  0.00    +0.151 HD
ENDBRANCH   1  13
BRANCH   1  18
ATOM     18  C   UNL     1       1.060  -4.759  -4.543  0.00  0.00    +0.326 C 
ATOM     19  O   UNL     1       1.324  -5.289  -3.490  0.00  0.00    -0.249 OA
BRANCH  18  20
ATOM     20  O   UNL     1       1.290  -5.406  -5.697  0.00  0.00    -0.451 OA
BRANCH  20  21
ATOM     21  C   UNL     1       1.848  -6.718  -5.604  0.00  0.00    +0.259 C 
ATOM     22  C   UNL     1       0.719  -7.748  -5.520  0.00  0.00    +0.062 C 
BRANCH  21  23
ATOM     23  C   UNL     1       2.690  -6.994  -6.823  0.00  0.00    +0.258 C 
ATOM     24  O   UNL     1       2.801  -6.149  -7.686  0.00  0.00    -0.271 OA
ATOM     25  N   UNL     1       3.319  -8.178  -6.954  0.00  0.00    -0.281 N 
ATOM     26  H   UNL     1       3.181  -8.876  -6.295  0.00  0.00    +0.155 HD
BRANCH  25  27
ATOM     27  C   UNL     1       4.173  -8.401  -8.041  0.00  0.00    +0.052 A 
ATOM     28  C   UNL     1       3.961  -7.733  -9.240  0.00  0.00    +0.026 A 
ATOM     29  C   UNL     1       4.804  -7.955 -10.311  0.00  0.00    +0.022 A 
ATOM     30  C   UNL     1       5.860  -8.841 -10.191  0.00  0.00    +0.042 A 
ATOM     31  C   UNL     1       6.074  -9.508  -8.998  0.00  0.00    +0.041 A 
ATOM     32  C   UNL     1       5.237  -9.286  -7.921  0.00  0.00    +0.064 A 
ATOM     33 CL   UNL     1       5.511 -10.117  -6.421  0.00  0.00    -0.082 Cl
ATOM     34 CL   UNL     1       6.917  -9.117 -11.540  0.00  0.00    -0.083 Cl
ENDBRANCH  25  27
ENDBRANCH  21  23
ENDBRANCH  20  21
ENDBRANCH  18  20
ENDBRANCH   1  18
TORSDOF 6
