REMARK  Name = ZINC05500515
REMARK  2 active torsions:
REMARK  status: ('A' for Active; 'I' for Inactive)
REMARK    1  A    between atoms: C_2  and  C_3
REMARK    2  A    between atoms: C_10  and  O_12
REMARK                            x       y       z     vdW  Elec       q    Type
REMARK                         _______ _______ _______ _____ _____    ______ ____
ROOT
ATOM      1  C   UNL     1      -1.166   3.015  -1.159  0.00  0.00    +0.092 C 
ATOM      2  C   UNL     1      -2.630   3.043  -0.673  0.00  0.00    +0.019 C 
ATOM      3  C   UNL     1      -2.741   2.854   0.765  0.00  0.00    +0.001 C 
ATOM      4  C   UNL     1      -2.199   1.484   1.222  0.00  0.00    +0.000 C 
ATOM      5  C   UNL     1      -0.701   1.566   1.300  0.00  0.00    +0.003 C 
ATOM      6  C   UNL     1      -0.013   1.086   0.008  0.00  0.00    +0.032 C 
ATOM      7  C   UNL     1      -0.725   1.580  -1.265  0.00  0.00    +0.129 C 
ENDROOT
BRANCH   1   9
ATOM      8  C   UNL     1      -0.985   4.179  -3.528  0.00  0.00    +0.004 C 
ATOM      9  C   UNL     1      -1.065   3.663  -2.477  0.00  0.00    -0.100 C 
ENDBRANCH   1   9
BRANCH   7  10
ATOM     10  O   UNL     1       0.167   1.452  -2.374  0.00  0.00    -0.391 OA
ATOM     11  H   UNL     1       0.462   0.545  -2.539  0.00  0.00    +0.210 HD
ENDBRANCH   7  10
TORSDOF 2
