REMARK  Name = ZINC02268753
REMARK  9 active torsions:
REMARK  status: ('A' for Active; 'I' for Inactive)
REMARK    1  A    between atoms: C_1  and  C_2
REMARK    2  A    between atoms: C_2  and  O_3
REMARK    3  A    between atoms: O_3  and  C_4
REMARK    4  A    between atoms: C_7  and  C_10
REMARK    5  A    between atoms: C_11  and  C_28
REMARK    6  A    between atoms: C_12  and  C_21
REMARK    7  A    between atoms: N_29  and  C_30
REMARK    8  A    between atoms: C_30  and  C_31
REMARK    9  A    between atoms: C_31  and  C_32
REMARK                            x       y       z     vdW  Elec       q    Type
REMARK                         _______ _______ _______ _____ _____    ______ ____
ROOT
ATOM      1  C   UNL     1       0.976  -6.438  -2.028  0.00  0.00    +0.141 C 
ATOM      2  C   UNL     1       1.464  -6.799  -3.237  0.00  0.00    +0.023 C 
ATOM      3  C   UNL     1       1.516  -8.241  -3.659  0.00  0.00    +0.087 C 
ATOM      4  C   UNL     1       1.367  -9.140  -2.462  0.00  0.00    +0.007 A 
ATOM      5  C   UNL     1       1.728 -10.472  -2.561  0.00  0.00    +0.008 A 
ATOM      6  C   UNL     1       1.596 -11.311  -1.470  0.00  0.00    +0.001 A 
ATOM      7  C   UNL     1       1.104 -10.820  -0.275  0.00  0.00    +0.004 A 
ATOM      8  C   UNL     1       0.743  -9.492  -0.170  0.00  0.00    +0.046 A 
ATOM      9  C   UNL     1       0.873  -8.646  -1.265  0.00  0.00    +0.133 A 
ATOM     10  O   UNL     1       0.518  -7.344  -1.144  0.00  0.00    -0.455 OA
ENDROOT
BRANCH   3  11
ATOM     11  C   UNL     1       0.396  -8.517  -4.629  0.00  0.00    -0.035 A 
ATOM     12  C   UNL     1      -0.917  -8.321  -4.242  0.00  0.00    +0.007 A 
ATOM     13  C   UNL     1      -1.945  -8.573  -5.131  0.00  0.00    +0.038 A 
ATOM     14  C   UNL     1      -1.660  -9.022  -6.409  0.00  0.00    +0.123 A 
ATOM     15  C   UNL     1      -0.345  -9.217  -6.796  0.00  0.00    +0.038 A 
ATOM     16  C   UNL     1       0.682  -8.959  -5.907  0.00  0.00    +0.007 A 
ATOM     17  F   UNL     1      -2.664  -9.269  -7.279  0.00  0.00    -0.205 F 
ENDBRANCH   3  11
BRANCH   1  21
ATOM     18  C   UNL     1       0.898  -2.323  -0.983  0.00  0.00    +0.121 A 
ATOM     19  C   UNL     1      -0.265  -3.079  -0.907  0.00  0.00    +0.046 A 
ATOM     20  C   UNL     1      -0.245  -4.414  -1.245  0.00  0.00    +0.015 A 
ATOM     21  C   UNL     1       0.949  -5.009  -1.665  0.00  0.00    +0.018 A 
ATOM     22  C   UNL     1       2.117  -4.245  -1.740  0.00  0.00    +0.015 A 
ATOM     23  C   UNL     1       2.086  -2.909  -1.405  0.00  0.00    +0.046 A 
BRANCH  18  24
ATOM     24  O   UNL     1       0.874  -1.008  -0.649  0.00  0.00    -0.492 OA
BRANCH  24  26
ATOM     25  C   UNL     1      -0.212   1.014   0.108  0.00  0.00    +0.048 C 
ATOM     26  C   UNL     1      -0.380  -0.470  -0.223  0.00  0.00    +0.225 C 
ENDBRANCH  24  26
ENDBRANCH  18  24
ENDBRANCH   1  21
BRANCH   2  27
ATOM     27  C   UNL     1       1.935  -5.804  -4.118  0.00  0.00    +0.086 C 
ATOM     28  N   UNL     1       2.505  -6.143  -5.239  0.00  0.00    -0.390 N 
ATOM     29  H   UNL     1       2.542  -7.075  -5.502  0.00  0.00    +0.159 HD
BRANCH  28  30
ATOM     30  C   UNL     1       3.090  -5.114  -6.103  0.00  0.00    +0.117 C 
BRANCH  30  31
ATOM     31  C   UNL     1       4.599  -5.342  -6.217  0.00  0.00    +0.058 C 
BRANCH  31  32
ATOM     32  C   UNL     1       5.195  -4.309  -7.138  0.00  0.00    -0.021 A 
ATOM     33  C   UNL     1       5.623  -2.957  -6.771  0.00  0.00    +0.003 A 
ATOM     34  C   UNL     1       5.630  -2.232  -5.577  0.00  0.00    +0.010 A 
ATOM     35  C   UNL     1       6.111  -0.953  -5.564  0.00  0.00    +0.001 A 
ATOM     36  C   UNL     1       6.591  -0.368  -6.727  0.00  0.00    +0.002 A 
ATOM     37  C   UNL     1       6.593  -1.065  -7.915  0.00  0.00    +0.026 A 
ATOM     38  C   UNL     1       6.109  -2.369  -7.952  0.00  0.00    +0.047 A 
ATOM     39  N   UNL     1       5.981  -3.304  -8.954  0.00  0.00    -0.360 N 
ATOM     40  C   UNL     1       5.439  -4.455  -8.450  0.00  0.00    +0.087 A 
ATOM     41  H   UNL     1       6.239  -3.169  -9.880  0.00  0.00    +0.165 HD
ENDBRANCH  31  32
ENDBRANCH  30  31
ENDBRANCH  28  30
ENDBRANCH   2  27
TORSDOF 8
