REMARK  Name = ZINC01462007
REMARK  3 active torsions:
REMARK  status: ('A' for Active; 'I' for Inactive)
REMARK    1  A    between atoms: C_1  and  C_2
REMARK    2  A    between atoms: C_2  and  C_3
REMARK    3  A    between atoms: C_3  and  N_4
REMARK                            x       y       z     vdW  Elec       q    Type
REMARK                         _______ _______ _______ _____ _____    ______ ____
ROOT
ATOM      1  N   UNL     1       0.756  -1.962  -1.294  0.00  0.00    -0.267 N 
ATOM      2  C   UNL     1       1.730  -2.735  -0.672  0.00  0.00    +0.044 A 
ATOM      3  C   UNL     1       2.874  -2.385   0.034  0.00  0.00    +0.024 A 
ATOM      4  C   UNL     1       3.692  -3.365   0.561  0.00  0.00    +0.002 A 
ATOM      5  C   UNL     1       3.385  -4.705   0.395  0.00  0.00    +0.001 A 
ATOM      6  C   UNL     1       2.253  -5.074  -0.303  0.00  0.00    +0.010 A 
ATOM      7  C   UNL     1       1.422  -4.093  -0.839  0.00  0.00    +0.010 A 
ATOM      8  C   UNL     1       0.168  -4.146  -1.619  0.00  0.00    +0.065 C 
ATOM      9  C   UNL     1      -0.520  -5.267  -2.026  0.00  0.00    +0.092 C 
ATOM     10  C   UNL     1      -0.141  -6.709  -1.935  0.00  0.00    +0.277 C 
ATOM     11  O   UNL     1       0.915  -7.068  -1.445  0.00  0.00    -0.267 OA
ATOM     12  N   UNL     1      -1.014  -7.566  -2.415  0.00  0.00    -0.154 NA
ATOM     13  C   UNL     1      -2.164  -7.187  -2.950  0.00  0.00    +0.154 C 
ATOM     14  S   UNL     1      -2.124  -5.408  -2.806  0.00  0.00    -0.051 S 
ATOM     15  N   UNL     1      -3.149  -7.971  -3.480  0.00  0.00    -0.311 N 
ATOM     16  C   UNL     1      -4.366  -7.367  -4.040  0.00  0.00    +0.107 C 
ATOM     17  C   UNL     1      -4.561  -7.884  -5.468  0.00  0.00    +0.019 C 
ATOM     18  C   UNL     1      -4.566  -9.415  -5.456  0.00  0.00    +0.003 C 
ATOM     19  C   UNL     1      -3.221  -9.927  -4.936  0.00  0.00    +0.019 C 
ATOM     20  C   UNL     1      -3.009  -9.433  -3.507  0.00  0.00    +0.107 C 
ATOM     21  C   UNL     1      -0.190  -2.730  -1.863  0.00  0.00    +0.253 C 
ATOM     22  O   UNL     1      -1.165  -2.332  -2.471  0.00  0.00    -0.270 OA
ENDROOT
BRANCH   1  23
ATOM     23  C   UNL     1       0.757  -0.498  -1.321  0.00  0.00    +0.114 C 
BRANCH  23  25
ATOM     24  C   UNL     1       0.001   1.565  -0.132  0.00  0.00    +0.005 C 
ATOM     25  C   UNL     1      -0.000   0.036  -0.103  0.00  0.00    +0.016 C 
ENDBRANCH  23  25
ENDBRANCH   1  23
TORSDOF 2
