REMARK  Name = ZINC36206239
REMARK  12 active torsions:
REMARK  status: ('A' for Active; 'I' for Inactive)
REMARK    1  A    between atoms: C_1  and  O_2
REMARK    2  A    between atoms: O_2  and  C_3
REMARK    3  A    between atoms: C_3  and  C_4
REMARK    4  A    between atoms: C_4  and  N_5
REMARK    5  A    between atoms: N_5  and  C_6
REMARK    6  A    between atoms: N_5  and  C_25
REMARK    7  A    between atoms: C_6  and  C_7
REMARK    8  A    between atoms: C_13  and  C_18
REMARK    9  A    between atoms: C_25  and  C_26
REMARK   10  A    between atoms: C_26  and  C_28
REMARK   11  A    between atoms: C_26  and  O_35
REMARK   12  A    between atoms: C_28  and  C_29
REMARK                            x       y       z     vdW  Elec       q    Type
REMARK                         _______ _______ _______ _____ _____    ______ ____
ROOT
ATOM      1  C   UNL     1       0.274  -3.456   0.689  0.00  0.00    -0.003 C 
ENDROOT
BRANCH   1   2
ATOM      2  C   UNL     1       1.368  -3.100  -0.285  0.00  0.00    +0.094 A 
ATOM      3  N   UNL     1       2.044  -4.092  -0.920  0.00  0.00    -0.312 N 
ATOM      4  H   UNL     1       1.813  -5.016  -0.739  0.00  0.00    +0.170 HD
ATOM      5  C   UNL     1       3.027  -3.817  -1.798  0.00  0.00    +0.260 A 
ATOM      6  O   UNL     1       3.623  -4.718  -2.361  0.00  0.00    -0.267 OA
ATOM      7  C   UNL     1       3.360  -2.450  -2.060  0.00  0.00    +0.080 A 
ATOM      8  C   UNL     1       4.372  -1.902  -2.956  0.00  0.00    +0.006 A 
ATOM      9  C   UNL     1       4.507  -0.557  -3.041  0.00  0.00    +0.056 A 
ATOM     10  S   UNL     1       3.272   0.055  -1.911  0.00  0.00    -0.076 S 
ATOM     11  C   UNL     1       2.608  -1.494  -1.356  0.00  0.00    +0.116 A 
ATOM     12  N   UNL     1       1.646  -1.844  -0.507  0.00  0.00    -0.229 NA
BRANCH   8  13
ATOM     13  C   UNL     1       5.235  -2.800  -3.759  0.00  0.00    +0.019 A 
ATOM     14  C   UNL     1       6.608  -2.846  -3.523  0.00  0.00    +0.011 A 
ATOM     15  C   UNL     1       7.408  -3.684  -4.273  0.00  0.00    +0.001 A 
ATOM     16  C   UNL     1       6.850  -4.480  -5.258  0.00  0.00    +0.003 A 
ATOM     17  C   UNL     1       5.489  -4.440  -5.498  0.00  0.00    +0.039 A 
ATOM     18  C   UNL     1       4.676  -3.609  -4.750  0.00  0.00    +0.131 A 
ATOM     19  F   UNL     1       3.346  -3.575  -4.982  0.00  0.00    -0.205 F 
ENDBRANCH   8  13
ENDBRANCH   1   2
BRANCH   1  20
ATOM     20  N   UNL     1      -0.310  -2.226   1.240  0.00  0.00    +0.388 N 
ATOM     21  H   UNL     1       0.421  -1.657   1.641  0.00  0.00    -0.081 HD
BRANCH  20  22
ATOM     22  C   UNL     1      -0.979  -1.478   0.167  0.00  0.00    -0.050 C 
BRANCH  22  23
ATOM     23  C   UNL     1      -1.448  -0.125   0.705  0.00  0.00    +0.141 C 
BRANCH  23  25
ATOM     24  C   UNL     1      -0.642   1.938   1.623  0.00  0.00    +0.193 C 
ATOM     25  O   UNL     1      -0.314   0.648   1.104  0.00  0.00    -0.385 OA
ENDBRANCH  23  25
ENDBRANCH  22  23
ENDBRANCH  20  22
BRANCH  20  26
ATOM     26  C   UNL     1      -1.288  -2.572   2.280  0.00  0.00    -0.046 C 
BRANCH  26  27
ATOM     27  C   UNL     1      -0.560  -3.166   3.488  0.00  0.00    +0.102 C 
BRANCH  27  28
ATOM     28  O   UNL     1      -0.031  -4.448   3.142  0.00  0.00    -0.393 OA
ATOM     29  H   UNL     1      -0.702  -5.089   2.870  0.00  0.00    +0.210 HD
ENDBRANCH  27  28
BRANCH  27  30
ATOM     30  C   UNL     1      -1.541  -3.315   4.652  0.00  0.00    +0.064 C 
BRANCH  30  31
ATOM     31  C   UNL     1      -0.799  -3.784   5.877  0.00  0.00    -0.045 A 
ATOM     32  C   UNL     1      -0.653  -5.137   6.122  0.00  0.00    +0.004 A 
ATOM     33  C   UNL     1       0.027  -5.567   7.245  0.00  0.00    +0.000 A 
ATOM     34  C   UNL     1       0.562  -4.645   8.124  0.00  0.00    +0.000 A 
ATOM     35  C   UNL     1       0.418  -3.292   7.880  0.00  0.00    +0.000 A 
ATOM     36  C   UNL     1      -0.259  -2.862   6.754  0.00  0.00    +0.004 A 
ENDBRANCH  30  31
ENDBRANCH  27  30
ENDBRANCH  26  27
ENDBRANCH  20  26
ENDBRANCH   1  20
TORSDOF 11
