REMARK  Name = ZINC08921211
REMARK  8 active torsions:
REMARK  status: ('A' for Active; 'I' for Inactive)
REMARK    1  A    between atoms: C_4  and  C_7
REMARK    2  A    between atoms: C_7  and  C_8
REMARK    3  A    between atoms: C_8  and  N_9
REMARK    4  A    between atoms: C_16  and  C_19
REMARK    5  A    between atoms: C_16  and  O_33
REMARK    6  A    between atoms: C_19  and  C_20
REMARK    7  A    between atoms: C_20  and  C_22
REMARK    8  A    between atoms: C_23  and  C_24
REMARK                            x       y       z     vdW  Elec       q    Type
REMARK                         _______ _______ _______ _____ _____    ______ ____
ROOT
ATOM      1  N   UNL     1      -1.085   2.287   0.019  0.00  0.00    -0.268 N 
ATOM      2  C   UNL     1      -0.017   1.389   0.010  0.00  0.00    +0.043 A 
ATOM      3  C   UNL     1       0.002  -0.004   0.002  0.00  0.00    +0.025 A 
ATOM      4  C   UNL     1       1.204  -0.680  -0.013  0.00  0.00    +0.017 A 
ATOM      5  C   UNL     1       2.399   0.017  -0.022  0.00  0.00    +0.018 A 
ATOM      6  C   UNL     1       2.388   1.402  -0.014  0.00  0.00    +0.024 A 
ATOM      7  C   UNL     1       1.189   2.079   0.002  0.00  0.00    +0.016 A 
ATOM      8  C   UNL     1       0.839   3.549   0.012  0.00  0.00    +0.175 C 
ATOM      9  C   UNL     1      -0.675   3.567   0.026  0.00  0.00    +0.257 C 
ATOM     10  O   UNL     1      -1.383   4.551   0.037  0.00  0.00    -0.272 OA
ATOM     11 BR   UNL     1       4.043  -0.918  -0.044  0.00  0.00    -0.050 Br
ENDROOT
BRANCH   8  12
ATOM     12  O   UNL     1       1.336   4.190  -1.164  0.00  0.00    -0.374 OA
ATOM     13  H   UNL     1       1.140   5.136  -1.209  0.00  0.00    +0.211 HD
ENDBRANCH   8  12
BRANCH   1  14
ATOM     14  C   UNL     1      -2.493   1.881   0.024  0.00  0.00    +0.118 C 
BRANCH  14  15
ATOM     15  C   UNL     1      -2.976   1.733   1.468  0.00  0.00    +0.054 C 
BRANCH  15  19
ATOM     16  C   UNL     1      -7.081   0.550   1.482  0.00  0.00    +0.000 A 
ATOM     17  C   UNL     1      -6.085  -0.409   1.472  0.00  0.00    +0.000 A 
ATOM     18  C   UNL     1      -4.757  -0.026   1.467  0.00  0.00    +0.004 A 
ATOM     19  C   UNL     1      -4.424   1.315   1.472  0.00  0.00    -0.046 A 
ATOM     20  C   UNL     1      -5.420   2.274   1.488  0.00  0.00    +0.004 A 
ATOM     21  C   UNL     1      -6.748   1.891   1.487  0.00  0.00    +0.000 A 
ENDBRANCH  15  19
ENDBRANCH  14  15
ENDBRANCH   1  14
BRANCH   8  22
ATOM     22  C   UNL     1       1.398   4.224   1.266  0.00  0.00    +0.128 C 
BRANCH  22  23
ATOM     23  C   UNL     1       0.933   5.657   1.315  0.00  0.00    +0.160 C 
ATOM     24  O   UNL     1       0.223   6.095   0.432  0.00  0.00    -0.293 OA
BRANCH  23  25
ATOM     25  C   UNL     1       1.321   6.487   2.384  0.00  0.00    +0.047 C 
ATOM     26  C   UNL     1       0.902   7.775   2.428  0.00  0.00    +0.011 C 
BRANCH  26  27
ATOM     27  C   UNL     1       1.307   8.641   3.542  0.00  0.00    -0.021 A 
ATOM     28  C   UNL     1       2.120   8.136   4.564  0.00  0.00    +0.012 A 
ATOM     29  C   UNL     1       2.503   8.952   5.605  0.00  0.00    +0.050 A 
ATOM     30  C   UNL     1       2.075  10.273   5.652  0.00  0.00    +0.166 A 
ATOM     31  C   UNL     1       1.260  10.782   4.640  0.00  0.00    +0.167 A 
ATOM     32  C   UNL     1       0.876   9.973   3.590  0.00  0.00    +0.057 A 
ATOM     33  O   UNL     1       0.984  12.090   4.919  0.00  0.00    -0.453 OA
ATOM     34  C   UNL     1       1.969  12.491   5.890  0.00  0.00    +0.466 C 
ATOM     35  O   UNL     1       2.307  11.263   6.561  0.00  0.00    -0.453 OA
ENDBRANCH  26  27
ENDBRANCH  23  25
ENDBRANCH  22  23
ENDBRANCH   8  22
TORSDOF 8
