REMARK  Name = ZINC56761402
REMARK  6 active torsions:
REMARK  status: ('A' for Active; 'I' for Inactive)
REMARK    1  A    between atoms: C_1  and  C_2
REMARK    2  A    between atoms: C_2  and  C_4
REMARK    3  A    between atoms: C_2  and  N_12
REMARK    4  A    between atoms: C_4  and  C_5
REMARK    5  A    between atoms: C_8  and  O_11
REMARK    6  A    between atoms: N_18  and  C_21
REMARK                            x       y       z     vdW  Elec       q    Type
REMARK                         _______ _______ _______ _____ _____    ______ ____
ROOT
ATOM      1  N   UNL     1      -1.420  -0.334   2.340  0.00  0.00    -0.296 N 
ATOM      2  C   UNL     1      -2.029  -0.655   1.181  0.00  0.00    +0.303 C 
ATOM      3  O   UNL     1      -1.472  -0.439   0.121  0.00  0.00    -0.253 OA
ATOM      4  N   UNL     1      -3.254  -1.216   1.196  0.00  0.00    -0.283 N 
ATOM      5  C   UNL     1      -3.881  -1.678  -0.050  0.00  0.00    +0.128 C 
ATOM      6  C   UNL     1      -4.262  -3.155   0.111  0.00  0.00    +0.124 C 
ATOM      7  N   UNL     1      -4.995  -3.315   1.375  0.00  0.00    -0.325 N 
ATOM      8  C   UNL     1      -4.369  -2.853   2.621  0.00  0.00    +0.124 C 
ATOM      9  C   UNL     1      -3.985  -1.381   2.460  0.00  0.00    +0.128 C 
ATOM     10  H   UNL     1      -1.892  -0.438   3.180  0.00  0.00    +0.151 HD
ENDROOT
BRANCH   7  11
ATOM     11  C   UNL     1      -6.267  -3.897   1.391  0.00  0.00    +0.065 A 
ATOM     12  C   UNL     1      -6.403  -5.268   1.556  0.00  0.00    +0.026 A 
ATOM     13  C   UNL     1      -7.661  -5.840   1.571  0.00  0.00    +0.002 A 
ATOM     14  C   UNL     1      -8.784  -5.048   1.423  0.00  0.00    +0.003 A 
ATOM     15  C   UNL     1      -8.654  -3.681   1.258  0.00  0.00    +0.040 A 
ATOM     16  C   UNL     1      -7.399  -3.101   1.247  0.00  0.00    +0.144 A 
ATOM     17  F   UNL     1      -7.272  -1.765   1.092  0.00  0.00    -0.204 F 
ENDBRANCH   7  11
BRANCH   1  19
ATOM     18  C   UNL     1       0.931  -1.006   2.313  0.00  0.00    +0.028 C 
ATOM     19  C   UNL     1      -0.045   0.172   2.329  0.00  0.00    +0.076 C 
BRANCH  19  20
ATOM     20  C   UNL     1       0.197   1.017   3.581  0.00  0.00    +0.057 C 
BRANCH  20  21
ATOM     21  C   UNL     1      -0.679   2.243   3.536  0.00  0.00    -0.045 A 
ATOM     22  C   UNL     1      -0.216   3.401   2.939  0.00  0.00    +0.007 A 
ATOM     23  C   UNL     1      -1.016   4.526   2.897  0.00  0.00    +0.045 A 
ATOM     24  C   UNL     1      -2.287   4.493   3.455  0.00  0.00    +0.117 A 
ATOM     25  C   UNL     1      -2.749   3.330   4.053  0.00  0.00    +0.045 A 
ATOM     26  C   UNL     1      -1.946   2.206   4.088  0.00  0.00    +0.007 A 
BRANCH  24  27
ATOM     27  O   UNL     1      -3.076   5.598   3.415  0.00  0.00    -0.507 OA
ATOM     28  H   UNL     1      -3.637   5.653   2.630  0.00  0.00    +0.292 HD
ENDBRANCH  24  27
ENDBRANCH  20  21
ENDBRANCH  19  20
ENDBRANCH   1  19
TORSDOF 5
