REMARK  Name = ZINC49897333
REMARK  6 active torsions:
REMARK  status: ('A' for Active; 'I' for Inactive)
REMARK    1  A    between atoms: C_1  and  C_2
REMARK    2  A    between atoms: C_4  and  C_19
REMARK    3  A    between atoms: C_5  and  O_9
REMARK    4  A    between atoms: C_7  and  C_8
REMARK    5  A    between atoms: O_9  and  C_10
REMARK    6  A    between atoms: C_10  and  C_11
REMARK                            x       y       z     vdW  Elec       q    Type
REMARK                         _______ _______ _______ _____ _____    ______ ____
ROOT
ATOM      1  O   UNL     1       0.057  -4.129  -0.021  0.00  0.00    -0.482 OA
ENDROOT
BRANCH   1   6
ATOM      2  C   UNL     1      -0.018   1.503   0.010  0.00  0.00    +0.044 C 
ATOM      3  C   UNL     1       0.002  -0.004   0.002  0.00  0.00    -0.047 A 
ATOM      4  C   UNL     1       0.006  -0.688  -1.200  0.00  0.00    +0.010 A 
ATOM      5  C   UNL     1       0.024  -2.069  -1.210  0.00  0.00    -0.009 A 
ATOM      6  C   UNL     1       0.039  -2.770  -0.013  0.00  0.00    +0.124 A 
ATOM      7  C   UNL     1       0.036  -2.082   1.191  0.00  0.00    +0.049 A 
ATOM      8  C   UNL     1       0.023  -0.701   1.196  0.00  0.00    -0.044 A 
ATOM      9  C   UNL     1       0.025   0.048   2.504  0.00  0.00    +0.044 C 
ATOM     10  C   UNL     1       0.027  -2.813  -2.521  0.00  0.00    +0.047 C 
ENDBRANCH   1   6
BRANCH   1  11
ATOM     11  C   UNL     1       0.072  -4.785   1.249  0.00  0.00    +0.325 C 
BRANCH  11  12
ATOM     12  C   UNL     1       0.090  -6.277   1.043  0.00  0.00    +0.258 C 
ATOM     13  O   UNL     1       0.090  -6.735  -0.080  0.00  0.00    -0.271 OA
ATOM     14  N   UNL     1       0.106  -7.104   2.108  0.00  0.00    -0.256 N 
ATOM     15  C   UNL     1       0.129  -8.542   1.910  0.00  0.00    +0.126 C 
ATOM     16  C   UNL     1       0.644  -9.278   3.174  0.00  0.00    +0.095 C 
ATOM     17  S   UNL     1       0.205  -8.011   4.439  0.00  0.00    -0.101 S 
ATOM     18  C   UNL     1       0.106  -6.596   3.356  0.00  0.00    +0.116 C 
ATOM     19  S   UNL     1       0.026  -4.947   3.806  0.00  0.00    -0.028 S 
ENDBRANCH  11  12
ENDBRANCH   1  11
TORSDOF 3
