REMARK  Name = ZINC11990766
REMARK  6 active torsions:
REMARK  status: ('A' for Active; 'I' for Inactive)
REMARK    1  A    between atoms: C_1  and  C_2
REMARK    2  A    between atoms: N_5  and  C_11
REMARK    3  A    between atoms: C_7  and  C_10
REMARK    4  A    between atoms: C_12  and  C_22
REMARK    5  A    between atoms: N_26  and  C_30
REMARK    6  A    between atoms: C_30  and  C_31
REMARK                            x       y       z     vdW  Elec       q    Type
REMARK                         _______ _______ _______ _____ _____    ______ ____
ROOT
ATOM      1  C   UNL     1      -4.956   0.758  -5.465  0.00  0.00    +0.136 A 
ATOM      2  C   UNL     1      -4.034   1.472  -4.663  0.00  0.00    +0.081 A 
ATOM      3  C   UNL     1      -3.499   2.680  -5.170  0.00  0.00    +0.267 A 
ATOM      4  O   UNL     1      -2.699   3.326  -4.515  0.00  0.00    -0.267 OA
ATOM      5  N   UNL     1      -3.889   3.106  -6.390  0.00  0.00    -0.268 N 
ATOM      6  C   UNL     1      -3.379   4.269  -6.886  0.00  0.00    +0.096 A 
ATOM      7  C   UNL     1      -3.748   4.723  -8.104  0.00  0.00    +0.018 A 
ATOM      8  C   UNL     1      -4.667   3.999  -8.876  0.00  0.00    +0.005 A 
ATOM      9  C   UNL     1      -5.184   2.835  -8.389  0.00  0.00    +0.047 A 
ATOM     10  C   UNL     1      -4.787   2.377  -7.120  0.00  0.00    +0.142 A 
ATOM     11  N   UNL     1      -5.297   1.237  -6.652  0.00  0.00    -0.214 NA
ENDROOT
BRANCH   1  15
ATOM     12  C   UNL     1      -8.267  -2.685  -6.281  0.00  0.00    +0.039 C 
ATOM     13  C   UNL     1      -7.192  -2.163  -5.326  0.00  0.00    +0.133 C 
ATOM     14  C   UNL     1      -6.581  -0.880  -5.896  0.00  0.00    +0.138 C 
ATOM     15  N   UNL     1      -5.497  -0.426  -5.013  0.00  0.00    -0.310 N 
ATOM     16  C   UNL     1      -4.463  -1.462  -4.883  0.00  0.00    +0.138 C 
ATOM     17  C   UNL     1      -5.095  -2.739  -4.322  0.00  0.00    +0.133 C 
ATOM     18  O   UNL     1      -6.167  -3.148  -5.176  0.00  0.00    -0.371 OA
ATOM     19  C   UNL     1      -5.636  -2.467  -2.918  0.00  0.00    +0.039 C 
ENDBRANCH   1  15
BRANCH   2  20
ATOM     20  C   UNL     1      -3.653   0.987  -3.390  0.00  0.00    +0.037 C 
ATOM     21  C   UNL     1      -4.603   0.745  -2.440  0.00  0.00    +0.077 C 
ATOM     22  C   UNL     1      -4.462   0.170  -1.145  0.00  0.00    +0.258 C 
ATOM     23  O   UNL     1      -3.373  -0.190  -0.735  0.00  0.00    -0.269 OA
ATOM     24  N   UNL     1      -5.547   0.036  -0.402  0.00  0.00    -0.253 N 
ATOM     25  C   UNL     1      -6.754   0.441  -0.855  0.00  0.00    +0.121 C 
ATOM     26  S   UNL     1      -8.274   0.370  -0.071  0.00  0.00    -0.027 S 
ATOM     27  S   UNL     1      -6.360   1.069  -2.481  0.00  0.00    -0.061 S 
BRANCH  24  28
ATOM     28  C   UNL     1      -5.438  -0.556   0.934  0.00  0.00    +0.146 C 
BRANCH  28  29
ATOM     29  C   UNL     1      -5.629  -2.071   0.838  0.00  0.00    +0.136 C 
ATOM     30  C   UNL     1      -5.524  -2.703   2.239  0.00  0.00    +0.035 C 
ATOM     31  C   UNL     1      -6.883  -3.418   2.436  0.00  0.00    +0.031 C 
ATOM     32  C   UNL     1      -7.376  -3.585   0.976  0.00  0.00    +0.160 C 
ATOM     33  O   UNL     1      -6.940  -2.368   0.329  0.00  0.00    -0.375 OA
ENDBRANCH  28  29
ENDBRANCH  24  28
ENDBRANCH   2  20
TORSDOF 4
