REMARK  Name = ZINC67457784
REMARK  8 active torsions:
REMARK  status: ('A' for Active; 'I' for Inactive)
REMARK    1  A    between atoms: C_1  and  C_2
REMARK    2  A    between atoms: C_2  and  C_4
REMARK    3  A    between atoms: C_2  and  N_10
REMARK    4  A    between atoms: C_4  and  C_5
REMARK    5  A    between atoms: N_13  and  N_14
REMARK    6  A    between atoms: C_15  and  C_17
REMARK    7  A    between atoms: C_22  and  O_23
REMARK    8  A    between atoms: O_23  and  C_24
REMARK                            x       y       z     vdW  Elec       q    Type
REMARK                         _______ _______ _______ _____ _____    ______ ____
ROOT
ATOM      1  N   UNL     1       0.711  -0.489   1.189  0.00  0.00    -0.295 N 
ATOM      2  C   UNL     1       2.054  -0.600   1.174  0.00  0.00    +0.316 C 
ATOM      3  O   UNL     1       2.677  -0.297   0.175  0.00  0.00    -0.251 OA
ATOM      4  N   UNL     1       2.706  -1.046   2.266  0.00  0.00    -0.218 N 
ATOM      5  H   UNL     1       0.213  -0.731   1.986  0.00  0.00    +0.151 HD
ATOM      6  H   UNL     1       3.672  -1.126   2.255  0.00  0.00    +0.174 HD
ENDROOT
BRANCH   4   7
ATOM      7  N   UNL     1       1.987  -1.396   3.416  0.00  0.00    -0.229 N 
ATOM      8  C   UNL     1       2.639  -1.842   4.508  0.00  0.00    +0.264 C 
ATOM      9  O   UNL     1       3.851  -1.942   4.495  0.00  0.00    -0.269 OA
ATOM     10  H   UNL     1       1.020  -1.316   3.427  0.00  0.00    +0.173 HD
BRANCH   8  11
ATOM     11  C   UNL     1       1.882  -2.210   5.720  0.00  0.00    +0.080 A 
ATOM     12  C   UNL     1       0.489  -2.103   5.738  0.00  0.00    +0.017 A 
ATOM     13  C   UNL     1      -0.212  -2.448   6.873  0.00  0.00    +0.001 A 
ATOM     14  C   UNL     1       0.459  -2.902   7.998  0.00  0.00    +0.004 A 
ATOM     15  C   UNL     1       1.835  -3.013   7.993  0.00  0.00    +0.046 A 
ATOM     16  C   UNL     1       2.556  -2.675   6.858  0.00  0.00    +0.132 A 
BRANCH  16  17
ATOM     17  O   UNL     1       3.908  -2.788   6.850  0.00  0.00    -0.494 OA
ATOM     18  C   UNL     1       4.525  -3.269   8.046  0.00  0.00    +0.277 C 
ENDBRANCH  16  17
ENDBRANCH   8  11
ENDBRANCH   4   7
BRANCH   1  20
ATOM     19  C   UNL     1      -0.019   1.526   0.010  0.00  0.00    +0.028 C 
ATOM     20  C   UNL     1       0.002  -0.004   0.002  0.00  0.00    +0.076 C 
BRANCH  20  21
ATOM     21  C   UNL     1      -1.433  -0.534   0.013  0.00  0.00    +0.064 C 
BRANCH  21  22
ATOM     22  C   UNL     1      -1.416  -2.035  -0.119  0.00  0.00    -0.008 A 
ATOM     23  C   UNL     1      -1.370  -2.977   0.854  0.00  0.00    +0.011 A 
ATOM     24  C   UNL     1      -1.363  -4.312   0.496  0.00  0.00    +0.008 A 
ATOM     25  C   UNL     1      -1.403  -4.639  -0.819  0.00  0.00    +0.045 A 
ATOM     26  S   UNL     1      -1.459  -3.034  -1.598  0.00  0.00    -0.102 S 
ENDBRANCH  21  22
ENDBRANCH  20  21
ENDBRANCH   1  20
TORSDOF 6
