REMARK  Name = ZINC04952455
REMARK  5 active torsions:
REMARK  status: ('A' for Active; 'I' for Inactive)
REMARK    1  A    between atoms: C_1  and  C_2
REMARK    2  A    between atoms: C_5  and  C_8
REMARK    3  A    between atoms: C_10  and  C_21
REMARK    4  A    between atoms: C_12  and  N_20
REMARK    5  A    between atoms: C_13  and  C_17
REMARK                            x       y       z     vdW  Elec       q    Type
REMARK                         _______ _______ _______ _____ _____    ______ ____
ROOT
ATOM      1  C   UNL     1       2.514   1.022   0.266  0.00  0.00    +0.073 A 
ATOM      2  C   UNL     1       3.711   1.739   0.277  0.00  0.00    +0.037 A 
ATOM      3  C   UNL     1       4.919   1.076   0.146  0.00  0.00    -0.004 A 
ATOM      4  C   UNL     1       4.914  -0.346   0.002  0.00  0.00    +0.037 A 
ATOM      5  C   UNL     1       6.045  -1.244  -0.149  0.00  0.00    +0.054 A 
ATOM      6  C   UNL     1       5.797  -2.595  -0.274  0.00  0.00    +0.097 A 
ATOM      7  S   UNL     1       4.020  -2.696  -0.192  0.00  0.00    -0.062 S 
ATOM      8  C   UNL     1       3.646  -0.971   0.004  0.00  0.00    +0.112 A 
ATOM      9  N   UNL     1       2.524  -0.299   0.137  0.00  0.00    -0.239 NA
ENDROOT
BRANCH   1  14
ATOM     10  C   UNL     1      -2.497   3.807   0.813  0.00  0.00    +0.044 C 
ATOM     11  C   UNL     1      -1.185   3.078   0.670  0.00  0.00    -0.050 A 
ATOM     12  C   UNL     1      -1.174   1.703   0.523  0.00  0.00    +0.004 A 
ATOM     13  C   UNL     1       0.024   1.030   0.397  0.00  0.00    +0.010 A 
ATOM     14  C   UNL     1       1.224   1.739   0.406  0.00  0.00    +0.000 A 
ATOM     15  C   UNL     1       1.206   3.126   0.549  0.00  0.00    +0.010 A 
ATOM     16  C   UNL     1       0.002   3.788   0.679  0.00  0.00    +0.004 A 
ENDBRANCH   1  14
BRANCH   3  17
ATOM     17  C   UNL     1       6.196   1.827   0.155  0.00  0.00    -0.017 A 
ATOM     18  C   UNL     1       7.179   1.526   1.098  0.00  0.00    +0.010 A 
ATOM     19  C   UNL     1       8.368   2.225   1.099  0.00  0.00    +0.020 A 
ATOM     20  C   UNL     1       8.582   3.233   0.174  0.00  0.00    +0.041 A 
ATOM     21  C   UNL     1       7.608   3.539  -0.761  0.00  0.00    +0.020 A 
ATOM     22  C   UNL     1       6.417   2.843  -0.775  0.00  0.00    +0.010 A 
ATOM     23 CL   UNL     1      10.077   4.114   0.186  0.00  0.00    -0.084 Cl
ENDBRANCH   3  17
BRANCH   6  24
ATOM     24  C   UNL     1       6.731  -3.648  -0.431  0.00  0.00    +0.250 C 
ATOM     25  O   UNL     1       7.924  -3.404  -0.469  0.00  0.00    -0.270 OA
ATOM     26  N   UNL     1       6.300  -4.920  -0.538  0.00  0.00    -0.325 N 
ATOM     27  H   UNL     1       5.350  -5.115  -0.508  0.00  0.00    +0.145 HD
ATOM     28  H   UNL     1       6.939  -5.642  -0.646  0.00  0.00    +0.145 HD
ENDBRANCH   6  24
BRANCH   5  29
ATOM     29  N   UNL     1       7.344  -0.754  -0.168  0.00  0.00    -0.356 N 
ATOM     30  H   UNL     1       8.076  -1.308   0.145  0.00  0.00    +0.142 HD
ATOM     31  H   UNL     1       7.520   0.143  -0.493  0.00  0.00    +0.142 HD
ENDBRANCH   5  29
TORSDOF 4
