REMARK  Name = ZINC39034999
REMARK  3 active torsions:
REMARK  status: ('A' for Active; 'I' for Inactive)
REMARK    1  A    between atoms: C_6  and  N_10
REMARK    2  A    between atoms: N_10  and  N_11
REMARK    3  A    between atoms: C_12  and  C_13
REMARK                            x       y       z     vdW  Elec       q    Type
REMARK                         _______ _______ _______ _____ _____    ______ ____
ROOT
ATOM      1  N   UNL     1       3.741  -4.139  -1.221  0.00  0.00    -0.191 NA
ATOM      2  C   UNL     1       4.140  -4.755  -2.293  0.00  0.00    +0.143 C 
ENDROOT
BRANCH   2   3
ATOM      3  C   UNL     1       4.371  -6.208  -2.264  0.00  0.00    +0.059 A 
ATOM      4  C   UNL     1       4.801  -6.870  -3.398  0.00  0.00    +0.025 A 
ATOM      5  C   UNL     1       5.014  -8.268  -3.342  0.00  0.00    +0.003 A 
ATOM      6  C   UNL     1       5.449  -8.962  -4.482  0.00  0.00    +0.059 A 
ATOM      7  C   UNL     1       5.653 -10.322  -4.422  0.00  0.00    +0.167 A 
ATOM      8  C   UNL     1       5.429 -11.015  -3.225  0.00  0.00    +0.168 A 
ATOM      9  C   UNL     1       5.001 -10.341  -2.097  0.00  0.00    +0.075 A 
ATOM     10  C   UNL     1       4.789  -8.967  -2.141  0.00  0.00    +0.053 A 
ATOM     11  N   UNL     1       4.359  -8.300  -1.010  0.00  0.00    -0.321 N 
ATOM     12  C   UNL     1       4.152  -6.970  -1.029  0.00  0.00    +0.258 A 
ATOM     13  O   UNL     1       3.778  -6.398  -0.021  0.00  0.00    -0.267 OA
ATOM     14  O   UNL     1       5.703 -12.336  -3.434  0.00  0.00    -0.453 OA
ATOM     15  C   UNL     1       5.698 -12.510  -4.862  0.00  0.00    +0.466 C 
ATOM     16  O   UNL     1       6.066 -11.214  -5.370  0.00  0.00    -0.453 OA
ATOM     17  H   UNL     1       4.208  -8.795  -0.190  0.00  0.00    +0.169 HD
ENDBRANCH   2   3
BRANCH   1  18
ATOM     18  N   UNL     1       3.522  -2.756  -1.248  0.00  0.00    -0.229 N 
ATOM     19  H   UNL     1       3.667  -2.257  -2.067  0.00  0.00    +0.172 HD
BRANCH  18  25
ATOM     20  C   UNL     1      -0.016   1.344   0.009  0.00  0.00    +0.002 A 
ATOM     21  C   UNL     1       1.158   2.118   0.002  0.00  0.00    +0.002 A 
ATOM     22  C   UNL     1       2.389   1.570  -0.013  0.00  0.00    +0.027 A 
ATOM     23  C   UNL     1       2.533   0.108  -0.022  0.00  0.00    +0.061 A 
ATOM     24  N   UNL     1       3.569  -0.680  -0.036  0.00  0.00    -0.347 N 
ATOM     25  C   UNL     1       3.071  -2.062  -0.039  0.00  0.00    +0.283 C 
ATOM     26  N   UNL     1       1.606  -1.974  -0.024  0.00  0.00    -0.347 N 
ATOM     27  C   UNL     1       1.290  -0.712  -0.014  0.00  0.00    +0.061 A 
ATOM     28  C   UNL     1       0.002  -0.004   0.002  0.00  0.00    +0.027 A 
ATOM     29  H   UNL     1       4.499  -0.405  -0.045  0.00  0.00    +0.163 HD
ATOM     30  H   UNL     1       0.987  -2.721  -0.022  0.00  0.00    +0.163 HD
ENDBRANCH  18  25
ENDBRANCH   1  18
TORSDOF 3
