REMARK  Name = ZINC63557558
REMARK  8 active torsions:
REMARK  status: ('A' for Active; 'I' for Inactive)
REMARK    1  A    between atoms: C_1  and  C_2
REMARK    2  A    between atoms: C_2  and  C_3
REMARK    3  A    between atoms: C_2  and  C_4
REMARK    4  A    between atoms: C_9  and  N_10
REMARK    5  A    between atoms: C_11  and  C_13
REMARK    6  A    between atoms: N_18  and  C_20
REMARK    7  A    between atoms: C_20  and  C_21
REMARK    8  A    between atoms: C_21  and  C_22
REMARK                            x       y       z     vdW  Elec       q    Type
REMARK                         _______ _______ _______ _____ _____    ______ ____
ROOT
ATOM      1  C   UNL     1      -0.490  -2.380  -4.357  0.00  0.00    +0.101 C 
ATOM      2  C   UNL     1       0.550  -3.428  -3.898  0.00  0.00    +0.110 C 
ATOM      3  C   UNL     1       0.754  -4.305  -5.113  0.00  0.00    +0.216 C 
ATOM      4  O   UNL     1       1.683  -5.069  -5.271  0.00  0.00    -0.276 OA
ATOM      5  N   UNL     1      -0.244  -4.116  -5.993  0.00  0.00    -0.300 N 
ATOM      6  C   UNL     1      -1.214  -3.131  -5.496  0.00  0.00    +0.121 C 
ENDROOT
BRANCH   1   8
ATOM      7  N   UNL     1      -0.991  -1.440  -2.124  0.00  0.00    -0.285 N 
ATOM      8  C   UNL     1      -1.445  -2.043  -3.241  0.00  0.00    +0.222 C 
ATOM      9  O   UNL     1      -2.622  -2.315  -3.347  0.00  0.00    -0.275 OA
ATOM     10  H   UNL     1      -0.061  -1.171  -2.062  0.00  0.00    +0.155 HD
BRANCH   7  16
ATOM     11  C   UNL     1      -1.363  -1.099   0.238  0.00  0.00    -0.024 A 
ATOM     12  C   UNL     1      -2.223  -0.859   1.291  0.00  0.00    +0.006 A 
ATOM     13  C   UNL     1      -3.580  -0.726   1.060  0.00  0.00    +0.000 A 
ATOM     14  C   UNL     1      -4.080  -0.833  -0.225  0.00  0.00    +0.002 A 
ATOM     15  C   UNL     1      -3.225  -1.073  -1.282  0.00  0.00    +0.023 A 
ATOM     16  C   UNL     1      -1.861  -1.202  -1.054  0.00  0.00    +0.037 A 
BRANCH  11  18
ATOM     17  C   UNL     1       0.677   0.082   1.009  0.00  0.00    +0.012 C 
ATOM     18  C   UNL     1       0.116  -1.243   0.490  0.00  0.00    +0.015 C 
ATOM     19  C   UNL     1       0.351  -2.339   1.531  0.00  0.00    +0.012 C 
ENDBRANCH  11  18
ENDBRANCH   7  16
ENDBRANCH   1   8
BRANCH   5  20
ATOM     20  C   UNL     1      -0.351  -4.802  -7.283  0.00  0.00    +0.112 C 
BRANCH  20  21
ATOM     21  C   UNL     1      -1.142  -6.100  -7.105  0.00  0.00    +0.052 C 
BRANCH  21  22
ATOM     22  C   UNL     1      -1.252  -6.806  -8.432  0.00  0.00    -0.040 C 
ATOM     23  C   UNL     1      -0.449  -7.790  -8.899  0.00  0.00    +0.000 A 
ATOM     24  C   UNL     1       0.723  -8.469  -8.333  0.00  0.00    +0.030 A 
ATOM     25  C   UNL     1       1.332  -9.437  -9.055  0.00  0.00    +0.042 A 
ATOM     26  C   UNL     1       0.874  -9.806 -10.329  0.00  0.00    +0.022 A 
ATOM     27  C   UNL     1      -0.196  -9.227 -10.914  0.00  0.00    +0.027 A 
ATOM     28  C   UNL     1      -0.913  -8.198 -10.244  0.00  0.00    +0.043 A 
ATOM     29  N   UNL     1      -1.962  -7.495 -10.595  0.00  0.00    -0.380 N 
ATOM     30  C   UNL     1      -2.286  -6.564  -9.508  0.00  0.00    +0.144 C 
ATOM     31 CL   UNL     1       2.718 -10.243  -8.389  0.00  0.00    -0.084 Cl
ATOM     32  H   UNL     1      -2.445  -7.578 -11.432  0.00  0.00    +0.160 HD
ENDBRANCH  21  22
ENDBRANCH  20  21
ENDBRANCH   5  20
TORSDOF 6
