REMARK  Name = ZINC36605254
REMARK  17 active torsions:
REMARK  status: ('A' for Active; 'I' for Inactive)
REMARK    1  A    between atoms: C_1  and  C_2
REMARK    2  A    between atoms: C_2  and  C_3
REMARK    3  A    between atoms: C_2  and  C_4
REMARK    4  A    between atoms: C_2  and  C_5
REMARK    5  A    between atoms: C_5  and  C_6
REMARK    6  A    between atoms: C_6  and  C_7
REMARK    7  A    between atoms: C_6  and  C_8
REMARK    8  A    between atoms: C_6  and  N_9
REMARK    9  A    between atoms: C_10  and  C_12
REMARK   10  A    between atoms: C_12  and  C_14
REMARK   11  A    between atoms: C_12  and  N_21
REMARK   12  A    between atoms: C_19  and  O_20
REMARK   13  A    between atoms: N_21  and  C_22
REMARK   14  A    between atoms: C_28  and  C_30
REMARK   15  A    between atoms: C_30  and  C_32
REMARK   16  A    between atoms: C_30  and  O_38
REMARK   17  A    between atoms: O_38  and  C_39
REMARK                            x       y       z     vdW  Elec       q    Type
REMARK                         _______ _______ _______ _____ _____    ______ ____
ROOT
ATOM      1  C   UNL     1       5.354  -0.831  -4.260  0.00  0.00    +0.201 C 
ENDROOT
BRANCH   1   2
ATOM      2  C   UNL     1       4.698   0.013  -5.322  0.00  0.00    +0.024 A 
ATOM      3  C   UNL     1       3.898   1.080  -4.961  0.00  0.00    +0.009 A 
ATOM      4  C   UNL     1       3.295   1.854  -5.936  0.00  0.00    +0.001 A 
ATOM      5  C   UNL     1       3.492   1.562  -7.273  0.00  0.00    +0.004 A 
ATOM      6  C   UNL     1       4.291   0.497  -7.639  0.00  0.00    +0.046 A 
ATOM      7  C   UNL     1       4.901  -0.278  -6.663  0.00  0.00    +0.122 A 
BRANCH   7   8
ATOM      8  O   UNL     1       5.693  -1.323  -7.021  0.00  0.00    -0.506 OA
ATOM      9  H   UNL     1       5.235  -2.175  -7.041  0.00  0.00    +0.292 HD
ENDBRANCH   7   8
ENDBRANCH   1   2
BRANCH   1  11
ATOM     10  N   UNL     1       3.374  -1.353  -2.872  0.00  0.00    -0.308 N 
ATOM     11  C   UNL     1       4.565  -0.731  -2.980  0.00  0.00    +0.239 C 
ATOM     12  O   UNL     1       5.001  -0.090  -2.047  0.00  0.00    -0.273 OA
ATOM     13  H   UNL     1       3.045  -1.899  -3.603  0.00  0.00    +0.149 HD
BRANCH  10  14
ATOM     14  C   UNL     1       2.578  -1.204  -1.652  0.00  0.00    +0.030 C 
ATOM     15  C   UNL     1       2.404   0.282  -1.334  0.00  0.00    +0.031 C 
ATOM     16  C   UNL     1       3.293  -1.894  -0.488  0.00  0.00    +0.031 C 
BRANCH  14  17
ATOM     17  C   UNL     1       1.204  -1.846  -1.858  0.00  0.00    +0.031 C 
BRANCH  17  19
ATOM     18  C   UNL     1       1.300  -2.363  -4.300  0.00  0.00    +0.010 C 
ATOM     19  C   UNL     1       0.665  -1.464  -3.238  0.00  0.00    -0.036 C 
ATOM     20  C   UNL     1       1.009  -0.003  -3.533  0.00  0.00    +0.010 C 
ATOM     21  C   UNL     1      -0.855  -1.645  -3.260  0.00  0.00    +0.010 C 
ENDBRANCH  17  19
ENDBRANCH  14  17
ENDBRANCH  10  14
ENDBRANCH   1  11
BRANCH   1  22
ATOM     22  N   UNL     1       6.720  -0.352  -4.030  0.00  0.00    -0.253 N 
ATOM     23  C   UNL     1       7.770  -1.144  -4.322  0.00  0.00    +0.254 C 
ATOM     24  O   UNL     1       7.584  -2.272  -4.728  0.00  0.00    -0.272 OA
BRANCH  22  25
ATOM     25  C   UNL     1       6.933   0.928  -3.507  0.00  0.00    +0.038 A 
ATOM     26  C   UNL     1       6.477   2.046  -4.194  0.00  0.00    +0.023 A 
ATOM     27  C   UNL     1       6.689   3.308  -3.675  0.00  0.00    +0.002 A 
ATOM     28  C   UNL     1       7.354   3.460  -2.472  0.00  0.00    +0.000 A 
ATOM     29  C   UNL     1       7.809   2.349  -1.785  0.00  0.00    +0.002 A 
ATOM     30  C   UNL     1       7.596   1.084  -2.296  0.00  0.00    +0.023 A 
ENDBRANCH  22  25
BRANCH  23  31
ATOM     31  C   UNL     1       9.175  -0.628  -4.146  0.00  0.00    +0.234 C 
BRANCH  31  32
ATOM     32  C   UNL     1       9.479   0.381  -5.223  0.00  0.00    -0.010 A 
ATOM     33  C   UNL     1       9.871  -0.045  -6.479  0.00  0.00    +0.006 A 
ATOM     34  C   UNL     1      10.149   0.880  -7.467  0.00  0.00    +0.000 A 
ATOM     35  C   UNL     1      10.035   2.232  -7.200  0.00  0.00    +0.000 A 
ATOM     36  C   UNL     1       9.642   2.658  -5.945  0.00  0.00    +0.000 A 
ATOM     37  C   UNL     1       9.359   1.732  -4.958  0.00  0.00    +0.006 A 
ENDBRANCH  31  32
BRANCH  31  38
ATOM     38  O   UNL     1      10.097  -1.716  -4.239  0.00  0.00    -0.366 OA
ATOM     39  C   UNL     1      10.379  -2.347  -2.988  0.00  0.00    +0.195 C 
ENDBRANCH  31  38
ENDBRANCH  23  31
ENDBRANCH   1  22
TORSDOF 11
