REMARK  Name = ZINC23348986
REMARK  11 active torsions:
REMARK  status: ('A' for Active; 'I' for Inactive)
REMARK    1  A    between atoms: C_1  and  C_2
REMARK    2  A    between atoms: C_2  and  C_3
REMARK    3  A    between atoms: C_6  and  C_9
REMARK    4  A    between atoms: C_9  and  C_11
REMARK    5  A    between atoms: C_9  and  N_12
REMARK    6  A    between atoms: C_13  and  C_15
REMARK    7  A    between atoms: C_15  and  S_16
REMARK    8  A    between atoms: S_16  and  C_17
REMARK    9  A    between atoms: C_20  and  C_26
REMARK   10  A    between atoms: N_21  and  C_22
REMARK   11  A    between atoms: C_22  and  C_23
REMARK                            x       y       z     vdW  Elec       q    Type
REMARK                         _______ _______ _______ _____ _____    ______ ____
ROOT
ATOM      1  S   UNL     1      -4.950  -1.808   0.445  0.00  0.00    -0.077 S 
ENDROOT
BRANCH   1   2
ATOM      2  C   UNL     1      -3.214  -1.659   0.183  0.00  0.00    +0.193 A 
ATOM      3  N   UNL     1      -2.393  -2.623  -0.170  0.00  0.00    -0.122 NA
ATOM      4  N   UNL     1      -1.196  -2.167  -0.278  0.00  0.00    -0.125 NA
ATOM      5  C   UNL     1      -1.177  -0.884   0.008  0.00  0.00    +0.201 A 
ATOM      6  N   UNL     1      -2.471  -0.519   0.309  0.00  0.00    -0.291 N 
BRANCH   5   7
ATOM      7  C   UNL     1       0.002  -0.004   0.002  0.00  0.00    +0.172 A 
ATOM      8  C   UNL     1       1.303  -0.409  -0.013  0.00  0.00    +0.053 A 
ATOM      9  C   UNL     1       2.091   0.758  -0.014  0.00  0.00    +0.042 A 
ATOM     10  C   UNL     1       1.245   1.807  -0.000  0.00  0.00    +0.196 A 
ATOM     11  O   UNL     1      -0.016   1.343   0.009  0.00  0.00    -0.460 OA
ENDBRANCH   5   7
BRANCH   6  12
ATOM     12  C   UNL     1      -2.950   0.813   0.686  0.00  0.00    +0.221 C 
BRANCH  12  13
ATOM     13  C   UNL     1      -3.346   1.574  -0.553  0.00  0.00    +0.230 C 
ATOM     14  O   UNL     1      -3.240   1.054  -1.644  0.00  0.00    -0.274 OA
ATOM     15  N   UNL     1      -3.820   2.831  -0.450  0.00  0.00    -0.328 N 
ATOM     16  H   UNL     1      -4.110   3.386  -1.354  0.00  0.00    +0.145 HD
ATOM     17  H   UNL     1      -3.917   3.303   0.540  0.00  0.00    +0.145 HD
ENDBRANCH  12  13
ENDBRANCH   6  12
ENDBRANCH   1   2
BRANCH   1  18
ATOM     18  C   UNL     1      -5.170  -3.570   0.092  0.00  0.00    +0.173 C 
BRANCH  18  20
ATOM     19  N   UNL     1      -7.025  -5.206   0.045  0.00  0.00    -0.308 N 
ATOM     20  C   UNL     1      -6.622  -3.938   0.257  0.00  0.00    +0.224 C 
ATOM     21  O   UNL     1      -7.429  -3.092   0.582  0.00  0.00    -0.275 OA
ATOM     22  H   UNL     1      -6.293  -5.973  -0.249  0.00  0.00    +0.149 HD
BRANCH  19  23
ATOM     23  C   UNL     1      -8.436  -5.564   0.206  0.00  0.00    +0.100 C 
ATOM     24  C   UNL     1      -9.189  -5.263  -1.092  0.00  0.00    +0.033 C 
BRANCH  23  28
ATOM     25  C   UNL     1      -8.758  -9.727   1.106  0.00  0.00    -0.048 A 
ATOM     26  C   UNL     1      -9.574  -8.816   1.750  0.00  0.00    +0.004 A 
ATOM     27  C   UNL     1      -9.469  -7.468   1.459  0.00  0.00    +0.006 A 
ATOM     28  C   UNL     1      -8.550  -7.032   0.523  0.00  0.00    -0.027 A 
ATOM     29  C   UNL     1      -7.738  -7.944  -0.125  0.00  0.00    +0.006 A 
ATOM     30  C   UNL     1      -7.839  -9.291   0.170  0.00  0.00    +0.004 A 
BRANCH  25  32
ATOM     31  C   UNL     1      -9.899 -11.841   0.489  0.00  0.00    +0.009 C 
ATOM     32  C   UNL     1      -8.872 -11.196   1.423  0.00  0.00    +0.032 C 
ENDBRANCH  25  32
ENDBRANCH  23  28
ENDBRANCH  19  23
ENDBRANCH  18  20
ENDBRANCH   1  18
TORSDOF 9
