REMARK  Name = ZINC08997339
REMARK  9 active torsions:
REMARK  status: ('A' for Active; 'I' for Inactive)
REMARK    1  A    between atoms: C_1  and  C_2
REMARK    2  A    between atoms: C_2  and  C_3
REMARK    3  A    between atoms: C_2  and  C_4
REMARK    4  A    between atoms: C_4  and  C_5
REMARK    5  A    between atoms: C_5  and  O_6
REMARK    6  A    between atoms: O_6  and  C_7
REMARK    7  A    between atoms: C_10  and  C_15
REMARK    8  A    between atoms: C_12  and  O_13
REMARK    9  A    between atoms: O_13  and  C_14
REMARK                            x       y       z     vdW  Elec       q    Type
REMARK                         _______ _______ _______ _____ _____    ______ ____
ROOT
ATOM      1  C   UNL     1      -6.651   0.506  -5.793  0.00  0.00    +0.209 C 
ATOM      2  N   UNL     1      -5.838   0.397  -7.018  0.00  0.00    -0.294 N 
ATOM      3  C   UNL     1      -5.046   1.444  -7.406  0.00  0.00    +0.160 C 
ATOM      4  N   UNL     1      -5.371   2.694  -7.124  0.00  0.00    -0.302 N 
ATOM      5  C   UNL     1      -6.481   2.921  -6.385  0.00  0.00    +0.213 A 
ATOM      6  N   UNL     1      -7.139   1.889  -5.730  0.00  0.00    -0.287 N 
ATOM      7  C   UNL     1      -8.215   2.426  -5.091  0.00  0.00    +0.072 A 
ATOM      8  C   UNL     1      -9.224   1.877  -4.309  0.00  0.00    +0.028 A 
ATOM      9  C   UNL     1     -10.180   2.746  -3.808  0.00  0.00    +0.002 A 
ATOM     10  C   UNL     1     -10.146   4.105  -4.067  0.00  0.00    +0.002 A 
ATOM     11  C   UNL     1      -9.153   4.678  -4.842  0.00  0.00    +0.030 A 
ATOM     12  C   UNL     1      -8.176   3.819  -5.360  0.00  0.00    +0.091 A 
ATOM     13  N   UNL     1      -7.095   4.053  -6.140  0.00  0.00    -0.212 NA
ATOM     14  N   UNL     1      -3.893   1.191  -8.100  0.00  0.00    -0.332 N 
ATOM     15  H   UNL     1      -3.645   0.278  -8.312  0.00  0.00    +0.145 HD
ATOM     16  H   UNL     1      -3.325   1.926  -8.380  0.00  0.00    +0.145 HD
ATOM     17  H   UNL     1      -5.865  -0.415  -7.548  0.00  0.00    +0.151 HD
ATOM     18  H   UNL     1      -4.826   3.432  -7.440  0.00  0.00    +0.171 HD
ENDROOT
BRANCH   1  22
ATOM     19  C   UNL     1      -4.243  -0.353  -2.365  0.00  0.00    +0.162 A 
ATOM     20  C   UNL     1      -3.715   0.369  -3.423  0.00  0.00    +0.050 A 
ATOM     21  C   UNL     1      -4.495   0.645  -4.530  0.00  0.00    +0.011 A 
ATOM     22  C   UNL     1      -5.804   0.202  -4.584  0.00  0.00    -0.003 A 
ATOM     23  C   UNL     1      -6.337  -0.519  -3.532  0.00  0.00    +0.056 A 
ATOM     24  C   UNL     1      -5.558  -0.804  -2.422  0.00  0.00    +0.162 A 
BRANCH  24  25
ATOM     25  O   UNL     1      -6.079  -1.519  -1.389  0.00  0.00    -0.491 OA
ATOM     26  C   UNL     1      -7.436  -1.949  -1.517  0.00  0.00    +0.277 C 
ENDBRANCH  24  25
BRANCH  19  27
ATOM     27  O   UNL     1      -3.476  -0.626  -1.276  0.00  0.00    -0.488 OA
BRANCH  27  28
ATOM     28  C   UNL     1      -2.135  -0.131  -1.286  0.00  0.00    +0.229 C 
BRANCH  28  29
ATOM     29  C   UNL     1      -1.433  -0.534   0.013  0.00  0.00    +0.044 C 
BRANCH  29  31
ATOM     30  C   UNL     1      -0.019   1.526   0.010  0.00  0.00    +0.007 C 
ATOM     31  C   UNL     1       0.002  -0.004   0.002  0.00  0.00    -0.014 C 
ATOM     32  C   UNL     1       0.742  -0.511   1.242  0.00  0.00    +0.007 C 
ENDBRANCH  29  31
ENDBRANCH  28  29
ENDBRANCH  27  28
ENDBRANCH  19  27
ENDBRANCH   1  22
TORSDOF 6
