REMARK  Name = ZINC22425688
REMARK  13 active torsions:
REMARK  status: ('A' for Active; 'I' for Inactive)
REMARK    1  A    between atoms: C_1  and  C_2
REMARK    2  A    between atoms: C_7  and  O_8
REMARK    3  A    between atoms: O_8  and  C_9
REMARK    4  A    between atoms: C_9  and  C_10
REMARK    5  A    between atoms: C_10  and  C_12
REMARK    6  A    between atoms: C_10  and  N_13
REMARK    7  A    between atoms: C_14  and  C_16
REMARK    8  A    between atoms: C_16  and  N_17
REMARK    9  A    between atoms: N_17  and  C_18
REMARK   10  A    between atoms: N_17  and  S_31
REMARK   11  A    between atoms: C_23  and  O_24
REMARK   12  A    between atoms: O_24  and  C_25
REMARK   13  A    between atoms: S_31  and  C_34
REMARK                            x       y       z     vdW  Elec       q    Type
REMARK                         _______ _______ _______ _____ _____    ______ ____
ROOT
ATOM      1  N   UNL     1      -2.518  -1.921  -1.459  0.00  0.00    -0.195 N 
ENDROOT
BRANCH   1   2
ATOM      2  C   UNL     1      -2.366  -2.893  -2.454  0.00  0.00    +0.094 A 
ATOM      3  C   UNL     1      -2.776  -4.197  -2.221  0.00  0.00    +0.028 A 
ATOM      4  C   UNL     1      -2.624  -5.155  -3.206  0.00  0.00    +0.002 A 
ATOM      5  C   UNL     1      -2.064  -4.817  -4.424  0.00  0.00    +0.004 A 
ATOM      6  C   UNL     1      -1.653  -3.519  -4.663  0.00  0.00    +0.048 A 
ATOM      7  C   UNL     1      -1.806  -2.552  -3.684  0.00  0.00    +0.151 A 
BRANCH   7   8
ATOM      8  O   UNL     1      -1.408  -1.273  -3.920  0.00  0.00    -0.454 OA
BRANCH   8   9
ATOM      9  C   UNL     1      -2.018  -0.590  -4.923  0.00  0.00    +0.129 A 
ATOM     10  C   UNL     1      -3.100  -1.150  -5.588  0.00  0.00    +0.046 A 
ATOM     11  C   UNL     1      -3.723  -0.450  -6.603  0.00  0.00    +0.004 A 
ATOM     12  C   UNL     1      -3.262   0.802  -6.965  0.00  0.00    +0.000 A 
ATOM     13  C   UNL     1      -2.180   1.360  -6.309  0.00  0.00    +0.004 A 
ATOM     14  C   UNL     1      -1.558   0.667  -5.289  0.00  0.00    +0.046 A 
ENDBRANCH   8   9
ENDBRANCH   7   8
ENDBRANCH   1   2
BRANCH   1  15
ATOM     15  S   UNL     1      -3.899  -1.009  -1.397  0.00  0.00    +0.043 S 
ATOM     16  O   UNL     1      -4.839  -1.720  -2.191  0.00  0.00    -0.155 OA
ATOM     17  O   UNL     1      -4.134  -0.800  -0.011  0.00  0.00    -0.155 OA
ATOM     18  C   UNL     1      -3.460   0.557  -2.199  0.00  0.00    +0.218 C 
ENDBRANCH   1  15
BRANCH   1  19
ATOM     19  C   UNL     1      -1.456  -1.710  -0.472  0.00  0.00    +0.226 C 
BRANCH  19  21
ATOM     20  N   UNL     1       0.648  -0.422  -0.299  0.00  0.00    -0.308 N 
ATOM     21  C   UNL     1      -0.427  -0.764  -1.036  0.00  0.00    +0.232 C 
ATOM     22  O   UNL     1      -0.567  -0.311  -2.152  0.00  0.00    -0.274 OA
ATOM     23  H   UNL     1       0.775  -0.833   0.713  0.00  0.00    +0.149 HD
BRANCH  20  24
ATOM     24  C   UNL     1       1.649   0.497  -0.847  0.00  0.00    +0.107 C 
ATOM     25  C   UNL     1       1.204   1.940  -0.601  0.00  0.00    +0.031 C 
BRANCH  24  26
ATOM     26  C   UNL     1       2.995   0.254  -0.162  0.00  0.00    +0.251 C 
BRANCH  26  27
ATOM     27  O   UNL     1       2.891   0.590   1.224  0.00  0.00    -0.490 OA
BRANCH  27  34
ATOM     28  C   UNL     1       2.708   1.247   3.965  0.00  0.00    +0.047 C 
ATOM     29  C   UNL     1       3.978   0.737   3.335  0.00  0.00    -0.009 A 
ATOM     30  C   UNL     1       5.114   0.574   4.104  0.00  0.00    +0.007 A 
ATOM     31  C   UNL     1       6.280   0.105   3.526  0.00  0.00    +0.000 A 
ATOM     32  C   UNL     1       6.311  -0.202   2.178  0.00  0.00    +0.004 A 
ATOM     33  C   UNL     1       5.177  -0.045   1.406  0.00  0.00    +0.046 A 
ATOM     34  C   UNL     1       4.007   0.430   1.982  0.00  0.00    +0.123 A 
ENDBRANCH  27  34
ENDBRANCH  26  27
ENDBRANCH  24  26
ENDBRANCH  20  24
ENDBRANCH  19  21
ENDBRANCH   1  19
TORSDOF 10
