REMARK  Name = ZINC06341271
REMARK  4 active torsions:
REMARK  status: ('A' for Active; 'I' for Inactive)
REMARK    1  A    between atoms: C_4  and  C_7
REMARK    2  A    between atoms: C_10  and  C_11
REMARK    3  A    between atoms: C_16  and  O_17
REMARK    4  A    between atoms: O_17  and  C_18
REMARK                            x       y       z     vdW  Elec       q    Type
REMARK                         _______ _______ _______ _____ _____    ______ ____
ROOT
ATOM      1  C   UNL     1      -3.722   3.247  -0.521  0.00  0.00    +0.238 C 
ATOM      2  C   UNL     1      -3.809   1.811  -0.066  0.00  0.00    +0.045 C 
ATOM      3  C   UNL     1      -4.973   1.128  -0.155  0.00  0.00    +0.023 C 
ATOM      4  C   UNL     1      -2.639   1.189   0.460  0.00  0.00    +0.197 C 
ATOM      5  O   UNL     1      -2.626   0.005   0.748  0.00  0.00    -0.287 OA
ATOM      6  C   UNL     1      -1.441   2.038   0.637  0.00  0.00    +0.064 A 
ATOM      7  C   UNL     1      -0.198   1.483   0.928  0.00  0.00    +0.015 A 
ATOM      8  C   UNL     1       0.899   2.306   1.079  0.00  0.00    +0.001 A 
ATOM      9  C   UNL     1       0.763   3.679   0.950  0.00  0.00    +0.004 A 
ATOM     10  C   UNL     1      -0.469   4.242   0.680  0.00  0.00    +0.046 A 
ATOM     11  C   UNL     1      -1.583   3.430   0.530  0.00  0.00    +0.133 A 
ATOM     12  O   UNL     1      -2.803   3.970   0.294  0.00  0.00    -0.479 OA
ENDROOT
BRANCH   1  16
ATOM     13  C   UNL     1      -7.585   5.048  -0.231  0.00  0.00    +0.000 A 
ATOM     14  C   UNL     1      -6.997   4.489   0.888  0.00  0.00    +0.000 A 
ATOM     15  C   UNL     1      -5.747   3.907   0.795  0.00  0.00    +0.007 A 
ATOM     16  C   UNL     1      -5.085   3.882  -0.419  0.00  0.00    -0.003 A 
ATOM     17  C   UNL     1      -5.671   4.445  -1.537  0.00  0.00    +0.007 A 
ATOM     18  C   UNL     1      -6.923   5.024  -1.445  0.00  0.00    +0.000 A 
ENDBRANCH   1  16
BRANCH   3  19
ATOM     19  C   UNL     1      -6.004   1.556  -1.110  0.00  0.00    +0.017 A 
ATOM     20  C   UNL     1      -5.646   1.939  -2.408  0.00  0.00    +0.011 A 
ATOM     21  C   UNL     1      -6.620   2.334  -3.299  0.00  0.00    +0.001 A 
ATOM     22  C   UNL     1      -7.950   2.365  -2.913  0.00  0.00    +0.004 A 
ATOM     23  C   UNL     1      -8.317   1.995  -1.634  0.00  0.00    +0.046 A 
ATOM     24  C   UNL     1      -7.354   1.589  -0.724  0.00  0.00    +0.134 A 
BRANCH  24  25
ATOM     25  O   UNL     1      -7.713   1.225   0.533  0.00  0.00    -0.434 OA
BRANCH  25  26
ATOM     26  C   UNL     1      -9.104   1.284   0.853  0.00  0.00    +0.541 C 
ATOM     27  F   UNL     1      -9.564   2.597   0.695  0.00  0.00    -0.166 F 
ATOM     28  F   UNL     1      -9.816   0.436  -0.002  0.00  0.00    -0.166 F 
ENDBRANCH  25  26
ENDBRANCH  24  25
ENDBRANCH   3  19
TORSDOF 4
