REMARK  Name = ZINC40816797
REMARK  2 active torsions:
REMARK  status: ('A' for Active; 'I' for Inactive)
REMARK    1  A    between atoms: C_9  and  C_11
REMARK    2  A    between atoms: N_13  and  C_14
REMARK                            x       y       z     vdW  Elec       q    Type
REMARK                         _______ _______ _______ _____ _____    ______ ____
ROOT
ATOM      1  C   UNL     1      -0.012   1.379   0.055  0.00  0.00    +0.001 A 
ATOM      2  C   UNL     1       1.165   2.095   0.064  0.00  0.00    +0.010 A 
ATOM      3  C   UNL     1       2.391   1.427   0.050  0.00  0.00    +0.004 A 
ATOM      4  C   UNL     1       3.786   1.857   0.056  0.00  0.00    -0.019 A 
ATOM      5  C   UNL     1       4.547   0.746   0.034  0.00  0.00    +0.020 A 
ATOM      6  N   UNL     1       3.743  -0.359   0.016  0.00  0.00    -0.357 N 
ATOM      7  H   UNL     1       4.058  -1.276  -0.001  0.00  0.00    +0.166 HD
ATOM      8  C   UNL     1       2.423   0.020   0.026  0.00  0.00    +0.059 A 
ATOM      9  C   UNL     1       1.215  -0.696   0.018  0.00  0.00    +0.061 A 
ATOM     10  C   UNL     1       0.005  -0.004   0.032  0.00  0.00    +0.015 A 
ATOM     11  C   UNL     1       6.058   0.766   0.030  0.00  0.00    +0.053 C 
ATOM     12  C   UNL     1       6.526   2.171  -0.366  0.00  0.00    +0.006 C 
ATOM     13  C   UNL     1       5.801   3.212   0.490  0.00  0.00    +0.005 C 
ATOM     14  C   UNL     1       4.323   3.264   0.083  0.00  0.00    +0.037 C 
ENDROOT
BRANCH   9  15
ATOM     15  C   UNL     1       1.226  -2.170  -0.006  0.00  0.00    +0.250 C 
ATOM     16  O   UNL     1       2.284  -2.770  -0.018  0.00  0.00    -0.270 OA
ATOM     17  N   UNL     1       0.064  -2.853  -0.015  0.00  0.00    -0.279 N 
ATOM     18  H   UNL     1      -0.778  -2.377   0.058  0.00  0.00    +0.155 HD
BRANCH  17  19
ATOM     19  C   UNL     1       0.073  -4.247  -0.128  0.00  0.00    +0.066 A 
ATOM     20  C   UNL     1       1.095  -4.996   0.448  0.00  0.00    +0.027 A 
ATOM     21  C   UNL     1       1.061  -6.374   0.309  0.00  0.00    +0.022 A 
ATOM     22  C   UNL     1       0.021  -6.957  -0.391  0.00  0.00    +0.112 A 
ATOM     23  N   UNL     1      -0.934  -6.220  -0.925  0.00  0.00    -0.246 NA
ATOM     24  C   UNL     1      -0.942  -4.906  -0.811  0.00  0.00    +0.127 A 
ATOM     25 BR   UNL     1      -2.345  -3.908  -1.594  0.00  0.00    -0.027 Br
ENDBRANCH  17  19
ENDBRANCH   9  15
TORSDOF 2
