REMARK  Name = ZINC15911282
REMARK  7 active torsions:
REMARK  status: ('A' for Active; 'I' for Inactive)
REMARK    1  A    between atoms: C_4  and  N_7
REMARK    2  A    between atoms: C_8  and  C_10
REMARK    3  A    between atoms: C_10  and  C_11
REMARK    4  A    between atoms: N_15  and  C_29
REMARK    5  A    between atoms: N_17  and  C_18
REMARK    6  A    between atoms: C_21  and  O_24
REMARK    7  A    between atoms: O_24  and  C_25
REMARK                            x       y       z     vdW  Elec       q    Type
REMARK                         _______ _______ _______ _____ _____    ______ ____
ROOT
ATOM      1  C   UNL     1       2.317   8.956   1.060  0.00  0.00    +0.149 C 
ATOM      2  C   UNL     1       1.119   9.793   1.479  0.00  0.00    +0.236 C 
ATOM      3  O   UNL     1       1.179  11.000   1.574  0.00  0.00    -0.274 OA
ATOM      4  N   UNL     1       0.009   9.122   1.733  0.00  0.00    -0.242 N 
ATOM      5  C   UNL     1      -0.065   7.749   1.626  0.00  0.00    +0.165 C 
ATOM      6  N   UNL     1      -1.099   6.973   1.849  0.00  0.00    -0.226 NA
ATOM      7  S   UNL     1       1.582   7.274   1.121  0.00  0.00    -0.077 S 
ENDROOT
BRANCH   4   8
ATOM      8  C   UNL     1      -1.187   9.864   2.142  0.00  0.00    +0.114 C 
ATOM      9  C   UNL     1      -2.306   9.611   1.133  0.00  0.00    +0.028 C 
ATOM     10  C   UNL     1      -3.602  10.214   1.688  0.00  0.00    +0.007 C 
ATOM     11  C   UNL     1      -4.051   9.375   2.882  0.00  0.00    +0.035 C 
ATOM     12  C   UNL     1      -2.919   9.194   3.859  0.00  0.00    -0.042 A 
ATOM     13  C   UNL     1      -1.603   9.415   3.518  0.00  0.00    -0.023 A 
ATOM     14  C   UNL     1      -0.606   9.224   4.465  0.00  0.00    +0.006 A 
ATOM     15  C   UNL     1      -0.922   8.817   5.745  0.00  0.00    +0.000 A 
ATOM     16  C   UNL     1      -2.243   8.600   6.089  0.00  0.00    +0.000 A 
ATOM     17  C   UNL     1      -3.236   8.788   5.149  0.00  0.00    +0.004 A 
ENDBRANCH   4   8
BRANCH   6  18
ATOM     18  C   UNL     1      -0.984   5.616   1.690  0.00  0.00    +0.067 A 
ATOM     19  C   UNL     1      -1.511   4.752   2.651  0.00  0.00    +0.031 A 
ATOM     20  C   UNL     1      -1.393   3.387   2.488  0.00  0.00    +0.048 A 
ATOM     21  C   UNL     1      -0.752   2.873   1.370  0.00  0.00    +0.127 A 
ATOM     22  C   UNL     1      -0.222   3.728   0.414  0.00  0.00    +0.048 A 
ATOM     23  C   UNL     1      -0.340   5.094   0.567  0.00  0.00    +0.031 A 
BRANCH  21  24
ATOM     24  O   UNL     1      -0.638   1.527   1.213  0.00  0.00    -0.434 OA
BRANCH  24  25
ATOM     25  C   UNL     1       0.034   1.065   0.039  0.00  0.00    +0.541 C 
ATOM     26  F   UNL     1       1.343   1.558   0.028  0.00  0.00    -0.166 F 
ATOM     27  F   UNL     1      -0.645   1.520  -1.096  0.00  0.00    -0.166 F 
ENDBRANCH  24  25
ENDBRANCH  21  24
ENDBRANCH   6  18
BRANCH   1  28
ATOM     28  C   UNL     1       2.777   9.315  -0.354  0.00  0.00    +0.120 C 
BRANCH  28  30
ATOM     29  N   UNL     1       4.626   8.712  -1.883  0.00  0.00    -0.285 N 
ATOM     30  C   UNL     1       4.036   8.553  -0.681  0.00  0.00    +0.219 C 
ATOM     31  O   UNL     1       4.517   7.798   0.136  0.00  0.00    -0.275 OA
ATOM     32  H   UNL     1       4.206   9.264  -2.561  0.00  0.00    +0.155 HD
BRANCH  29  36
ATOM     33  C   UNL     1       8.257   6.832  -2.683  0.00  0.00    +0.000 A 
ATOM     34  C   UNL     1       7.315   6.204  -1.889  0.00  0.00    +0.002 A 
ATOM     35  C   UNL     1       6.111   6.825  -1.622  0.00  0.00    +0.023 A 
ATOM     36  C   UNL     1       5.846   8.081  -2.152  0.00  0.00    +0.033 A 
ATOM     37  C   UNL     1       6.791   8.706  -2.953  0.00  0.00    +0.023 A 
ATOM     38  C   UNL     1       7.996   8.083  -3.212  0.00  0.00    +0.002 A 
ENDBRANCH  29  36
ENDBRANCH  28  30
ENDBRANCH   1  28
TORSDOF 7
