REMARK  Name = ZINC27103621
REMARK  13 active torsions:
REMARK  status: ('A' for Active; 'I' for Inactive)
REMARK    1  A    between atoms: C_1  and  N_2
REMARK    2  A    between atoms: N_2  and  C_3
REMARK    3  A    between atoms: N_2  and  C_4
REMARK    4  A    between atoms: C_4  and  C_5
REMARK    5  A    between atoms: C_8  and  C_10
REMARK    6  A    between atoms: C_10  and  S_11
REMARK    7  A    between atoms: S_11  and  C_12
REMARK    8  A    between atoms: C_12  and  C_13
REMARK    9  A    between atoms: C_13  and  N_14
REMARK   10  A    between atoms: C_15  and  C_17
REMARK   11  A    between atoms: C_17  and  O_18
REMARK   12  A    between atoms: O_18  and  C_19
REMARK   13  A    between atoms: C_27  and  C_30
REMARK                            x       y       z     vdW  Elec       q    Type
REMARK                         _______ _______ _______ _____ _____    ______ ____
ROOT
ATOM      1  C   UNL     1       8.969  -0.497  -3.821  0.00  0.00    +0.324 C 
ENDROOT
BRANCH   1   3
ATOM      2  N   UNL     1       6.793   0.160  -2.844  0.00  0.00    -0.312 N 
ATOM      3  C   UNL     1       7.532  -0.061  -3.950  0.00  0.00    +0.251 C 
ATOM      4  O   UNL     1       7.040   0.090  -5.048  0.00  0.00    -0.272 OA
ATOM      5  H   UNL     1       7.239   0.023  -1.848  0.00  0.00    +0.149 HD
BRANCH   2   6
ATOM      6  C   UNL     1       5.396   0.584  -2.969  0.00  0.00    +0.115 C 
BRANCH   6   7
ATOM      7  C   UNL     1       4.792   0.764  -1.575  0.00  0.00    +0.088 C 
BRANCH   7   8
ATOM      8  S   UNL     1       3.062   1.288  -1.730  0.00  0.00    -0.151 S 
BRANCH   8   9
ATOM      9  C   UNL     1       2.499   1.455  -0.013  0.00  0.00    +0.143 C 
BRANCH   9  13
ATOM     10  C   UNL     1      -0.722   3.175   0.026  0.00  0.00    +0.089 A 
ATOM     11  C   UNL     1      -1.159   1.903   0.017  0.00  0.00    +0.043 A 
ATOM     12  C   UNL     1      -0.013   1.076   0.008  0.00  0.00    +0.046 A 
ATOM     13  C   UNL     1       1.057   1.892   0.002  0.00  0.00    +0.115 A 
ATOM     14  O   UNL     1       0.621   3.162   0.013  0.00  0.00    -0.466 OA
BRANCH  10  15
ATOM     15  C   UNL     1      -1.592   4.406   0.042  0.00  0.00    -0.004 C 
BRANCH  15  17
ATOM     16  C   UNL     1      -2.502   6.118   1.492  0.00  0.00    -0.096 C 
ATOM     17  N   UNL     1      -1.861   4.798   1.432  0.00  0.00    +0.381 N 
ATOM     18  C   UNL     1      -2.676   3.785   2.116  0.00  0.00    -0.096 C 
ATOM     19  H   UNL     1      -0.896   4.866   1.956  0.00  0.00    -0.082 HD
ENDBRANCH  15  17
ENDBRANCH  10  15
ENDBRANCH   9  13
ENDBRANCH   8   9
ENDBRANCH   7   8
ENDBRANCH   6   7
ENDBRANCH   2   6
ENDBRANCH   1   3
BRANCH   1  20
ATOM     20  O   UNL     1       9.533  -0.665  -5.123  0.00  0.00    -0.483 OA
BRANCH  20  21
ATOM     21  C   UNL     1      10.831  -1.058  -5.186  0.00  0.00    +0.125 A 
ATOM     22  C   UNL     1      11.545  -1.271  -4.008  0.00  0.00    +0.046 A 
ATOM     23  C   UNL     1      12.850  -1.671  -4.056  0.00  0.00    +0.019 A 
ATOM     24  C   UNL     1      13.472  -1.858  -5.292  0.00  0.00    +0.065 A 
ATOM     25  C   UNL     1      12.762  -1.640  -6.486  0.00  0.00    +0.142 A 
ATOM     26  C   UNL     1      11.434  -1.238  -6.418  0.00  0.00    +0.092 A 
ATOM     27  O   UNL     1      13.365  -1.820  -7.678  0.00  0.00    -0.462 OA
ATOM     28  C   UNL     1      14.637  -2.205  -7.805  0.00  0.00    +0.208 A 
ATOM     29  C   UNL     1      15.437  -2.450  -6.736  0.00  0.00    +0.064 A 
ATOM     30  C   UNL     1      14.880  -2.284  -5.382  0.00  0.00    +0.200 A 
ATOM     31  O   UNL     1      15.551  -2.489  -4.386  0.00  0.00    -0.286 OA
BRANCH  29  32
ATOM     32  C   UNL     1      16.845  -2.876  -6.927  0.00  0.00    -0.011 A 
ATOM     33  C   UNL     1      17.872  -2.219  -6.251  0.00  0.00    +0.010 A 
ATOM     34  C   UNL     1      19.180  -2.622  -6.428  0.00  0.00    +0.020 A 
ATOM     35  C   UNL     1      19.474  -3.670  -7.284  0.00  0.00    +0.041 A 
ATOM     36  C   UNL     1      18.458  -4.322  -7.962  0.00  0.00    +0.020 A 
ATOM     37  C   UNL     1      17.146  -3.930  -7.787  0.00  0.00    +0.010 A 
ATOM     38 CL   UNL     1      21.122  -4.168  -7.508  0.00  0.00    -0.084 Cl
ENDBRANCH  29  32
ENDBRANCH  20  21
ENDBRANCH   1  20
TORSDOF 11
