REMARK  Name = ZINC35308035
REMARK  5 active torsions:
REMARK  status: ('A' for Active; 'I' for Inactive)
REMARK    1  A    between atoms: C_1  and  C_2
REMARK    2  A    between atoms: C_4  and  N_9
REMARK    3  A    between atoms: N_9  and  C_10
REMARK    4  A    between atoms: C_10  and  C_11
REMARK    5  A    between atoms: C_16  and  N_17
REMARK                            x       y       z     vdW  Elec       q    Type
REMARK                         _______ _______ _______ _____ _____    ______ ____
ROOT
ATOM      1  C   UNL     1       0.048  -4.235  -2.423  0.00  0.00    +0.139 C 
ENDROOT
BRANCH   1   2
ATOM      2  C   UNL     1       0.047  -4.732  -3.846  0.00  0.00    +0.002 A 
ATOM      3  C   UNL     1      -1.130  -5.167  -4.426  0.00  0.00    +0.045 A 
ATOM      4  C   UNL     1      -1.130  -5.623  -5.732  0.00  0.00    +0.124 A 
ATOM      5  C   UNL     1       0.049  -5.644  -6.458  0.00  0.00    +0.040 A 
ATOM      6  C   UNL     1       1.225  -5.208  -5.876  0.00  0.00    +0.036 A 
ATOM      7  C   UNL     1       1.223  -4.747  -4.573  0.00  0.00    +0.131 A 
ATOM      8  F   UNL     1      -2.280  -6.049  -6.300  0.00  0.00    -0.205 F 
BRANCH   7   9
ATOM      9  N   UNL     1       2.481  -4.276  -3.953  0.00  0.00    +0.057 N 
ATOM     10  O   UNL     1       3.510  -4.289  -4.589  0.00  0.00    -0.126 OA
ATOM     11  O   UNL     1       2.481  -3.877  -2.812  0.00  0.00    -0.126 OA
ENDBRANCH   7   9
ENDBRANCH   1   2
BRANCH   1  12
ATOM     12  N   UNL     1       0.028  -2.770  -2.418  0.00  0.00    -0.340 N 
ATOM     13  H   UNL     1       0.017  -2.282  -3.256  0.00  0.00    +0.146 HD
BRANCH  12  17
ATOM     14  C   UNL     1      -0.018   1.503   0.010  0.00  0.00    +0.045 C 
ATOM     15  C   UNL     1       0.002  -0.004   0.002  0.00  0.00    -0.035 A 
ATOM     16  C   UNL     1       0.006  -0.687  -1.198  0.00  0.00    +0.027 A 
ATOM     17  C   UNL     1       0.025  -2.076  -1.205  0.00  0.00    +0.028 A 
ATOM     18  C   UNL     1       0.040  -2.774  -0.004  0.00  0.00    +0.024 A 
ATOM     19  C   UNL     1       0.036  -2.085   1.193  0.00  0.00    +0.017 A 
ATOM     20  C   UNL     1       0.023  -0.701   1.197  0.00  0.00    +0.021 A 
ATOM     21 BR   UNL     1       0.026   0.238   2.838  0.00  0.00    -0.050 Br
ENDBRANCH  12  17
ENDBRANCH   1  12
TORSDOF 4
