REMARK  Name = ZINC16671551
REMARK  5 active torsions:
REMARK  status: ('A' for Active; 'I' for Inactive)
REMARK    1  A    between atoms: C_1  and  C_2
REMARK    2  A    between atoms: C_2  and  O_3
REMARK    3  A    between atoms: O_3  and  C_4
REMARK    4  A    between atoms: C_4  and  C_6
REMARK    5  A    between atoms: C_19  and  C_22
REMARK                            x       y       z     vdW  Elec       q    Type
REMARK                         _______ _______ _______ _____ _____    ______ ____
ROOT
ATOM      1  C   UNL     1       0.244   1.421  -0.192  0.00  0.00    +0.059 A 
ATOM      2  C   UNL     1      -1.003   2.045  -0.295  0.00  0.00    +0.017 A 
ATOM      3  C   UNL     1      -1.092   3.406  -0.267  0.00  0.00    +0.024 A 
ATOM      4  C   UNL     1       0.053   4.191  -0.148  0.00  0.00    +0.031 A 
ATOM      5  C   UNL     1       1.306   3.569  -0.040  0.00  0.00    -0.019 A 
ATOM      6  C   UNL     1       1.399   2.199  -0.064  0.00  0.00    +0.021 A 
ATOM      7  C   UNL     1       2.490   4.441   0.112  0.00  0.00    +0.049 C 
ATOM      8  C   UNL     1       3.845   4.012  -0.319  0.00  0.00    -0.023 C 
ATOM      9  C   UNL     1       4.526   5.084  -0.705  0.00  0.00    -0.030 C 
ATOM     10  C   UNL     1       3.648   6.332  -0.590  0.00  0.00    +0.033 C 
ATOM     11  C   UNL     1       2.242   5.733  -0.724  0.00  0.00    +0.029 C 
ATOM     12  C   UNL     1       1.094   6.447  -0.032  0.00  0.00    +0.105 C 
ATOM     13  N   UNL     1      -0.078   5.558  -0.183  0.00  0.00    -0.336 N 
ATOM     14  H   UNL     1      -0.960   5.949  -0.285  0.00  0.00    +0.147 HD
ENDROOT
BRANCH  12  15
ATOM     15  C   UNL     1       0.831   7.773  -0.697  0.00  0.00    -0.019 A 
ATOM     16  C   UNL     1       1.328   8.027  -1.938  0.00  0.00    +0.006 A 
ATOM     17  C   UNL     1       1.091   9.246  -2.571  0.00  0.00    +0.001 A 
ATOM     18  C   UNL     1       0.363  10.222  -1.961  0.00  0.00    +0.008 A 
ATOM     19  C   UNL     1      -0.162   9.998  -0.677  0.00  0.00    -0.018 A 
ATOM     20  C   UNL     1       0.076   8.757  -0.036  0.00  0.00    -0.013 A 
ATOM     21  C   UNL     1      -0.450   8.533   1.248  0.00  0.00    +0.009 A 
ATOM     22  C   UNL     1      -1.178   9.509   1.857  0.00  0.00    +0.001 A 
ATOM     23  C   UNL     1      -1.411  10.729   1.226  0.00  0.00    +0.001 A 
ATOM     24  C   UNL     1      -0.918  10.982  -0.017  0.00  0.00    +0.008 A 
ENDBRANCH  12  15
BRANCH   1  25
ATOM     25  C   UNL     1       0.342  -0.050  -0.224  0.00  0.00    +0.339 C 
ATOM     26  O   UNL     1       1.428  -0.589  -0.139  0.00  0.00    -0.245 OA
BRANCH  25  27
ATOM     27  O   UNL     1      -0.773  -0.796  -0.347  0.00  0.00    -0.461 OA
BRANCH  27  29
ATOM     28  C   UNL     1      -1.968  -2.912  -0.516  0.00  0.00    +0.048 C 
ATOM     29  C   UNL     1      -0.602  -2.238  -0.372  0.00  0.00    +0.229 C 
ENDBRANCH  27  29
ENDBRANCH  25  27
ENDBRANCH   1  25
TORSDOF 4
