REMARK  Name = ZINC36566596
REMARK  15 active torsions:
REMARK  status: ('A' for Active; 'I' for Inactive)
REMARK    1  A    between atoms: C_1  and  C_2
REMARK    2  A    between atoms: C_2  and  C_3
REMARK    3  A    between atoms: C_2  and  C_4
REMARK    4  A    between atoms: C_4  and  C_5
REMARK    5  A    between atoms: C_5  and  O_6
REMARK    6  A    between atoms: O_6  and  C_7
REMARK    7  A    between atoms: C_12  and  C_13
REMARK    8  A    between atoms: N_15  and  C_16
REMARK    9  A    between atoms: C_16  and  N_18
REMARK   10  A    between atoms: N_18  and  C_19
REMARK   11  A    between atoms: C_22  and  C_25
REMARK   12  A    between atoms: C_25  and  C_26
REMARK   13  A    between atoms: C_26  and  C_27
REMARK   14  A    between atoms: N_29  and  C_30
REMARK   15  A    between atoms: N_29  and  C_31
REMARK                            x       y       z     vdW  Elec       q    Type
REMARK                         _______ _______ _______ _____ _____    ______ ____
ROOT
ATOM      1  C   UNL     1      -5.513  -3.533  -0.901  0.00  0.00    +0.253 C 
ATOM      2  O   UNL     1      -5.452  -2.342  -1.139  0.00  0.00    -0.270 OA
ATOM      3  N   UNL     1      -6.678  -4.083  -0.505  0.00  0.00    -0.263 N 
ATOM      4  H   UNL     1      -6.726  -5.033  -0.315  0.00  0.00    +0.157 HD
ENDROOT
BRANCH   1  10
ATOM      5  C   UNL     1      -3.097  -3.808  -1.455  0.00  0.00    +0.133 A 
ATOM      6  C   UNL     1      -1.972  -4.608  -1.581  0.00  0.00    +0.047 A 
ATOM      7  C   UNL     1      -2.049  -5.960  -1.308  0.00  0.00    +0.019 A 
ATOM      8  C   UNL     1      -3.249  -6.527  -0.907  0.00  0.00    +0.019 A 
ATOM      9  C   UNL     1      -4.377  -5.745  -0.776  0.00  0.00    +0.032 A 
ATOM     10  C   UNL     1      -4.311  -4.375  -1.044  0.00  0.00    +0.080 A 
ATOM     11 BR   UNL     1      -3.338  -8.379  -0.539  0.00  0.00    -0.050 Br
BRANCH   5  12
ATOM     12  O   UNL     1      -3.022  -2.480  -1.722  0.00  0.00    -0.491 OA
BRANCH  12  13
ATOM     13  C   UNL     1      -1.752  -1.972  -2.136  0.00  0.00    +0.229 C 
BRANCH  13  14
ATOM     14  C   UNL     1      -1.862  -0.468  -2.390  0.00  0.00    +0.044 C 
BRANCH  14  16
ATOM     15  C   UNL     1      -0.641   1.553  -3.207  0.00  0.00    +0.007 C 
ATOM     16  C   UNL     1      -0.502   0.076  -2.833  0.00  0.00    -0.014 C 
ATOM     17  C   UNL     1       0.502  -0.069  -1.688  0.00  0.00    +0.007 C 
ENDBRANCH  14  16
ENDBRANCH  13  14
ENDBRANCH  12  13
ENDBRANCH   5  12
ENDBRANCH   1  10
BRANCH   3  18
ATOM     18  C   UNL     1      -7.776  -3.313  -0.374  0.00  0.00    +0.141 C 
ATOM     19  S   UNL     1      -7.691  -1.636  -0.710  0.00  0.00    -0.018 S 
BRANCH  18  20
ATOM     20  N   UNL     1      -8.942  -3.863   0.021  0.00  0.00    -0.297 N 
ATOM     21  H   UNL     1      -9.006  -4.822   0.151  0.00  0.00    +0.154 HD
BRANCH  20  22
ATOM     22  C   UNL     1     -10.059  -3.051   0.242  0.00  0.00    +0.033 A 
ATOM     23  C   UNL     1     -10.395  -2.064  -0.676  0.00  0.00    +0.023 A 
ATOM     24  C   UNL     1     -11.499  -1.264  -0.454  0.00  0.00    +0.005 A 
ATOM     25  C   UNL     1     -12.268  -1.444   0.680  0.00  0.00    -0.047 A 
ATOM     26  C   UNL     1     -11.936  -2.425   1.597  0.00  0.00    +0.005 A 
ATOM     27  C   UNL     1     -10.837  -3.232   1.378  0.00  0.00    +0.023 A 
BRANCH  25  28
ATOM     28  C   UNL     1     -13.472  -0.569   0.919  0.00  0.00    +0.044 C 
BRANCH  28  29
ATOM     29  C   UNL     1     -14.707  -1.217   0.289  0.00  0.00    +0.100 C 
BRANCH  29  30
ATOM     30  C   UNL     1     -15.910  -0.342   0.528  0.00  0.00    +0.215 C 
ATOM     31  O   UNL     1     -15.792   0.698   1.142  0.00  0.00    -0.276 OA
ATOM     32  N   UNL     1     -17.118  -0.714   0.060  0.00  0.00    -0.308 N 
ATOM     33  C   UNL     1     -18.288   0.136   0.292  0.00  0.00    +0.131 C 
ATOM     34  C   UNL     1     -17.260  -1.970  -0.681  0.00  0.00    +0.131 C 
ENDBRANCH  29  30
ENDBRANCH  28  29
ENDBRANCH  25  28
ENDBRANCH  20  22
ENDBRANCH  18  20
ENDBRANCH   3  18
TORSDOF 11
