REMARK  Name = ZINC10533316
REMARK  14 active torsions:
REMARK  status: ('A' for Active; 'I' for Inactive)
REMARK    1  A    between atoms: C_1  and  C_2
REMARK    2  A    between atoms: C_2  and  O_3
REMARK    3  A    between atoms: O_3  and  C_4
REMARK    4  A    between atoms: C_4  and  C_6
REMARK    5  A    between atoms: C_7  and  C_34
REMARK    6  A    between atoms: C_11  and  C_15
REMARK    7  A    between atoms: C_15  and  S_16
REMARK    8  A    between atoms: S_16  and  C_17
REMARK    9  A    between atoms: C_20  and  C_23
REMARK   10  A    between atoms: N_21  and  C_22
REMARK   11  A    between atoms: C_26  and  C_29
REMARK   12  A    between atoms: C_29  and  C_30
REMARK   13  A    between atoms: C_29  and  C_31
REMARK   14  A    between atoms: C_29  and  C_32
REMARK                            x       y       z     vdW  Elec       q    Type
REMARK                         _______ _______ _______ _____ _____    ______ ____
ROOT
ATOM      1  C   UNL     1      -2.136 -10.681  -1.700  0.00  0.00    +0.102 A 
ATOM      2  C   UNL     1      -2.284 -10.129  -0.464  0.00  0.00    -0.017 A 
ATOM      3  C   UNL     1      -1.881  -8.807  -0.238  0.00  0.00    +0.051 A 
ATOM      4  C   UNL     1      -1.940  -8.037   0.962  0.00  0.00    +0.128 A 
ATOM      5  N   UNL     1      -1.494  -6.791   0.951  0.00  0.00    -0.216 NA
ATOM      6  C   UNL     1      -1.001  -6.228  -0.137  0.00  0.00    +0.143 A 
ATOM      7  N   UNL     1      -0.918  -6.886  -1.277  0.00  0.00    -0.224 NA
ATOM      8  C   UNL     1      -1.335  -8.133  -1.359  0.00  0.00    +0.115 A 
ATOM      9  S   UNL     1      -1.409  -9.354  -2.645  0.00  0.00    -0.062 S 
ATOM     10  N   UNL     1      -2.453  -8.585   2.119  0.00  0.00    -0.343 N 
ATOM     11  C   UNL     1      -2.878 -10.940   0.659  0.00  0.00    +0.046 C 
ATOM     12  H   UNL     1      -2.397  -9.542   2.268  0.00  0.00    +0.144 HD
ATOM     13  H   UNL     1      -2.868  -8.014   2.784  0.00  0.00    +0.144 HD
ENDROOT
BRANCH   1  14
ATOM     14  C   UNL     1      -2.489 -12.033  -2.146  0.00  0.00    +0.346 C 
ATOM     15  O   UNL     1      -2.982 -12.822  -1.362  0.00  0.00    -0.244 OA
BRANCH  14  16
ATOM     16  O   UNL     1      -2.267 -12.402  -3.424  0.00  0.00    -0.461 OA
BRANCH  16  18
ATOM     17  C   UNL     1      -2.316 -13.988  -5.271  0.00  0.00    +0.048 C 
ATOM     18  C   UNL     1      -2.640 -13.755  -3.794  0.00  0.00    +0.229 C 
ENDBRANCH  16  18
ENDBRANCH  14  16
ENDBRANCH   1  14
BRANCH   6  19
ATOM     19  C   UNL     1      -0.517  -4.802  -0.073  0.00  0.00    +0.153 C 
BRANCH  19  20
ATOM     20  S   UNL     1      -1.881  -3.683  -0.477  0.00  0.00    -0.078 S 
BRANCH  20  21
ATOM     21  C   UNL     1      -1.058  -2.132  -0.331  0.00  0.00    +0.192 A 
ATOM     22  N   UNL     1       0.203  -1.946  -0.010  0.00  0.00    -0.122 NA
ATOM     23  N   UNL     1       0.474  -0.690   0.006  0.00  0.00    -0.128 NA
ATOM     24  C   UNL     1      -0.597   0.003  -0.304  0.00  0.00    +0.165 A 
ATOM     25  N   UNL     1      -1.612  -0.899  -0.523  0.00  0.00    -0.305 N 
ATOM     26  C   UNL     1      -2.998  -0.600  -0.891  0.00  0.00    +0.153 C 
BRANCH  24  27
ATOM     27  C   UNL     1      -0.696   1.476  -0.393  0.00  0.00    +0.019 A 
ATOM     28  C   UNL     1      -1.753   2.067  -1.087  0.00  0.00    +0.012 A 
ATOM     29  C   UNL     1      -1.842   3.441  -1.161  0.00  0.00    +0.005 A 
ATOM     30  C   UNL     1      -0.880   4.234  -0.560  0.00  0.00    -0.042 A 
ATOM     31  C   UNL     1       0.174   3.654   0.124  0.00  0.00    +0.005 A 
ATOM     32  C   UNL     1       0.272   2.281   0.211  0.00  0.00    +0.012 A 
BRANCH  30  33
ATOM     33  C   UNL     1      -0.981   5.735  -0.650  0.00  0.00    -0.013 C 
ATOM     34  C   UNL     1       0.264   6.288  -1.347  0.00  0.00    +0.015 C 
ATOM     35  C   UNL     1      -2.227   6.115  -1.454  0.00  0.00    +0.015 C 
ATOM     36  C   UNL     1      -1.082   6.325   0.757  0.00  0.00    +0.015 C 
ENDBRANCH  30  33
ENDBRANCH  24  27
ENDBRANCH  20  21
ENDBRANCH  19  20
ENDBRANCH   6  19
TORSDOF 8
