REMARK  Name = ZINC14456741
REMARK  7 active torsions:
REMARK  status: ('A' for Active; 'I' for Inactive)
REMARK    1  A    between atoms: C_1  and  C_2
REMARK    2  A    between atoms: C_5  and  C_7
REMARK    3  A    between atoms: C_18  and  O_23
REMARK    4  A    between atoms: O_23  and  C_24
REMARK    5  A    between atoms: C_24  and  C_25
REMARK    6  A    between atoms: C_25  and  C_26
REMARK    7  A    between atoms: C_26  and  C_27
REMARK                            x       y       z     vdW  Elec       q    Type
REMARK                         _______ _______ _______ _____ _____    ______ ____
ROOT
ATOM      1  C   UNL     1       0.056  -2.893  -0.057  0.00  0.00    +0.111 C 
ATOM      2  C   UNL     1      -0.985  -2.095  -0.823  0.00  0.00    +0.029 C 
ATOM      3  C   UNL     1      -2.429  -2.617  -0.830  0.00  0.00    +0.033 C 
ATOM      4  C   UNL     1      -3.224  -1.319  -0.982  0.00  0.00    -0.030 C 
ATOM      5  C   UNL     1      -2.517  -0.306  -0.526  0.00  0.00    -0.023 C 
ATOM      6  C   UNL     1      -1.235  -0.814   0.028  0.00  0.00    +0.049 C 
ATOM      7  C   UNL     1       0.002  -0.004   0.002  0.00  0.00    -0.016 A 
ATOM      8  C   UNL     1      -0.017   1.374   0.010  0.00  0.00    +0.051 A 
ATOM      9  C   UNL     1       1.171   2.089   0.002  0.00  0.00    +0.121 A 
ATOM     10  C   UNL     1       2.384   1.415  -0.008  0.00  0.00    +0.047 A 
ATOM     11  C   UNL     1       2.408   0.035  -0.017  0.00  0.00    +0.027 A 
ATOM     12  C   UNL     1       1.222  -0.689  -0.018  0.00  0.00    +0.032 A 
ATOM     13  N   UNL     1       1.284  -2.069  -0.081  0.00  0.00    -0.336 N 
ATOM     14  H   UNL     1       2.150  -2.506  -0.119  0.00  0.00    +0.147 HD
ENDROOT
BRANCH   1  19
ATOM     15  C   UNL     1      -1.326  -2.790   5.436  0.00  0.00    +0.051 C 
ATOM     16  C   UNL     1      -1.055  -3.062   3.979  0.00  0.00    -0.013 A 
ATOM     17  C   UNL     1      -1.303  -4.184   3.259  0.00  0.00    +0.011 A 
ATOM     18  C   UNL     1      -0.966  -4.209   1.919  0.00  0.00    +0.013 A 
ATOM     19  C   UNL     1      -0.397  -3.111   1.363  0.00  0.00    +0.010 A 
ATOM     20  S   UNL     1      -0.317  -1.994   2.754  0.00  0.00    -0.097 S 
ENDBRANCH   1  19
BRANCH   9  21
ATOM     21  O   UNL     1       1.148   3.449   0.005  0.00  0.00    -0.492 OA
BRANCH  21  22
ATOM     22  C   UNL     1       2.410   4.119  -0.003  0.00  0.00    +0.229 C 
BRANCH  22  23
ATOM     23  C   UNL     1       2.184   5.633   0.002  0.00  0.00    +0.046 C 
BRANCH  23  24
ATOM     24  C   UNL     1       3.535   6.350  -0.006  0.00  0.00    +0.038 C 
BRANCH  24  25
ATOM     25  C   UNL     1       3.312   7.841  -0.001  0.00  0.00    -0.047 A 
ATOM     26  C   UNL     1       3.206   8.528  -1.196  0.00  0.00    +0.003 A 
ATOM     27  C   UNL     1       2.998   9.894  -1.191  0.00  0.00    +0.000 A 
ATOM     28  C   UNL     1       2.904  10.575   0.008  0.00  0.00    +0.000 A 
ATOM     29  C   UNL     1       3.015   9.889   1.203  0.00  0.00    +0.000 A 
ATOM     30  C   UNL     1       3.219   8.522   1.198  0.00  0.00    +0.003 A 
ENDBRANCH  24  25
ENDBRANCH  23  24
ENDBRANCH  22  23
ENDBRANCH  21  22
ENDBRANCH   9  21
TORSDOF 6
