REMARK  Name = ZINC14546668
REMARK  3 active torsions:
REMARK  status: ('A' for Active; 'I' for Inactive)
REMARK    1  A    between atoms: C_4  and  C_8
REMARK    2  A    between atoms: C_19  and  S_24
REMARK    3  A    between atoms: S_24  and  N_27
REMARK                            x       y       z     vdW  Elec       q    Type
REMARK                         _______ _______ _______ _____ _____    ______ ____
ROOT
ATOM      1  C   UNL     1      -2.561   5.273   0.033  0.00  0.00    +0.108 C 
ATOM      2  C   UNL     1      -1.363   5.754  -0.765  0.00  0.00    +0.029 C 
ATOM      3  C   UNL     1      -1.085   7.263  -0.774  0.00  0.00    +0.033 C 
ATOM      4  C   UNL     1       0.434   7.295  -0.958  0.00  0.00    -0.030 C 
ATOM      5  C   UNL     1       0.970   6.172  -0.495  0.00  0.00    -0.023 C 
ATOM      6  C   UNL     1      -0.113   5.321   0.060  0.00  0.00    +0.049 C 
ATOM      7  C   UNL     1      -0.039   3.844   0.028  0.00  0.00    -0.018 A 
ATOM      8  C   UNL     1       1.159   3.164   0.013  0.00  0.00    +0.034 A 
ATOM      9  C   UNL     1       1.177   1.781   0.000  0.00  0.00    +0.106 A 
ATOM     10  C   UNL     1      -0.013   1.076   0.008  0.00  0.00    +0.030 A 
ATOM     11  C   UNL     1      -1.218   1.747   0.017  0.00  0.00    +0.025 A 
ATOM     12  C   UNL     1      -1.247   3.137   0.027  0.00  0.00    +0.031 A 
ATOM     13  N   UNL     1      -2.482   3.796   0.019  0.00  0.00    -0.336 N 
ATOM     14  H   UNL     1      -3.300   3.275   0.004  0.00  0.00    +0.147 HD
ENDROOT
BRANCH   1  18
ATOM     15  C   UNL     1      -6.186   6.576  -1.817  0.00  0.00    +0.003 A 
ATOM     16  C   UNL     1      -5.735   7.197  -0.667  0.00  0.00    +0.020 A 
ATOM     17  C   UNL     1      -4.562   6.775  -0.068  0.00  0.00    +0.047 A 
ATOM     18  C   UNL     1      -3.839   5.732  -0.619  0.00  0.00    +0.010 A 
ATOM     19  C   UNL     1      -4.288   5.115  -1.773  0.00  0.00    +0.047 A 
ATOM     20  C   UNL     1      -5.465   5.534  -2.369  0.00  0.00    +0.020 A 
ATOM     21 CL   UNL     1      -3.378   3.811  -2.470  0.00  0.00    -0.083 Cl
ATOM     22 CL   UNL     1      -3.996   7.555   1.377  0.00  0.00    -0.083 Cl
ENDBRANCH   1  18
BRANCH   9  23
ATOM     23  S   UNL     1       2.713   0.919  -0.026  0.00  0.00    +0.061 S 
ATOM     24  O   UNL     1       3.683   1.802   0.522  0.00  0.00    -0.153 OA
ATOM     25  O   UNL     1       2.465  -0.370   0.516  0.00  0.00    -0.153 OA
BRANCH  23  26
ATOM     26  N   UNL     1       3.122   0.695  -1.615  0.00  0.00    -0.177 NA
ATOM     27  C   UNL     1       2.677  -0.509  -2.281  0.00  0.00    +0.109 C 
ATOM     28  C   UNL     1       3.722  -1.629  -2.097  0.00  0.00    +0.017 C 
ATOM     29  C   UNL     1       4.925  -1.340  -2.893  0.00  0.00    +0.001 C 
ATOM     30  C   UNL     1       5.658  -0.066  -2.485  0.00  0.00    +0.001 C 
ATOM     31  C   UNL     1       5.029   1.117  -3.179  0.00  0.00    +0.017 C 
ATOM     32  C   UNL     1       3.930   1.728  -2.291  0.00  0.00    +0.109 C 
ENDBRANCH  23  26
ENDBRANCH   9  23
TORSDOF 3
