REMARK  Name = ZINC31920495
REMARK  6 active torsions:
REMARK  status: ('A' for Active; 'I' for Inactive)
REMARK    1  A    between atoms: C_1  and  C_2
REMARK    2  A    between atoms: C_2  and  C_3
REMARK    3  A    between atoms: C_3  and  C_5
REMARK    4  A    between atoms: C_3  and  O_20
REMARK    5  A    between atoms: C_6  and  C_15
REMARK    6  A    between atoms: C_11  and  C_14
REMARK                            x       y       z     vdW  Elec       q    Type
REMARK                         _______ _______ _______ _____ _____    ______ ____
ROOT
ATOM      1  C   UNL     1      -0.864   3.520   1.218  0.00  0.00    +0.080 A 
ATOM      2  C   UNL     1       0.132   4.427   1.432  0.00  0.00    +0.102 A 
ATOM      3  N   UNL     1      -0.385   5.660   1.296  0.00  0.00    -0.227 NA
ATOM      4  C   UNL     1      -1.673   5.559   1.004  0.00  0.00    +0.139 A 
ATOM      5  N   UNL     1      -2.000   4.229   0.943  0.00  0.00    -0.300 N 
ATOM      6  C   UNL     1      -3.276   3.843   0.651  0.00  0.00    +0.096 A 
ATOM      7  C   UNL     1      -4.236   4.763   0.413  0.00  0.00    -0.034 A 
ATOM      8  C   UNL     1      -3.932   6.133   0.465  0.00  0.00    +0.008 A 
ATOM      9  C   UNL     1      -2.666   6.532   0.763  0.00  0.00    +0.047 A 
ATOM     10  C   UNL     1      -5.639   4.317   0.092  0.00  0.00    +0.045 C 
ENDROOT
BRANCH   2  11
ATOM     11  C   UNL     1       1.540   4.109   1.757  0.00  0.00    +0.039 A 
ATOM     12  C   UNL     1       2.681   4.762   1.377  0.00  0.00    +0.018 A 
ATOM     13  C   UNL     1       3.897   4.278   1.811  0.00  0.00    +0.008 A 
ATOM     14  C   UNL     1       3.926   3.166   2.589  0.00  0.00    +0.046 A 
ATOM     15  S   UNL     1       2.192   2.769   2.739  0.00  0.00    -0.095 S 
ENDBRANCH   2  11
BRANCH   1  16
ATOM     16  C   UNL     1      -0.735   2.019   1.269  0.00  0.00    +0.163 C 
BRANCH  16  18
ATOM     17  C   UNL     1       0.002  -0.004   0.002  0.00  0.00    +0.007 C 
ATOM     18  C   UNL     1      -0.019   1.526   0.010  0.00  0.00    +0.034 C 
ENDBRANCH  16  18
BRANCH  16  19
ATOM     19  O   UNL     1       0.019   1.645   2.424  0.00  0.00    -0.386 OA
ATOM     20  H   UNL     1      -0.341   1.915   3.428  0.00  0.00    +0.210 HD
ENDBRANCH  16  19
ENDBRANCH   1  16
TORSDOF 4
