REMARK  Name = ZINC61312357
REMARK  9 active torsions:
REMARK  status: ('A' for Active; 'I' for Inactive)
REMARK    1  A    between atoms: C_1  and  C_2
REMARK    2  A    between atoms: C_2  and  C_3
REMARK    3  A    between atoms: C_2  and  C_4
REMARK    4  A    between atoms: C_4  and  C_5
REMARK    5  A    between atoms: C_5  and  C_6
REMARK    6  A    between atoms: C_6  and  C_7
REMARK    7  A    between atoms: C_6  and  N_8
REMARK    8  A    between atoms: C_9  and  C_11
REMARK    9  A    between atoms: C_11  and  N_12
REMARK                            x       y       z     vdW  Elec       q    Type
REMARK                         _______ _______ _______ _____ _____    ______ ____
ROOT
ATOM      1  N   UNL     1       3.157  -4.682  -5.024  0.00  0.00    -0.215 N 
ATOM      2  C   UNL     1       2.121  -4.916  -5.860  0.00  0.00    +0.247 C 
ATOM      3  O   UNL     1       0.994  -4.491  -5.792  0.00  0.00    -0.273 OA
ATOM      4  C   UNL     1       2.684  -5.879  -6.891  0.00  0.00    +0.113 C 
ATOM      5  C   UNL     1       2.616  -7.293  -6.319  0.00  0.00    +0.035 C 
ATOM      6  C   UNL     1       2.781  -8.352  -7.409  0.00  0.00    +0.003 C 
ATOM      7  C   UNL     1       4.256  -8.621  -7.756  0.00  0.00    +0.000 C 
ATOM      8  C   UNL     1       4.768  -7.464  -8.632  0.00  0.00    +0.000 C 
ATOM      9  C   UNL     1       3.705  -7.093  -9.668  0.00  0.00    +0.000 C 
ATOM     10  C   UNL     1       3.085  -5.733  -9.367  0.00  0.00    +0.003 C 
ATOM     11  C   UNL     1       2.039  -5.773  -8.254  0.00  0.00    +0.035 C 
ATOM     12  N   UNL     1       4.072  -5.373  -6.918  0.00  0.00    -0.285 N 
ATOM     13  C   UNL     1       4.309  -4.919  -5.664  0.00  0.00    +0.310 C 
ATOM     14  O   UNL     1       5.410  -4.751  -5.194  0.00  0.00    -0.252 OA
ATOM     15  H   UNL     1       4.669  -5.255  -7.656  0.00  0.00    +0.151 HD
ENDROOT
BRANCH   1  16
ATOM     16  C   UNL     1       3.043  -4.204  -3.650  0.00  0.00    +0.213 C 
BRANCH  16  18
ATOM     17  N   UNL     1       2.923  -2.031  -2.474  0.00  0.00    -0.311 N 
ATOM     18  C   UNL     1       3.023  -2.697  -3.642  0.00  0.00    +0.231 C 
ATOM     19  O   UNL     1       3.096  -2.084  -4.685  0.00  0.00    -0.274 OA
ATOM     20  H   UNL     1       2.865  -2.522  -1.639  0.00  0.00    +0.149 HD
BRANCH  17  21
ATOM     21  C   UNL     1       2.904  -0.566  -2.466  0.00  0.00    +0.070 C 
ATOM     22  C   UNL     1       4.339  -0.037  -2.477  0.00  0.00    +0.028 C 
BRANCH  21  23
ATOM     23  C   UNL     1       2.187  -0.073  -1.207  0.00  0.00    +0.022 C 
BRANCH  23  24
ATOM     24  C   UNL     1       0.718  -0.497  -1.257  0.00  0.00    +0.005 C 
BRANCH  24  26
ATOM     25  C   UNL     1      -0.019   1.526   0.010  0.00  0.00    +0.007 C 
ATOM     26  C   UNL     1       0.002  -0.004   0.002  0.00  0.00    -0.017 C 
ATOM     27  C   UNL     1      -1.433  -0.534   0.013  0.00  0.00    +0.007 C 
ENDBRANCH  24  26
ENDBRANCH  23  24
ENDBRANCH  21  23
ENDBRANCH  17  21
ENDBRANCH  16  18
ENDBRANCH   1  16
TORSDOF 6
