REMARK  Name = ZINC14459335
REMARK  7 active torsions:
REMARK  status: ('A' for Active; 'I' for Inactive)
REMARK    1  A    between atoms: C_1  and  O_2
REMARK    2  A    between atoms: O_2  and  C_3
REMARK    3  A    between atoms: C_5  and  C_10
REMARK    4  A    between atoms: C_8  and  O_9
REMARK    5  A    between atoms: C_23  and  O_26
REMARK    6  A    between atoms: O_26  and  C_27
REMARK    7  A    between atoms: C_27  and  C_28
REMARK                            x       y       z     vdW  Elec       q    Type
REMARK                         _______ _______ _______ _____ _____    ______ ____
ROOT
ATOM      1  C   UNL     1       0.002  -0.004   0.002  0.00  0.00    +0.105 C 
ATOM      2  C   UNL     1       0.996  -0.646   0.948  0.00  0.00    +0.029 C 
ATOM      3  C   UNL     1       1.035  -2.178   1.016  0.00  0.00    +0.033 C 
ATOM      4  C   UNL     1       2.500  -2.429   1.383  0.00  0.00    -0.030 C 
ATOM      5  C   UNL     1       3.252  -1.418   0.961  0.00  0.00    -0.023 C 
ATOM      6  C   UNL     1       2.381  -0.444   0.259  0.00  0.00    +0.049 C 
ATOM      7  C   UNL     1       2.648   1.011   0.256  0.00  0.00    -0.016 A 
ATOM      8  C   UNL     1       3.930   1.514   0.360  0.00  0.00    +0.006 A 
ATOM      9  C   UNL     1       4.155   2.877   0.338  0.00  0.00    +0.004 A 
ATOM     10  C   UNL     1       3.086   3.745   0.209  0.00  0.00    +0.047 A 
ATOM     11  C   UNL     1       1.799   3.252   0.113  0.00  0.00    +0.142 A 
ATOM     12  C   UNL     1       1.557   1.873   0.142  0.00  0.00    +0.074 A 
ATOM     13  N   UNL     1       0.230   1.449   0.057  0.00  0.00    -0.334 N 
ATOM     14  H   UNL     1      -0.253   1.919  -0.694  0.00  0.00    +0.147 HD
ENDROOT
BRANCH   1  17
ATOM     15  C   UNL     1      -0.179  -2.135  -3.113  0.00  0.00    +0.162 A 
ATOM     16  C   UNL     1      -0.386  -1.671  -1.823  0.00  0.00    +0.054 A 
ATOM     17  C   UNL     1       0.229  -0.507  -1.400  0.00  0.00    -0.023 A 
ATOM     18  C   UNL     1       1.046   0.200  -2.263  0.00  0.00    +0.009 A 
ATOM     19  C   UNL     1       1.261  -0.260  -3.549  0.00  0.00    +0.049 A 
ATOM     20  C   UNL     1       0.648  -1.426  -3.979  0.00  0.00    +0.158 A 
BRANCH  15  22
ATOM     21  C   UNL     1      -1.618  -3.953  -2.587  0.00  0.00    +0.277 C 
ATOM     22  O   UNL     1      -0.783  -3.279  -3.530  0.00  0.00    -0.491 OA
ENDBRANCH  15  22
BRANCH  20  23
ATOM     23  O   UNL     1       0.855  -1.877  -5.245  0.00  0.00    -0.503 OA
ATOM     24  H   UNL     1       0.220  -1.540  -5.892  0.00  0.00    +0.292 HD
ENDBRANCH  20  23
ENDBRANCH   1  17
BRANCH  11  25
ATOM     25  O   UNL     1       0.756   4.116  -0.012  0.00  0.00    -0.486 OA
BRANCH  25  26
ATOM     26  C   UNL     1       1.068   5.510  -0.036  0.00  0.00    +0.264 C 
BRANCH  26  27
ATOM     27  C   UNL     1      -0.204   6.307  -0.179  0.00  0.00    -0.010 A 
ATOM     28  C   UNL     1      -0.678   6.633  -1.436  0.00  0.00    +0.007 A 
ATOM     29  C   UNL     1      -1.846   7.360  -1.567  0.00  0.00    +0.000 A 
ATOM     30  C   UNL     1      -2.536   7.768  -0.441  0.00  0.00    +0.000 A 
ATOM     31  C   UNL     1      -2.060   7.446   0.816  0.00  0.00    +0.000 A 
ATOM     32  C   UNL     1      -0.893   6.716   0.947  0.00  0.00    +0.007 A 
ENDBRANCH  26  27
ENDBRANCH  25  26
ENDBRANCH  11  25
TORSDOF 6
