REMARK  Name = ZINC20116142
REMARK  8 active torsions:
REMARK  status: ('A' for Active; 'I' for Inactive)
REMARK    1  A    between atoms: C_1  and  C_2
REMARK    2  A    between atoms: C_2  and  C_3
REMARK    3  A    between atoms: C_2  and  C_4
REMARK    4  A    between atoms: C_4  and  C_6
REMARK    5  A    between atoms: C_4  and  N_20
REMARK    6  A    between atoms: C_11  and  N_14
REMARK    7  A    between atoms: C_21  and  C_23
REMARK    8  A    between atoms: C_26  and  C_29
REMARK                            x       y       z     vdW  Elec       q    Type
REMARK                         _______ _______ _______ _____ _____    ______ ____
ROOT
ATOM      1  N   UNL     1      -0.844   1.421  -1.133  0.00  0.00    -0.300 N 
ATOM      2  C   UNL     1      -0.794   0.666  -2.249  0.00  0.00    +0.245 C 
ATOM      3  O   UNL     1      -0.063  -0.304  -2.294  0.00  0.00    -0.270 OA
ATOM      4  H   UNL     1      -1.505   2.299  -1.092  0.00  0.00    +0.150 HD
ENDROOT
BRANCH   2   5
ATOM      5  C   UNL     1      -1.629   1.018  -3.417  0.00  0.00    +0.037 A 
ATOM      6  C   UNL     1      -2.474   2.128  -3.366  0.00  0.00    +0.013 A 
ATOM      7  C   UNL     1      -3.247   2.454  -4.462  0.00  0.00    +0.005 A 
ATOM      8  C   UNL     1      -3.193   1.677  -5.605  0.00  0.00    -0.041 A 
ATOM      9  C   UNL     1      -2.361   0.573  -5.661  0.00  0.00    +0.005 A 
ATOM     10  C   UNL     1      -1.580   0.239  -4.574  0.00  0.00    +0.013 A 
BRANCH   8  11
ATOM     11  C   UNL     1      -4.045   2.035  -6.796  0.00  0.00    -0.003 C 
ATOM     12  C   UNL     1      -4.989   0.874  -7.115  0.00  0.00    +0.015 C 
ATOM     13  C   UNL     1      -5.854   1.237  -8.323  0.00  0.00    -0.010 C 
ATOM     14  C   UNL     1      -6.674   2.489  -8.005  0.00  0.00    +0.007 C 
ATOM     15  C   UNL     1      -5.730   3.650  -7.686  0.00  0.00    -0.010 C 
ATOM     16  C   UNL     1      -4.865   3.287  -6.478  0.00  0.00    +0.015 C 
ATOM     17  C   UNL     1      -4.831   3.922  -8.894  0.00  0.00    +0.007 C 
ATOM     18  C   UNL     1      -4.011   2.671  -9.212  0.00  0.00    -0.010 C 
ATOM     19  C   UNL     1      -4.955   1.510  -9.530  0.00  0.00    +0.007 C 
ATOM     20  C   UNL     1      -3.146   2.307  -8.003  0.00  0.00    +0.015 C 
ENDBRANCH   8  11
ENDBRANCH   2   5
BRANCH   1  21
ATOM     21  C   UNL     1      -0.017   1.072   0.025  0.00  0.00    +0.162 C 
BRANCH  21  22
ATOM     22  C   UNL     1      -0.651   1.618   1.278  0.00  0.00    +0.236 C 
ATOM     23  O   UNL     1      -1.425   2.549   1.210  0.00  0.00    -0.274 OA
ATOM     24  N   UNL     1      -0.358   1.071   2.474  0.00  0.00    -0.300 N 
ATOM     25  C   UNL     1       0.661   0.019   2.587  0.00  0.00    +0.106 C 
ATOM     26  C   UNL     1       1.687   0.444   3.648  0.00  0.00    +0.004 C 
ATOM     27  C   UNL     1       0.959   0.757   4.957  0.00  0.00    -0.066 C 
ATOM     28  C   UNL     1      -0.014   1.917   4.737  0.00  0.00    +0.004 C 
ATOM     29  C   UNL     1      -1.056   1.512   3.690  0.00  0.00    +0.106 C 
BRANCH  27  30
ATOM     30  N   UNL     1       1.940   1.130   5.986  0.00  0.00    +0.382 N 
ATOM     31  C   UNL     1       2.717   2.305   5.570  0.00  0.00    -0.078 C 
ATOM     32  C   UNL     1       3.623   2.751   6.720  0.00  0.00    -0.019 C 
ATOM     33  C   UNL     1       4.562   1.603   7.099  0.00  0.00    -0.004 C 
ATOM     34  C   UNL     1       3.728   0.377   7.481  0.00  0.00    -0.019 C 
ATOM     35  C   UNL     1       2.819  -0.001   6.309  0.00  0.00    -0.078 C 
ATOM     36  H   UNL     1       1.389   1.399   6.899  0.00  0.00    -0.081 HD
ENDBRANCH  27  30
ENDBRANCH  21  22
BRANCH  21  38
ATOM     37  C   UNL     1       2.075   1.024  -1.341  0.00  0.00    +0.009 C 
ATOM     38  C   UNL     1       1.379   1.676  -0.145  0.00  0.00    +0.012 C 
ATOM     39  C   UNL     1       1.257   3.182  -0.385  0.00  0.00    +0.009 C 
ENDBRANCH  21  38
ENDBRANCH   1  21
TORSDOF 6
