REMARK  Name = ZINC40222115
REMARK  5 active torsions:
REMARK  status: ('A' for Active; 'I' for Inactive)
REMARK    1  A    between atoms: C_1  and  C_2
REMARK    2  A    between atoms: C_4  and  C_8
REMARK    3  A    between atoms: C_5  and  C_7
REMARK    4  A    between atoms: N_10  and  C_11
REMARK    5  A    between atoms: C_11  and  C_19
REMARK                            x       y       z     vdW  Elec       q    Type
REMARK                         _______ _______ _______ _____ _____    ______ ____
ROOT
ATOM      1  C   UNL     1      -1.364  -3.418  -0.011  0.00  0.00    +0.249 C 
ATOM      2  O   UNL     1      -0.804  -4.497  -0.020  0.00  0.00    -0.270 OA
ATOM      3  N   UNL     1      -2.711  -3.358  -0.005  0.00  0.00    -0.293 N 
ATOM      4  H   UNL     1      -3.158  -2.498   0.002  0.00  0.00    +0.151 HD
ENDROOT
BRANCH   3   5
ATOM      5  C   UNL     1      -3.510  -4.611  -0.008  0.00  0.00    +0.121 C 
ATOM      6  C   UNL     1      -3.045  -5.427   1.200  0.00  0.00    +0.041 C 
ATOM      7  C   UNL     1      -4.160  -5.641   2.231  0.00  0.00    +0.003 C 
ATOM      8  C   UNL     1      -4.617  -7.113   2.129  0.00  0.00    +0.000 C 
ATOM      9  C   UNL     1      -5.407  -7.314   0.843  0.00  0.00    +0.000 C 
ATOM     10  C   UNL     1      -6.399  -6.178   0.635  0.00  0.00    +0.000 C 
ATOM     11  C   UNL     1      -5.936  -5.274  -0.502  0.00  0.00    +0.003 C 
ATOM     12  C   UNL     1      -4.968  -4.216   0.001  0.00  0.00    +0.041 C 
BRANCH   5  13
ATOM     13  C   UNL     1      -3.143  -5.331  -1.243  0.00  0.00    +0.088 C 
ATOM     14  N   UNL     1      -2.861  -5.885  -2.193  0.00  0.00    -0.194 NA
ENDBRANCH   5  13
ENDBRANCH   3   5
BRANCH   1  18
ATOM     15  C   UNL     1      -0.018   1.503   0.010  0.00  0.00    +0.086 C 
ATOM     16  C   UNL     1       0.002  -0.004   0.002  0.00  0.00    +0.103 A 
ATOM     17  C   UNL     1      -1.081  -0.797   0.003  0.00  0.00    +0.057 A 
ATOM     18  C   UNL     1      -0.571  -2.176  -0.008  0.00  0.00    +0.078 A 
ATOM     19  C   UNL     1       0.788  -2.066  -0.014  0.00  0.00    +0.114 A 
ATOM     20  O   UNL     1       1.106  -0.767  -0.013  0.00  0.00    -0.464 OA
ATOM     21  C   UNL     1       1.766  -3.212  -0.026  0.00  0.00    +0.087 C 
ENDBRANCH   1  18
TORSDOF 3
