REMARK  Name = ZINC44676020
REMARK  5 active torsions:
REMARK  status: ('A' for Active; 'I' for Inactive)
REMARK    1  A    between atoms: C_13  and  C_14
REMARK    2  A    between atoms: C_14  and  O_15
REMARK    3  A    between atoms: O_15  and  C_16
REMARK    4  A    between atoms: C_22  and  C_25
REMARK    5  A    between atoms: N_26  and  O_27
REMARK                            x       y       z     vdW  Elec       q    Type
REMARK                         _______ _______ _______ _____ _____    ______ ____
ROOT
ATOM      1  C   UNL     1       6.425  -1.601   2.147  0.00  0.00    +0.406 C 
ATOM      2  O   UNL     1       6.226  -0.861   3.090  0.00  0.00    -0.226 OA
ATOM      3  N   UNL     1       7.517  -2.391   2.129  0.00  0.00    -0.236 N 
ATOM      4  C   UNL     1       8.471  -2.283   3.137  0.00  0.00    +0.127 A 
ATOM      5  C   UNL     1       9.645  -3.025   3.053  0.00  0.00    +0.044 A 
ATOM      6  C   UNL     1      10.587  -2.913   4.056  0.00  0.00    +0.016 A 
ATOM      7  C   UNL     1      10.320  -2.049   5.127  0.00  0.00    +0.036 A 
ATOM      8  C   UNL     1       9.121  -1.338   5.140  0.00  0.00    +0.124 A 
ATOM      9  N   UNL     1       8.251  -1.470   4.159  0.00  0.00    -0.239 NA
ATOM     10  H   UNL     1       7.638  -3.034   1.413  0.00  0.00    +0.160 HD
ENDROOT
BRANCH   7  11
ATOM     11  C   UNL     1      11.296  -1.893   6.227  0.00  0.00    +0.164 C 
ATOM     12  N   UNL     1      12.413  -2.562   6.205  0.00  0.00    -0.071 NA
ATOM     13  N   UNL     1      11.022  -1.037   7.280  0.00  0.00    -0.340 N 
ATOM     14  H   UNL     1      10.190  -0.539   7.296  0.00  0.00    +0.144 HD
ATOM     15  H   UNL     1      11.663  -0.935   8.001  0.00  0.00    +0.144 HD
BRANCH  12  16
ATOM     16  O   UNL     1      13.347  -2.413   7.259  0.00  0.00    -0.408 OA
ATOM     17  H   UNL     1      14.145  -2.949   7.155  0.00  0.00    +0.328 HD
ENDBRANCH  12  16
ENDBRANCH   7  11
BRANCH   1  18
ATOM     18  O   UNL     1       5.554  -1.633   1.120  0.00  0.00    -0.449 OA
BRANCH  18  19
ATOM     19  C   UNL     1       4.419  -0.770   1.206  0.00  0.00    +0.246 C 
BRANCH  19  32
ATOM     20  C   UNL     1      -0.011   1.383   0.003  0.00  0.00    +0.001 A 
ATOM     21  C   UNL     1       1.175   2.095  -0.003  0.00  0.00    +0.000 A 
ATOM     22  C   UNL     1       2.386   1.426  -0.018  0.00  0.00    +0.005 A 
ATOM     23  C   UNL     1       2.413   0.048  -0.026  0.00  0.00    -0.029 A 
ATOM     24  C   UNL     1       1.225  -0.678  -0.019  0.00  0.00    -0.014 A 
ATOM     25  C   UNL     1       0.007   0.004  -0.005  0.00  0.00    +0.009 A 
ATOM     26  C   UNL     1       1.532  -2.130  -0.031  0.00  0.00    -0.014 A 
ATOM     27  C   UNL     1       0.695  -3.247  -0.030  0.00  0.00    +0.009 A 
ATOM     28  C   UNL     1       1.238  -4.514  -0.043  0.00  0.00    +0.001 A 
ATOM     29  C   UNL     1       2.611  -4.685  -0.056  0.00  0.00    +0.000 A 
ATOM     30  C   UNL     1       3.446  -3.582  -0.057  0.00  0.00    +0.005 A 
ATOM     31  C   UNL     1       2.912  -2.311  -0.044  0.00  0.00    -0.029 A 
ATOM     32  C   UNL     1       3.551  -0.944  -0.042  0.00  0.00    +0.088 C 
ENDBRANCH  19  32
ENDBRANCH  18  19
ENDBRANCH   1  18
TORSDOF 5
