REMARK  Name = ZINC36080591
REMARK  5 active torsions:
REMARK  status: ('A' for Active; 'I' for Inactive)
REMARK    1  A    between atoms: C_14  and  C_17
REMARK    2  A    between atoms: C_20  and  O_23
REMARK    3  A    between atoms: O_23  and  C_24
REMARK    4  A    between atoms: C_24  and  C_25
REMARK    5  A    between atoms: C_28  and  N_31
REMARK                            x       y       z     vdW  Elec       q    Type
REMARK                         _______ _______ _______ _____ _____    ______ ____
ROOT
ATOM      1  C   UNL     1       4.918  -2.493   0.680  0.00  0.00    -0.027 A 
ATOM      2  C   UNL     1       5.109  -1.937   1.931  0.00  0.00    +0.009 A 
ATOM      3  C   UNL     1       6.196  -2.313   2.696  0.00  0.00    +0.046 A 
ATOM      4  C   UNL     1       7.096  -3.249   2.208  0.00  0.00    +0.121 A 
ATOM      5  C   UNL     1       6.901  -3.806   0.952  0.00  0.00    +0.046 A 
ATOM      6  C   UNL     1       5.810  -3.430   0.193  0.00  0.00    +0.009 A 
ENDROOT
BRANCH   1  18
ATOM      7  C   UNL     1      -0.017   1.376   0.010  0.00  0.00    +0.000 A 
ATOM      8  C   UNL     1       1.170   2.087   0.002  0.00  0.00    +0.002 A 
ATOM      9  C   UNL     1       2.373   1.412  -0.019  0.00  0.00    +0.023 A 
ATOM     10  C   UNL     1       2.394   0.020  -0.031  0.00  0.00    +0.031 A 
ATOM     11  C   UNL     1       1.208  -0.691  -0.012  0.00  0.00    -0.019 A 
ATOM     12  C   UNL     1       0.002  -0.004   0.002  0.00  0.00    +0.006 A 
ATOM     13  C   UNL     1       1.172  -2.193   0.012  0.00  0.00    +0.049 C 
ATOM     14  C   UNL     1       0.262  -2.619   1.154  0.00  0.00    -0.023 C 
ATOM     15  C   UNL     1       0.967  -2.997   2.188  0.00  0.00    -0.030 C 
ATOM     16  C   UNL     1       2.450  -2.896   1.899  0.00  0.00    +0.033 C 
ATOM     17  C   UNL     1       2.524  -2.820   0.342  0.00  0.00    +0.029 C 
ATOM     18  C   UNL     1       3.731  -2.080  -0.153  0.00  0.00    +0.105 C 
ATOM     19  N   UNL     1       3.619  -0.637  -0.068  0.00  0.00    -0.336 N 
ATOM     20  H   UNL     1       4.431  -0.107  -0.061  0.00  0.00    +0.147 HD
ENDBRANCH   1  18
BRANCH   4  21
ATOM     21  O   UNL     1       8.166  -3.621   2.958  0.00  0.00    -0.487 OA
BRANCH  21  22
ATOM     22  C   UNL     1       9.051  -4.590   2.392  0.00  0.00    +0.264 C 
BRANCH  22  23
ATOM     23  C   UNL     1      10.170  -4.875   3.360  0.00  0.00    -0.010 A 
ATOM     24  C   UNL     1      11.329  -4.123   3.318  0.00  0.00    +0.009 A 
ATOM     25  C   UNL     1      12.356  -4.385   4.206  0.00  0.00    +0.033 A 
ATOM     26  C   UNL     1      12.223  -5.398   5.137  0.00  0.00    +0.126 A 
ATOM     27  C   UNL     1      11.063  -6.149   5.180  0.00  0.00    +0.033 A 
ATOM     28  C   UNL     1      10.035  -5.885   4.295  0.00  0.00    +0.009 A 
BRANCH  26  29
ATOM     29  N   UNL     1      13.322  -5.679   6.088  0.00  0.00    +0.056 N 
ATOM     30  O   UNL     1      14.336  -5.023   6.050  0.00  0.00    -0.126 OA
ATOM     31  O   UNL     1      13.205  -6.565   6.902  0.00  0.00    -0.126 OA
ENDBRANCH  26  29
ENDBRANCH  22  23
ENDBRANCH  21  22
ENDBRANCH   4  21
TORSDOF 5
