REMARK  Name = ZINC44174146
REMARK  4 active torsions:
REMARK  status: ('A' for Active; 'I' for Inactive)
REMARK    1  A    between atoms: C_6  and  N_7
REMARK    2  A    between atoms: C_13  and  C_15
REMARK    3  A    between atoms: C_15  and  C_16
REMARK    4  A    between atoms: C_22  and  C_24
REMARK                            x       y       z     vdW  Elec       q    Type
REMARK                         _______ _______ _______ _____ _____    ______ ____
ROOT
ATOM      1  N   UNL     1      -1.198  -0.720   0.010  0.00  0.00    -0.327 N 
ATOM      2  C   UNL     1      -2.485  -0.022   0.130  0.00  0.00    +0.124 C 
ATOM      3  C   UNL     1      -3.373  -0.424  -1.054  0.00  0.00    +0.126 C 
ATOM      4  N   UNL     1      -3.371  -1.889  -1.167  0.00  0.00    -0.298 N 
ATOM      5  C   UNL     1      -2.083  -2.588  -1.287  0.00  0.00    +0.126 C 
ATOM      6  C   UNL     1      -1.195  -2.185  -0.108  0.00  0.00    +0.124 C 
ATOM      7  C   UNL     1      -4.528  -2.580  -1.159  0.00  0.00    +0.221 C 
ATOM      8  O   UNL     1      -5.584  -1.993  -1.059  0.00  0.00    -0.275 OA
ENDROOT
BRANCH   1  14
ATOM      9  C   UNL     1       1.216  -0.680   0.004  0.00  0.00    +0.024 A 
ATOM     10  C   UNL     1       2.401   0.030  -0.004  0.00  0.00    +0.023 A 
ATOM     11  C   UNL     1       2.380   1.413  -0.013  0.00  0.00    +0.059 A 
ATOM     12  C   UNL     1       1.171   2.090  -0.014  0.00  0.00    +0.061 A 
ATOM     13  C   UNL     1      -0.017   1.385  -0.007  0.00  0.00    +0.044 A 
ATOM     14  C   UNL     1       0.002  -0.004   0.002  0.00  0.00    +0.031 A 
ATOM     15 CL   UNL     1       1.149   3.826  -0.025  0.00  0.00    -0.082 Cl
ATOM     16 CL   UNL     1       3.871   2.302  -0.021  0.00  0.00    -0.082 Cl
ENDBRANCH   1  14
BRANCH   7  17
ATOM     17  C   UNL     1      -4.509  -4.083  -1.275  0.00  0.00    +0.152 C 
BRANCH  17  18
ATOM     18  C   UNL     1      -5.922  -4.606  -1.242  0.00  0.00    +0.059 A 
ATOM     19  C   UNL     1      -6.405  -5.404  -2.226  0.00  0.00    +0.072 A 
ATOM     20  S   UNL     1      -8.068  -5.684  -1.642  0.00  0.00    -0.060 S 
ATOM     21  C   UNL     1      -7.976  -4.771  -0.231  0.00  0.00    +0.165 A 
ATOM     22  N   UNL     1      -6.742  -4.314  -0.250  0.00  0.00    -0.229 NA
ATOM     23  N   UNL     1      -8.961  -4.557   0.726  0.00  0.00    -0.264 N 
ATOM     24  C   UNL     1     -10.178  -5.119   0.578  0.00  0.00    +0.222 C 
ATOM     25  O   UNL     1     -10.412  -5.811  -0.390  0.00  0.00    -0.275 OA
ATOM     26  H   UNL     1      -8.774  -4.003   1.500  0.00  0.00    +0.157 HD
BRANCH  24  27
ATOM     27  C   UNL     1     -11.246  -4.886   1.615  0.00  0.00    +0.075 C 
ATOM     28  C   UNL     1     -11.666  -6.079   2.475  0.00  0.00    +0.013 C 
ATOM     29  C   UNL     1     -12.606  -5.551   1.389  0.00  0.00    +0.013 C 
ENDBRANCH  24  27
ENDBRANCH  17  18
ENDBRANCH   7  17
TORSDOF 4
