REMARK  Name = ZINC66651266
REMARK  10 active torsions:
REMARK  status: ('A' for Active; 'I' for Inactive)
REMARK    1  A    between atoms: C_1  and  C_2
REMARK    2  A    between atoms: C_7  and  N_10
REMARK    3  A    between atoms: C_11  and  C_13
REMARK    4  A    between atoms: C_13  and  N_14
REMARK    5  A    between atoms: C_20  and  C_22
REMARK    6  A    between atoms: C_22  and  C_24
REMARK    7  A    between atoms: C_22  and  N_28
REMARK    8  A    between atoms: C_24  and  C_25
REMARK    9  A    between atoms: C_25  and  C_26
REMARK   10  A    between atoms: C_25  and  C_27
REMARK                            x       y       z     vdW  Elec       q    Type
REMARK                         _______ _______ _______ _____ _____    ______ ____
ROOT
ATOM      1  N   UNL     1       3.330  -5.577   3.359  0.00  0.00    -0.291 NA
ATOM      2  C   UNL     1       4.367  -5.526   2.321  0.00  0.00    +0.104 C 
ATOM      3  C   UNL     1       4.779  -6.952   1.943  0.00  0.00    +0.123 C 
ATOM      4  N   UNL     1       5.162  -7.668   3.170  0.00  0.00    -0.298 N 
ATOM      5  C   UNL     1       4.229  -7.649   4.307  0.00  0.00    +0.123 C 
ATOM      6  C   UNL     1       3.839  -6.194   4.591  0.00  0.00    +0.104 C 
ATOM      7  C   UNL     1       6.336  -8.325   3.249  0.00  0.00    +0.236 C 
ATOM      8  O   UNL     1       7.093  -8.331   2.302  0.00  0.00    -0.274 OA
ENDROOT
BRANCH   1   9
ATOM      9  C   UNL     1       2.785  -4.239   3.627  0.00  0.00    +0.180 C 
BRANCH   9  11
ATOM     10  N   UNL     1       1.471  -2.526   2.420  0.00  0.00    -0.311 N 
ATOM     11  C   UNL     1       2.056  -3.740   2.406  0.00  0.00    +0.227 C 
ATOM     12  O   UNL     1       1.996  -4.431   1.411  0.00  0.00    -0.274 OA
ATOM     13  H   UNL     1       1.520  -1.974   3.216  0.00  0.00    +0.149 HD
BRANCH  10  19
ATOM     14  C   UNL     1      -0.019   1.526   0.010  0.00  0.00    +0.007 C 
ATOM     15  C   UNL     1       0.002  -0.004   0.002  0.00  0.00    -0.012 C 
ATOM     16  C   UNL     1      -1.433  -0.534   0.013  0.00  0.00    +0.003 C 
ATOM     17  C   UNL     1      -1.413  -2.063   0.004  0.00  0.00    +0.002 C 
ATOM     18  C   UNL     1      -0.673  -2.570   1.244  0.00  0.00    +0.022 C 
ATOM     19  C   UNL     1       0.763  -2.041   1.233  0.00  0.00    +0.073 C 
ATOM     20  C   UNL     1       0.742  -0.511   1.242  0.00  0.00    +0.025 C 
ENDBRANCH  10  19
ENDBRANCH   9  11
ENDBRANCH   1   9
BRANCH   7  21
ATOM     21  C   UNL     1       6.708  -9.053   4.516  0.00  0.00    +0.161 C 
BRANCH  21  22
ATOM     22  N   UNL     1       8.157  -9.266   4.548  0.00  0.00    -0.288 N 
ATOM     23  C   UNL     1       8.755  -9.980   3.575  0.00  0.00    +0.298 C 
ATOM     24  O   UNL     1       8.092 -10.448   2.669  0.00  0.00    -0.253 OA
ATOM     25  N   UNL     1      10.088 -10.177   3.605  0.00  0.00    -0.313 N 
ATOM     26  H   UNL     1       8.686  -8.893   5.271  0.00  0.00    +0.151 HD
ATOM     27  H   UNL     1      10.617  -9.803   4.327  0.00  0.00    +0.146 HD
ATOM     28  H   UNL     1      10.519 -10.691   2.904  0.00  0.00    +0.146 HD
ENDBRANCH  21  22
BRANCH  21  29
ATOM     29  C   UNL     1       5.992 -10.404   4.557  0.00  0.00    +0.034 C 
BRANCH  29  30
ATOM     30  C   UNL     1       6.271 -11.088   5.897  0.00  0.00    -0.015 C 
ATOM     31  C   UNL     1       5.649 -10.266   7.027  0.00  0.00    +0.007 C 
ATOM     32  C   UNL     1       5.660 -12.491   5.890  0.00  0.00    +0.007 C 
ENDBRANCH  29  30
ENDBRANCH  21  29
ENDBRANCH   7  21
TORSDOF 7
