REMARK  Name = ZINC39736453
REMARK  10 active torsions:
REMARK  status: ('A' for Active; 'I' for Inactive)
REMARK    1  A    between atoms: C_1  and  C_2
REMARK    2  A    between atoms: C_2  and  C_3
REMARK    3  A    between atoms: C_3  and  N_4
REMARK    4  A    between atoms: C_10  and  N_21
REMARK    5  A    between atoms: C_11  and  C_12
REMARK    6  A    between atoms: C_22  and  C_24
REMARK    7  A    between atoms: C_24  and  C_25
REMARK    8  A    between atoms: C_25  and  S_26
REMARK    9  A    between atoms: S_26  and  C_27
REMARK   10  A    between atoms: C_30  and  C_33
REMARK                            x       y       z     vdW  Elec       q    Type
REMARK                         _______ _______ _______ _____ _____    ______ ____
ROOT
ATOM      1  N   UNL     1      -1.413  -2.002   0.005  0.00  0.00    -0.297 NA
ATOM      2  C   UNL     1      -2.761  -2.546  -0.213  0.00  0.00    +0.089 C 
ATOM      3  C   UNL     1      -2.677  -4.027  -0.592  0.00  0.00    +0.052 C 
ATOM      4  C   UNL     1      -1.819  -4.739   0.450  0.00  0.00    -0.023 A 
ATOM      5  C   UNL     1      -1.006  -4.017   1.259  0.00  0.00    +0.009 A 
ATOM      6  S   UNL     1      -0.217  -5.217   2.293  0.00  0.00    -0.076 S 
ATOM      7  C   UNL     1      -0.981  -6.688   1.631  0.00  0.00    +0.082 A 
ATOM      8  C   UNL     1      -1.808  -6.174   0.645  0.00  0.00    +0.039 A 
ATOM      9  C   UNL     1      -0.835  -2.530   1.255  0.00  0.00    +0.127 C 
ENDROOT
BRANCH   8  10
ATOM     10  C   UNL     1      -2.650  -7.059  -0.177  0.00  0.00    +0.112 A 
ATOM     11  N   UNL     1      -3.481  -6.741  -1.149  0.00  0.00    -0.239 NA
ATOM     12  C   UNL     1      -4.194  -7.666  -1.823  0.00  0.00    +0.079 A 
ATOM     13  C   UNL     1      -5.114  -7.461  -2.878  0.00  0.00    +0.029 A 
ATOM     14  C   UNL     1      -5.761  -8.520  -3.459  0.00  0.00    +0.002 A 
ATOM     15  C   UNL     1      -5.542  -9.823  -3.037  0.00  0.00    +0.001 A 
ATOM     16  C   UNL     1      -4.650 -10.061  -2.007  0.00  0.00    +0.017 A 
ATOM     17  C   UNL     1      -3.996  -9.007  -1.420  0.00  0.00    +0.040 A 
ATOM     18  S   UNL     1      -2.800  -8.839  -0.116  0.00  0.00    -0.067 S 
ENDBRANCH   8  10
BRANCH   7  19
ATOM     19  N   UNL     1      -0.793  -8.013   2.009  0.00  0.00    -0.279 N 
ATOM     20  C   UNL     1       0.066  -8.316   3.002  0.00  0.00    +0.218 C 
ATOM     21  O   UNL     1       0.676  -7.432   3.567  0.00  0.00    -0.275 OA
ATOM     22  H   UNL     1      -1.280  -8.720   1.557  0.00  0.00    +0.155 HD
BRANCH  20  23
ATOM     23  C   UNL     1       0.270  -9.752   3.411  0.00  0.00    +0.107 C 
BRANCH  23  24
ATOM     24  C   UNL     1       1.288  -9.818   4.551  0.00  0.00    +0.083 C 
BRANCH  24  25
ATOM     25  S   UNL     1       1.533 -11.547   5.043  0.00  0.00    -0.125 S 
BRANCH  25  26
ATOM     26  C   UNL     1       2.716 -11.456   6.346  0.00  0.00    +0.008 A 
ATOM     27  C   UNL     1       3.212 -10.222   6.751  0.00  0.00    +0.015 A 
ATOM     28  C   UNL     1       4.139 -10.155   7.772  0.00  0.00    +0.004 A 
ATOM     29  C   UNL     1       4.573 -11.312   8.393  0.00  0.00    -0.050 A 
ATOM     30  C   UNL     1       4.081 -12.541   7.993  0.00  0.00    +0.004 A 
ATOM     31  C   UNL     1       3.149 -12.616   6.976  0.00  0.00    +0.015 A 
ATOM     32  C   UNL     1       5.584 -11.234   9.507  0.00  0.00    +0.044 C 
ENDBRANCH  25  26
ENDBRANCH  24  25
ENDBRANCH  23  24
ENDBRANCH  20  23
ENDBRANCH   7  19
BRANCH   1  33
ATOM     33  C   UNL     1      -1.433  -0.534   0.013  0.00  0.00    +0.084 C 
BRANCH  33  35
ATOM     34  C   UNL     1      -0.019   1.526   0.010  0.00  0.00    +0.005 C 
ATOM     35  C   UNL     1       0.002  -0.004   0.002  0.00  0.00    +0.012 C 
ENDBRANCH  33  35
ENDBRANCH   1  33
TORSDOF 8
