REMARK  Name = ZINC35926416
REMARK  8 active torsions:
REMARK  status: ('A' for Active; 'I' for Inactive)
REMARK    1  A    between atoms: C_1  and  C_2
REMARK    2  A    between atoms: C_2  and  C_3
REMARK    3  A    between atoms: C_3  and  C_4
REMARK    4  A    between atoms: C_4  and  C_5
REMARK    5  A    between atoms: C_5  and  C_6
REMARK    6  A    between atoms: C_21  and  C_23
REMARK    7  A    between atoms: C_23  and  N_24
REMARK    8  A    between atoms: N_27  and  C_30
REMARK                            x       y       z     vdW  Elec       q    Type
REMARK                         _______ _______ _______ _____ _____    ______ ____
ROOT
ATOM      1  C   UNL     1      -2.828  -4.100   0.007  0.00  0.00    +0.216 C 
ATOM      2  O   UNL     1      -1.769  -4.692  -0.006  0.00  0.00    -0.276 OA
ATOM      3  N   UNL     1      -3.985  -4.790   0.014  0.00  0.00    -0.300 N 
ATOM      4  C   UNL     1      -3.908  -6.250   0.012  0.00  0.00    +0.109 C 
ATOM      5  C   UNL     1      -4.063  -6.731   1.441  0.00  0.00    +0.038 C 
ATOM      6  C   UNL     1      -5.544  -6.893   1.790  0.00  0.00    +0.109 C 
ATOM      7  N   UNL     1      -6.373  -5.800   1.260  0.00  0.00    -0.300 N 
ATOM      8  C   UNL     1      -5.981  -4.402   1.319  0.00  0.00    +0.127 C 
ATOM      9  C   UNL     1      -5.198  -4.048   0.030  0.00  0.00    +0.126 C 
ATOM     10  C   UNL     1      -7.573  -6.115   0.682  0.00  0.00    +0.198 A 
ATOM     11  N   UNL     1      -8.354  -5.121   0.179  0.00  0.00    -0.295 N 
ATOM     12  H   UNL     1      -8.061  -4.198   0.231  0.00  0.00    +0.172 HD
ATOM     13  C   UNL     1      -9.539  -5.424  -0.394  0.00  0.00    +0.253 A 
ATOM     14  O   UNL     1     -10.252  -4.545  -0.850  0.00  0.00    -0.268 OA
ATOM     15  C   UNL     1      -9.935  -6.772  -0.454  0.00  0.00    +0.091 A 
ATOM     16  C   UNL     1      -9.110  -7.726   0.067  0.00  0.00    +0.034 A 
ATOM     17  N   UNL     1      -7.949  -7.377   0.617  0.00  0.00    -0.223 NA
ENDROOT
BRANCH   1  18
ATOM     18  C   UNL     1      -2.848  -2.593   0.015  0.00  0.00    +0.096 C 
BRANCH  18  19
ATOM     19  C   UNL     1      -1.413  -2.063   0.004  0.00  0.00    +0.009 C 
BRANCH  19  20
ATOM     20  C   UNL     1      -1.433  -0.534   0.013  0.00  0.00    +0.000 C 
BRANCH  20  22
ATOM     21  C   UNL     1      -0.019   1.526   0.010  0.00  0.00    +0.004 C 
ATOM     22  C   UNL     1       0.002  -0.004   0.002  0.00  0.00    -0.003 C 
ENDBRANCH  20  22
ENDBRANCH  19  20
ENDBRANCH  18  19
ENDBRANCH   1  18
BRANCH  16  23
ATOM     23  C   UNL     1      -9.512  -9.178   0.016  0.00  0.00    -0.022 C 
BRANCH  23  24
ATOM     24  N   UNL     1      -8.576  -9.914  -0.845  0.00  0.00    +0.385 N 
ATOM     25  C   UNL     1      -8.689  -9.420  -2.223  0.00  0.00    -0.059 C 
ATOM     26  C   UNL     1      -7.635 -10.105  -3.099  0.00  0.00    +0.086 C 
ATOM     27  N   UNL     1      -7.790 -11.562  -2.961  0.00  0.00    -0.332 N 
ATOM     28  C   UNL     1      -7.852 -12.127  -1.605  0.00  0.00    +0.086 C 
ATOM     29  C   UNL     1      -8.896 -11.346  -0.800  0.00  0.00    -0.059 C 
ATOM     30  H   UNL     1      -7.633  -9.770  -0.515  0.00  0.00    -0.081 HD
BRANCH  27  31
ATOM     31  C   UNL     1      -7.876 -12.384  -4.088  0.00  0.00    +0.048 A 
ATOM     32  C   UNL     1      -6.725 -12.926  -4.643  0.00  0.00    +0.024 A 
ATOM     33  C   UNL     1      -6.813 -13.740  -5.756  0.00  0.00    +0.002 A 
ATOM     34  C   UNL     1      -8.047 -14.015  -6.318  0.00  0.00    +0.002 A 
ATOM     35  C   UNL     1      -9.196 -13.477  -5.767  0.00  0.00    +0.022 A 
ATOM     36  C   UNL     1      -9.115 -12.667  -4.651  0.00  0.00    +0.062 A 
ATOM     37 CL   UNL     1     -10.559 -11.998  -3.956  0.00  0.00    -0.082 Cl
ENDBRANCH  27  31
ENDBRANCH  23  24
ENDBRANCH  16  23
TORSDOF 7
