REMARK  Name = ZINC02236884
REMARK  11 active torsions:
REMARK  status: ('A' for Active; 'I' for Inactive)
REMARK    1  A    between atoms: C_1  and  O_2
REMARK    2  A    between atoms: O_2  and  C_3
REMARK    3  A    between atoms: C_7  and  C_11
REMARK    4  A    between atoms: C_8  and  O_9
REMARK    5  A    between atoms: O_9  and  C_10
REMARK    6  A    between atoms: N_12  and  N_13
REMARK    7  A    between atoms: C_14  and  C_25
REMARK    8  A    between atoms: C_29  and  O_33
REMARK    9  A    between atoms: C_30  and  O_31
REMARK   10  A    between atoms: O_31  and  C_32
REMARK   11  A    between atoms: O_33  and  C_34
REMARK                            x       y       z     vdW  Elec       q    Type
REMARK                         _______ _______ _______ _____ _____    ______ ____
ROOT
ATOM      1  N   UNL     1       2.243  -0.855   0.331  0.00  0.00    -0.164 N 
ATOM      2  C   UNL     1       2.484   0.567   0.580  0.00  0.00    +0.219 C 
ATOM      3  N   UNL     1       3.601   1.045  -0.244  0.00  0.00    -0.320 N 
ATOM      4  C   UNL     1       3.650   0.664  -1.580  0.00  0.00    +0.041 A 
ATOM      5  C   UNL     1       4.230   1.464  -2.550  0.00  0.00    +0.024 A 
ATOM      6  C   UNL     1       4.248   1.040  -3.865  0.00  0.00    +0.002 A 
ATOM      7  C   UNL     1       3.690  -0.178  -4.221  0.00  0.00    +0.001 A 
ATOM      8  C   UNL     1       3.109  -0.988  -3.267  0.00  0.00    +0.015 A 
ATOM      9  C   UNL     1       3.087  -0.575  -1.937  0.00  0.00    +0.059 A 
ATOM     10  C   UNL     1       2.489  -1.404  -0.876  0.00  0.00    +0.270 C 
ATOM     11  O   UNL     1       2.220  -2.572  -1.086  0.00  0.00    -0.268 OA
ATOM     12  H   UNL     1       4.289   1.614   0.135  0.00  0.00    +0.148 HD
ENDROOT
BRANCH   2  13
ATOM     13  C   UNL     1       1.242   1.351   0.242  0.00  0.00    +0.038 A 
ATOM     14  C   UNL     1       0.345   0.857  -0.687  0.00  0.00    +0.011 A 
ATOM     15  C   UNL     1      -0.792   1.576  -1.004  0.00  0.00    +0.004 A 
ATOM     16  C   UNL     1      -1.042   2.787  -0.386  0.00  0.00    +0.049 A 
ATOM     17  C   UNL     1      -0.147   3.288   0.545  0.00  0.00    +0.162 A 
ATOM     18  C   UNL     1       1.000   2.566   0.861  0.00  0.00    +0.168 A 
BRANCH  18  19
ATOM     19  O   UNL     1       1.882   3.053   1.774  0.00  0.00    -0.491 OA
ATOM     20  C   UNL     1       2.862   3.979   1.300  0.00  0.00    +0.277 C 
ENDBRANCH  18  19
BRANCH  17  21
ATOM     21  O   UNL     1      -0.390   4.481   1.151  0.00  0.00    -0.491 OA
ATOM     22  C   UNL     1      -1.587   5.166   0.778  0.00  0.00    +0.277 C 
ENDBRANCH  17  21
ENDBRANCH   2  13
BRANCH   1  24
ATOM     23  C   UNL     1       1.419  -1.126   2.502  0.00  0.00    +0.142 C 
ATOM     24  N   UNL     1       1.747  -1.659   1.365  0.00  0.00    -0.183 NA
BRANCH  23  29
ATOM     25  C   UNL     1       0.596  -4.177   4.546  0.00  0.00    +0.162 A 
ATOM     26  C   UNL     1       0.247  -3.597   5.756  0.00  0.00    +0.049 A 
ATOM     27  C   UNL     1       0.279  -2.221   5.907  0.00  0.00    +0.004 A 
ATOM     28  C   UNL     1       0.658  -1.414   4.855  0.00  0.00    +0.013 A 
ATOM     29  C   UNL     1       1.013  -1.985   3.629  0.00  0.00    +0.040 A 
ATOM     30  C   UNL     1       0.975  -3.376   3.475  0.00  0.00    +0.170 A 
BRANCH  25  32
ATOM     31  C   UNL     1       0.158  -6.290   5.545  0.00  0.00    +0.277 C 
ATOM     32  O   UNL     1       0.563  -5.529   4.405  0.00  0.00    -0.491 OA
ENDBRANCH  25  32
BRANCH  30  33
ATOM     33  O   UNL     1       1.312  -3.941   2.286  0.00  0.00    -0.491 OA
ATOM     34  C   UNL     1       2.686  -4.286   2.098  0.00  0.00    +0.277 C 
ENDBRANCH  30  33
ENDBRANCH  23  29
ENDBRANCH   1  24
TORSDOF 7
