REMARK  Name = ZINC09460932
REMARK  2 active torsions:
REMARK  status: ('A' for Active; 'I' for Inactive)
REMARK    1  A    between atoms: C_4  and  C_7
REMARK    2  A    between atoms: C_9  and  C_30
REMARK                            x       y       z     vdW  Elec       q    Type
REMARK                         _______ _______ _______ _____ _____    ______ ____
ROOT
ATOM      1  C   UNL     1       4.341   2.198  -1.227  0.00  0.00    +0.039 C 
ATOM      2  C   UNL     1       3.261   1.429  -1.251  0.00  0.00    +0.028 C 
ATOM      3  C   UNL     1       2.490   1.047  -0.017  0.00  0.00    +0.165 C 
ATOM      4  N   UNL     1       3.259   1.399   1.174  0.00  0.00    -0.220 N 
ATOM      5  C   UNL     1       4.364   2.186   1.151  0.00  0.00    +0.220 A 
ATOM      6  N   UNL     1       4.799   2.309   2.375  0.00  0.00    -0.179 NA
ATOM      7  C   UNL     1       4.008   1.613   3.204  0.00  0.00    +0.251 A 
ATOM      8  N   UNL     1       3.053   1.040   2.505  0.00  0.00    -0.130 NA
ATOM      9  N   UNL     1       4.172   1.512   4.592  0.00  0.00    -0.176 N 
ATOM     10  C   UNL     1       3.338   0.798   5.391  0.00  0.00    +0.233 C 
ATOM     11  O   UNL     1       2.496   0.001   5.035  0.00  0.00    -0.274 OA
ATOM     12  C   UNL     1       3.667   1.188   6.798  0.00  0.00    +0.092 C 
ATOM     13  C   UNL     1       3.585   0.129   7.877  0.00  0.00    +0.040 C 
ATOM     14  C   UNL     1       4.287   0.689   9.097  0.00  0.00    -0.030 C 
ATOM     15  C   UNL     1       5.118   1.687   9.071  0.00  0.00    -0.030 C 
ATOM     16  C   UNL     1       5.529   2.425   7.814  0.00  0.00    +0.040 C 
ATOM     17  C   UNL     1       5.181   1.528   6.644  0.00  0.00    +0.092 C 
ATOM     18  C   UNL     1       5.178   2.125   5.269  0.00  0.00    +0.233 C 
ATOM     19  O   UNL     1       5.923   2.982   4.846  0.00  0.00    -0.274 OA
ATOM     20  N   UNL     1       4.857   2.715  -0.032  0.00  0.00    -0.283 N 
ATOM     21  H   UNL     1       5.531   3.413  -0.032  0.00  0.00    +0.155 HD
ENDROOT
BRANCH   3  22
ATOM     22  C   UNL     1       1.175   1.783   0.000  0.00  0.00    -0.019 A 
ATOM     23  C   UNL     1      -0.013   1.076   0.008  0.00  0.00    +0.007 A 
ATOM     24  C   UNL     1      -1.219   1.750   0.017  0.00  0.00    +0.020 A 
ATOM     25  C   UNL     1      -1.237   3.134   0.031  0.00  0.00    +0.041 A 
ATOM     26  C   UNL     1      -0.048   3.841   0.023  0.00  0.00    +0.020 A 
ATOM     27  C   UNL     1       1.157   3.165   0.008  0.00  0.00    +0.007 A 
ATOM     28 CL   UNL     1      -2.752   3.982   0.050  0.00  0.00    -0.084 Cl
ENDBRANCH   3  22
BRANCH   1  32
ATOM     29  C   UNL     1       6.294   3.120  -4.887  0.00  0.00    +0.000 A 
ATOM     30  C   UNL     1       6.788   3.623  -3.697  0.00  0.00    +0.001 A 
ATOM     31  C   UNL     1       6.159   3.326  -2.505  0.00  0.00    +0.010 A 
ATOM     32  C   UNL     1       5.021   2.520  -2.503  0.00  0.00    -0.004 A 
ATOM     33  C   UNL     1       4.531   2.012  -3.705  0.00  0.00    +0.010 A 
ATOM     34  C   UNL     1       5.166   2.319  -4.891  0.00  0.00    +0.001 A 
ENDBRANCH   1  32
TORSDOF 2
