REMARK  Name = ZINC08890502
REMARK  5 active torsions:
REMARK  status: ('A' for Active; 'I' for Inactive)
REMARK    1  A    between atoms: C_1  and  N_2
REMARK    2  A    between atoms: N_2  and  C_3
REMARK    3  A    between atoms: C_3  and  C_4
REMARK    4  A    between atoms: C_11  and  C_13
REMARK    5  A    between atoms: C_13  and  N_14
REMARK                            x       y       z     vdW  Elec       q    Type
REMARK                         _______ _______ _______ _____ _____    ______ ____
ROOT
ATOM      1  N   UNL     1      -3.329  -0.503   0.194  0.00  0.00    -0.215 N 
ATOM      2  C   UNL     1      -2.219  -0.603   0.958  0.00  0.00    +0.251 C 
ATOM      3  O   UNL     1      -2.128  -0.411   2.152  0.00  0.00    -0.272 OA
ATOM      4  C   UNL     1      -1.120  -1.006   0.010  0.00  0.00    +0.138 C 
ATOM      5  C   UNL     1      -0.496  -2.346   0.419  0.00  0.00    +0.045 C 
ATOM      6  C   UNL     1       0.974  -2.169  -0.023  0.00  0.00    +0.038 C 
ATOM      7  C   UNL     1       1.215  -0.674  -0.014  0.00  0.00    -0.042 A 
ATOM      8  C   UNL     1       0.002  -0.004   0.002  0.00  0.00    -0.012 A 
ATOM      9  C   UNL     1      -0.017   1.381   0.010  0.00  0.00    +0.006 A 
ATOM     10  C   UNL     1       1.166   2.094   0.002  0.00  0.00    +0.000 A 
ATOM     11  C   UNL     1       2.375   1.425  -0.013  0.00  0.00    +0.000 A 
ATOM     12  C   UNL     1       2.398   0.044  -0.021  0.00  0.00    +0.004 A 
ATOM     13  N   UNL     1      -1.775  -1.099  -1.295  0.00  0.00    -0.281 N 
ATOM     14  C   UNL     1      -3.070  -0.787  -1.089  0.00  0.00    +0.310 C 
ATOM     15  O   UNL     1      -3.909  -0.765  -1.968  0.00  0.00    -0.252 OA
ATOM     16  H   UNL     1      -1.360  -1.338  -2.139  0.00  0.00    +0.152 HD
ENDROOT
BRANCH   1  17
ATOM     17  C   UNL     1      -4.650  -0.131   0.706  0.00  0.00    +0.213 C 
BRANCH  17  20
ATOM     18  C   UNL     1      -7.043   1.110   1.581  0.00  0.00    +0.132 C 
ATOM     19  N   UNL     1      -5.956   1.941   1.057  0.00  0.00    -0.299 N 
ATOM     20  C   UNL     1      -4.811   1.366   0.637  0.00  0.00    +0.234 C 
ATOM     21  O   UNL     1      -3.911   2.054   0.203  0.00  0.00    -0.274 OA
BRANCH  19  22
ATOM     22  C   UNL     1      -6.113   3.396   0.990  0.00  0.00    +0.142 C 
BRANCH  22  23
ATOM     23  C   UNL     1      -6.707   3.776  -0.342  0.00  0.00    -0.030 A 
ATOM     24  C   UNL     1      -5.878   4.053  -1.414  0.00  0.00    +0.006 A 
ATOM     25  C   UNL     1      -6.423   4.398  -2.637  0.00  0.00    +0.015 A 
ATOM     26  C   UNL     1      -7.796   4.475  -2.786  0.00  0.00    +0.018 A 
ATOM     27  C   UNL     1      -8.624   4.203  -1.711  0.00  0.00    +0.015 A 
ATOM     28  C   UNL     1      -8.079   3.853  -0.490  0.00  0.00    +0.006 A 
ATOM     29 BR   UNL     1      -8.541   4.952  -4.457  0.00  0.00    -0.050 Br
ENDBRANCH  22  23
ENDBRANCH  19  22
ENDBRANCH  17  20
ENDBRANCH   1  17
TORSDOF 4
