REMARK  Name = ZINC65277522
REMARK  8 active torsions:
REMARK  status: ('A' for Active; 'I' for Inactive)
REMARK    1  A    between atoms: C_1  and  C_2
REMARK    2  A    between atoms: C_2  and  C_3
REMARK    3  A    between atoms: C_6  and  S_8
REMARK    4  A    between atoms: S_8  and  N_11
REMARK    5  A    between atoms: N_11  and  C_12
REMARK    6  A    between atoms: C_12  and  C_13
REMARK    7  A    between atoms: C_12  and  C_14
REMARK    8  A    between atoms: C_17  and  N_20
REMARK                            x       y       z     vdW  Elec       q    Type
REMARK                         _______ _______ _______ _____ _____    ______ ____
ROOT
ATOM      1  C   UNL     1       0.315  -4.133  -5.014  0.00  0.00    +0.103 C 
ATOM      2  C   UNL     1      -0.432  -4.409  -6.321  0.00  0.00    +0.031 C 
ENDROOT
BRANCH   1   3
ATOM      3  C   UNL     1       0.525  -5.428  -4.272  0.00  0.00    -0.029 A 
ATOM      4  C   UNL     1       1.557  -6.273  -4.638  0.00  0.00    +0.007 A 
ATOM      5  C   UNL     1       1.752  -7.461  -3.960  0.00  0.00    +0.023 A 
ATOM      6  C   UNL     1       0.910  -7.806  -2.910  0.00  0.00    +0.030 A 
ATOM      7  C   UNL     1      -0.126  -6.955  -2.546  0.00  0.00    +0.023 A 
ATOM      8  C   UNL     1      -0.311  -5.766  -3.224  0.00  0.00    +0.007 A 
BRANCH   6   9
ATOM      9  N   UNL     1       1.104  -9.006  -2.223  0.00  0.00    -0.326 N 
ATOM     10  C   UNL     1       0.301  -9.338  -1.036  0.00  0.00    +0.133 C 
ATOM     11  C   UNL     1      -0.274 -10.747  -1.219  0.00  0.00    +0.178 C 
ATOM     12  O   UNL     1       0.787 -11.650  -1.540  0.00  0.00    -0.377 OA
ATOM     13  C   UNL     1       1.454 -11.355  -2.769  0.00  0.00    +0.178 C 
ATOM     14  C   UNL     1       2.114  -9.980  -2.669  0.00  0.00    +0.133 C 
ENDBRANCH   6   9
ENDBRANCH   1   3
BRANCH   1  15
ATOM     15  N   UNL     1       1.614  -3.526  -5.313  0.00  0.00    -0.182 NA
ATOM     16  H   UNL     1       2.376  -4.088  -5.521  0.00  0.00    +0.149 HD
BRANCH  15  17
ATOM     17  S   UNL     1       1.781  -1.878  -5.295  0.00  0.00    +0.065 S 
ATOM     18  O   UNL     1       0.712  -1.353  -6.069  0.00  0.00    -0.153 OA
ATOM     19  O   UNL     1       3.143  -1.605  -5.593  0.00  0.00    -0.153 OA
BRANCH  17  23
ATOM     20  C   UNL     1       0.648  -0.494  -1.228  0.00  0.00    -0.009 A 
ATOM     21  C   UNL     1       1.967  -0.757  -1.398  0.00  0.00    +0.013 A 
ATOM     22  C   UNL     1       2.410  -1.193  -2.633  0.00  0.00    +0.036 A 
ATOM     23  C   UNL     1       1.512  -1.345  -3.637  0.00  0.00    +0.143 A 
ATOM     24  S   UNL     1      -0.015  -0.871  -2.842  0.00  0.00    -0.074 S 
BRANCH  20  26
ATOM     25  C   UNL     1      -0.102   1.515   0.016  0.00  0.00    +0.009 C 
ATOM     26  C   UNL     1      -0.073  -0.014   0.005  0.00  0.00    +0.039 C 
ENDBRANCH  20  26
ENDBRANCH  17  23
ENDBRANCH  15  17
ENDBRANCH   1  15
TORSDOF 6
