REMARK  Name = ZINC09950798
REMARK  11 active torsions:
REMARK  status: ('A' for Active; 'I' for Inactive)
REMARK    1  A    between atoms: C_1  and  N_66
REMARK    2  A    between atoms: C_2  and  C_3
REMARK    3  A    between atoms: C_2  and  N_66
REMARK    4  A    between atoms: C_13  and  N_14
REMARK    5  A    between atoms: C_13  and  N_66
REMARK    6  A    between atoms: C_17  and  C_21
REMARK    7  A    between atoms: C_17  and  C_29
REMARK    8  A    between atoms: C_24  and  O_27
REMARK    9  A    between atoms: O_27  and  C_28
REMARK   10  A    between atoms: C_32  and  O_35
REMARK   11  A    between atoms: O_35  and  C_36
REMARK                            x       y       z     vdW  Elec       q    Type
REMARK                         _______ _______ _______ _____ _____    ______ ____
ROOT
ATOM      1  N   UNL     1       0.948   1.848  -0.603  0.00  0.00    -0.241 N 
ATOM      2  C   UNL     1      -0.245   1.234  -0.727  0.00  0.00    +0.254 C 
ATOM      3  O   UNL     1      -0.479   0.201  -1.316  0.00  0.00    -0.272 OA
ATOM      4  C   UNL     1      -1.235   2.107   0.018  0.00  0.00    +0.164 C 
ATOM      5  N   UNL     1      -0.405   3.212   0.530  0.00  0.00    -0.278 N 
ATOM      6  C   UNL     1       0.852   2.974   0.114  0.00  0.00    +0.308 C 
ATOM      7  O   UNL     1       1.794   3.700   0.361  0.00  0.00    -0.252 OA
ATOM      8  H   UNL     1      -0.707   3.966   1.060  0.00  0.00    +0.152 HD
ENDROOT
BRANCH   4   9
ATOM      9  C   UNL     1      -2.294   2.627  -0.919  0.00  0.00    -0.011 A 
ATOM     10  C   UNL     1      -2.617   3.971  -0.918  0.00  0.00    +0.010 A 
ATOM     11  C   UNL     1      -3.584   4.451  -1.780  0.00  0.00    +0.046 A 
ATOM     12  C   UNL     1      -4.239   3.581  -2.640  0.00  0.00    +0.120 A 
ATOM     13  C   UNL     1      -3.917   2.231  -2.635  0.00  0.00    +0.046 A 
ATOM     14  C   UNL     1      -2.945   1.758  -1.775  0.00  0.00    +0.010 A 
BRANCH  12  15
ATOM     15  O   UNL     1      -5.195   4.049  -3.485  0.00  0.00    -0.495 OA
ATOM     16  C   UNL     1      -5.475   5.449  -3.435  0.00  0.00    +0.277 C 
ENDBRANCH  12  15
ENDBRANCH   4   9
BRANCH   4  17
ATOM     17  C   UNL     1      -1.861   1.345   1.158  0.00  0.00    -0.011 A 
ATOM     18  C   UNL     1      -2.429   0.106   0.930  0.00  0.00    +0.010 A 
ATOM     19  C   UNL     1      -2.999  -0.597   1.974  0.00  0.00    +0.046 A 
ATOM     20  C   UNL     1      -3.011  -0.052   3.250  0.00  0.00    +0.120 A 
ATOM     21  C   UNL     1      -2.445   1.194   3.475  0.00  0.00    +0.046 A 
ATOM     22  C   UNL     1      -1.871   1.890   2.429  0.00  0.00    +0.010 A 
BRANCH  20  23
ATOM     23  O   UNL     1      -3.576  -0.739   4.278  0.00  0.00    -0.495 OA
ATOM     24  C   UNL     1      -4.139  -2.016   3.973  0.00  0.00    +0.277 C 
ENDBRANCH  20  23
ENDBRANCH   4  17
BRANCH   1  25
ATOM     25  C   UNL     1       2.197   1.345  -1.181  0.00  0.00    +0.043 C 
BRANCH  25  27
ATOM     26  C   UNL     1       1.577   1.132  -3.511  0.00  0.00    -0.093 C 
ATOM     27  N   UNL     1       2.357   1.919  -2.533  0.00  0.00    +0.391 N 
ATOM     28  H   UNL     1       2.008   2.885  -2.528  0.00  0.00    -0.079 HD
BRANCH  27  29
ATOM     29  C   UNL     1       3.785   1.926  -2.913  0.00  0.00    -0.041 C 
BRANCH  29  30
ATOM     30  C   UNL     1       3.944   2.711  -4.190  0.00  0.00    -0.063 A 
ATOM     31  C   UNL     1       3.874   2.051  -5.415  0.00  0.00    +0.002 A 
ATOM     32  C   UNL     1       4.008   2.731  -6.587  0.00  0.00    +0.009 A 
ATOM     33  C   UNL     1       4.232   4.118  -6.564  0.00  0.00    -0.018 A 
ATOM     34  C   UNL     1       4.382   4.853  -7.752  0.00  0.00    +0.008 A 
ATOM     35  C   UNL     1       4.597   6.195  -7.691  0.00  0.00    +0.001 A 
ATOM     36  C   UNL     1       4.673   6.855  -6.466  0.00  0.00    +0.001 A 
ATOM     37  C   UNL     1       4.533   6.176  -5.295  0.00  0.00    +0.008 A 
ATOM     38  C   UNL     1       4.309   4.789  -5.318  0.00  0.00    -0.018 A 
ATOM     39  C   UNL     1       4.159   4.054  -4.129  0.00  0.00    +0.010 A 
ENDBRANCH  29  30
ENDBRANCH  27  29
ENDBRANCH  25  27
ENDBRANCH   1  25
TORSDOF 8
