REMARK  Name = ZINC62370512
REMARK  5 active torsions:
REMARK  status: ('A' for Active; 'I' for Inactive)
REMARK    1  A    between atoms: C_6  and  C_7
REMARK    2  A    between atoms: C_7  and  C_9
REMARK    3  A    between atoms: C_7  and  N_26
REMARK    4  A    between atoms: C_9  and  N_10
REMARK    5  A    between atoms: C_11  and  C_13
REMARK                            x       y       z     vdW  Elec       q    Type
REMARK                         _______ _______ _______ _____ _____    ______ ____
ROOT
ATOM      1  N   UNL     1      -1.770  -0.240   2.321  0.00  0.00    -0.312 N 
ATOM      2  C   UNL     1      -1.980  -0.522   3.622  0.00  0.00    +0.249 C 
ATOM      3  O   UNL     1      -2.166  -1.672   3.972  0.00  0.00    -0.270 OA
ATOM      4  H   UNL     1      -1.692   0.682   2.031  0.00  0.00    +0.149 HD
ENDROOT
BRANCH   2   5
ATOM      5  C   UNL     1      -1.986   0.561   4.618  0.00  0.00    +0.101 A 
ATOM      6  C   UNL     1      -1.887   1.882   4.217  0.00  0.00    +0.028 A 
ATOM      7  C   UNL     1      -1.896   2.901   5.198  0.00  0.00    -0.001 A 
ATOM      8  C   UNL     1      -1.797   4.249   4.818  0.00  0.00    +0.013 A 
ATOM      9  C   UNL     1      -1.807   5.226   5.769  0.00  0.00    +0.039 A 
ATOM     10  C   UNL     1      -1.912   4.898   7.118  0.00  0.00    +0.125 A 
ATOM     11  C   UNL     1      -2.010   3.580   7.515  0.00  0.00    +0.064 A 
ATOM     12  C   UNL     1      -2.003   2.566   6.562  0.00  0.00    +0.052 A 
ATOM     13  N   UNL     1      -2.101   1.248   6.955  0.00  0.00    -0.321 N 
ATOM     14  H   UNL     1      -2.175   1.034   7.898  0.00  0.00    +0.169 HD
ATOM     15  C   UNL     1      -2.102   0.254   6.048  0.00  0.00    +0.261 A 
ATOM     16  O   UNL     1      -2.194  -0.904   6.415  0.00  0.00    -0.267 OA
ATOM     17  F   UNL     1      -1.919   5.880   8.046  0.00  0.00    -0.205 F 
ENDBRANCH   2   5
BRANCH   1  18
ATOM     18  C   UNL     1      -1.658  -1.327   1.344  0.00  0.00    +0.094 C 
BRANCH  18  19
ATOM     19  C   UNL     1      -1.294  -0.747  -0.024  0.00  0.00    -0.020 C 
BRANCH  19  25
ATOM     20  C   UNL     1       0.237   1.222   0.179  0.00  0.00    +0.005 A 
ATOM     21  C   UNL     1       1.502   1.776   0.236  0.00  0.00    +0.038 A 
ATOM     22  C   UNL     1       2.618   0.961   0.149  0.00  0.00    +0.123 A 
ATOM     23  C   UNL     1       2.466  -0.408   0.007  0.00  0.00    +0.038 A 
ATOM     24  C   UNL     1       1.200  -0.959  -0.049  0.00  0.00    +0.005 A 
ATOM     25  C   UNL     1       0.086  -0.145   0.037  0.00  0.00    -0.059 A 
ATOM     26  F   UNL     1       3.855   1.501   0.204  0.00  0.00    -0.205 F 
ENDBRANCH  19  25
BRANCH  19  27
ATOM     27  N   UNL     1      -1.317  -1.817  -1.031  0.00  0.00    +0.385 N 
ATOM     28  C   UNL     1      -2.705  -2.310  -1.222  0.00  0.00    -0.078 C 
ATOM     29  C   UNL     1      -2.658  -2.965  -2.626  0.00  0.00    -0.020 C 
ATOM     30  C   UNL     1      -1.722  -2.021  -3.416  0.00  0.00    -0.020 C 
ATOM     31  C   UNL     1      -0.892  -1.289  -2.345  0.00  0.00    -0.078 C 
ATOM     32  H   UNL     1      -0.713  -2.574  -0.748  0.00  0.00    -0.081 HD
ENDBRANCH  19  27
ENDBRANCH  18  19
ENDBRANCH   1  18
TORSDOF 5
