REMARK  Name = ZINC03442408
REMARK  12 active torsions:
REMARK  status: ('A' for Active; 'I' for Inactive)
REMARK    1  A    between atoms: C_1  and  C_2
REMARK    2  A    between atoms: C_2  and  C_3
REMARK    3  A    between atoms: C_2  and  C_4
REMARK    4  A    between atoms: C_7  and  N_10
REMARK    5  A    between atoms: N_10  and  C_11
REMARK    6  A    between atoms: C_11  and  C_12
REMARK    7  A    between atoms: C_12  and  C_14
REMARK    8  A    between atoms: C_12  and  O_32
REMARK    9  A    between atoms: C_14  and  N_15
REMARK   10  A    between atoms: C_23  and  C_24
REMARK   11  A    between atoms: C_27  and  O_30
REMARK   12  A    between atoms: O_30  and  C_31
REMARK                            x       y       z     vdW  Elec       q    Type
REMARK                         _______ _______ _______ _____ _____    ______ ____
ROOT
ATOM      1  N   UNL     1       0.523   3.311  -0.176  0.00  0.00    -0.337 N 
ATOM      2  C   UNL     1      -0.846   3.397  -0.051  0.00  0.00    +0.050 A 
ATOM      3  C   UNL     1      -1.748   4.452  -0.148  0.00  0.00    +0.026 A 
ATOM      4  C   UNL     1      -3.094   4.220   0.031  0.00  0.00    +0.002 A 
ATOM      5  C   UNL     1      -3.563   2.943   0.307  0.00  0.00    +0.001 A 
ATOM      6  C   UNL     1      -2.696   1.892   0.406  0.00  0.00    +0.010 A 
ATOM      7  C   UNL     1      -1.326   2.103   0.223  0.00  0.00    +0.000 A 
ATOM      8  C   UNL     1      -0.154   1.231   0.265  0.00  0.00    +0.036 A 
ATOM      9  C   UNL     1       0.928   2.010   0.015  0.00  0.00    +0.050 A 
ENDROOT
BRANCH   9  10
ATOM     10  C   UNL     1       2.327   1.535  -0.043  0.00  0.00    -0.001 A 
ATOM     11  C   UNL     1       3.279   2.251  -0.770  0.00  0.00    +0.013 A 
ATOM     12  C   UNL     1       4.584   1.807  -0.817  0.00  0.00    +0.046 A 
ATOM     13  C   UNL     1       4.948   0.643  -0.153  0.00  0.00    +0.120 A 
ATOM     14  C   UNL     1       4.002  -0.074   0.567  0.00  0.00    +0.046 A 
ATOM     15  C   UNL     1       2.697   0.365   0.623  0.00  0.00    +0.013 A 
BRANCH  13  16
ATOM     16  O   UNL     1       6.233   0.206  -0.207  0.00  0.00    -0.495 OA
ATOM     17  C   UNL     1       7.155   0.993  -0.965  0.00  0.00    +0.277 C 
ENDBRANCH  13  16
ENDBRANCH   9  10
BRANCH   1  18
ATOM     18  C   UNL     1       1.415   4.436  -0.469  0.00  0.00    +0.155 C 
BRANCH  18  19
ATOM     19  C   UNL     1       1.476   4.657  -1.982  0.00  0.00    +0.151 C 
BRANCH  19  20
ATOM     20  O   UNL     1       0.194   5.074  -2.455  0.00  0.00    -0.388 OA
ATOM     21  H   UNL     1      -0.124   5.896  -2.059  0.00  0.00    +0.210 HD
ENDBRANCH  19  20
BRANCH  19  22
ATOM     22  C   UNL     1       2.511   5.739  -2.298  0.00  0.00    +0.134 C 
BRANCH  22  23
ATOM     23  N   UNL     1       2.570   5.951  -3.746  0.00  0.00    -0.341 N 
ATOM     24  H   UNL     1       1.999   5.434  -4.335  0.00  0.00    +0.146 HD
BRANCH  23  28
ATOM     25  C   UNL     1       5.189   8.772  -5.333  0.00  0.00    -0.045 A 
ATOM     26  C   UNL     1       4.376   8.036  -6.175  0.00  0.00    +0.006 A 
ATOM     27  C   UNL     1       3.506   7.099  -5.652  0.00  0.00    +0.023 A 
ATOM     28  C   UNL     1       3.449   6.897  -4.279  0.00  0.00    +0.027 A 
ATOM     29  C   UNL     1       4.264   7.642  -3.436  0.00  0.00    +0.023 A 
ATOM     30  C   UNL     1       5.135   8.573  -3.966  0.00  0.00    +0.006 A 
BRANCH  25  32
ATOM     31  C   UNL     1       5.801  11.175  -5.345  0.00  0.00    +0.012 C 
ATOM     32  C   UNL     1       6.138   9.793  -5.907  0.00  0.00    +0.013 C 
ATOM     33  C   UNL     1       7.574   9.425  -5.529  0.00  0.00    +0.012 C 
ENDBRANCH  25  32
ENDBRANCH  23  28
ENDBRANCH  22  23
ENDBRANCH  19  22
ENDBRANCH  18  19
ENDBRANCH   1  18
TORSDOF 9
