REMARK  Name = ZINC05055543
REMARK  6 active torsions:
REMARK  status: ('A' for Active; 'I' for Inactive)
REMARK    1  A    between atoms: C_1  and  C_2
REMARK    2  A    between atoms: C_9  and  N_15
REMARK    3  A    between atoms: C_10  and  C_11
REMARK    4  A    between atoms: N_13  and  C_14
REMARK    5  A    between atoms: C_16  and  C_18
REMARK    6  A    between atoms: C_19  and  C_20
REMARK                            x       y       z     vdW  Elec       q    Type
REMARK                         _______ _______ _______ _____ _____    ______ ____
ROOT
ATOM      1  C   UNL     1       5.255   3.718   0.068  0.00  0.00    +0.008 C 
ATOM      2  C   UNL     1       3.854   3.178   0.362  0.00  0.00    -0.009 C 
ATOM      3  C   UNL     1       2.820   3.950  -0.462  0.00  0.00    +0.008 C 
ATOM      4  C   UNL     1       1.409   3.590   0.006  0.00  0.00    +0.037 C 
ATOM      5  C   UNL     1       1.263   2.073   0.001  0.00  0.00    -0.023 A 
ATOM      6  C   UNL     1       2.348   1.269  -0.013  0.00  0.00    -0.004 A 
ATOM      7  S   UNL     1       1.694  -0.376  -0.016  0.00  0.00    -0.077 S 
ATOM      8  C   UNL     1       0.002  -0.004   0.002  0.00  0.00    +0.085 A 
ATOM      9  C   UNL     1      -0.017   1.384   0.010  0.00  0.00    +0.069 A 
ATOM     10  C   UNL     1       3.785   1.693  -0.023  0.00  0.00    +0.046 C 
ENDROOT
BRANCH   9  11
ATOM     11  C   UNL     1      -1.280   2.127   0.020  0.00  0.00    +0.246 C 
ATOM     12  O   UNL     1      -1.800   2.430   1.078  0.00  0.00    -0.270 OA
ATOM     13  N   UNL     1      -1.867   2.475  -1.143  0.00  0.00    -0.314 N 
ATOM     14  C   UNL     1      -3.130   3.217  -1.133  0.00  0.00    +0.128 C 
ATOM     15  H   UNL     1      -1.453   2.233  -1.986  0.00  0.00    +0.149 HD
ENDBRANCH   9  11
BRANCH   8  16
ATOM     16  N   UNL     1      -1.071  -0.879   0.008  0.00  0.00    -0.276 N 
ATOM     17  C   UNL     1      -0.856  -2.210  -0.001  0.00  0.00    +0.241 C 
ATOM     18  O   UNL     1       0.282  -2.642  -0.015  0.00  0.00    -0.270 OA
ATOM     19  H   UNL     1      -1.978  -0.535   0.019  0.00  0.00    +0.156 HD
BRANCH  17  20
ATOM     20  C   UNL     1      -1.990  -3.135   0.005  0.00  0.00    +0.068 C 
ATOM     21  C   UNL     1      -1.774  -4.466  -0.004  0.00  0.00    +0.013 C 
BRANCH  21  22
ATOM     22  C   UNL     1      -2.915  -5.396   0.002  0.00  0.00    -0.025 A 
ATOM     23  C   UNL     1      -4.224  -4.903   0.024  0.00  0.00    +0.008 A 
ATOM     24  C   UNL     1      -5.287  -5.781   0.023  0.00  0.00    +0.001 A 
ATOM     25  C   UNL     1      -5.062  -7.147   0.014  0.00  0.00    +0.000 A 
ATOM     26  C   UNL     1      -3.770  -7.642  -0.001  0.00  0.00    +0.001 A 
ATOM     27  C   UNL     1      -2.696  -6.777  -0.007  0.00  0.00    +0.008 A 
ENDBRANCH  21  22
ENDBRANCH  17  20
ENDBRANCH   8  16
TORSDOF 4
