REMARK  Name = ZINC22293526
REMARK  12 active torsions:
REMARK  status: ('A' for Active; 'I' for Inactive)
REMARK    1  A    between atoms: C_1  and  C_2
REMARK    2  A    between atoms: C_3  and  C_8
REMARK    3  A    between atoms: C_4  and  C_7
REMARK    4  A    between atoms: C_8  and  O_9
REMARK    5  A    between atoms: O_9  and  C_10
REMARK    6  A    between atoms: C_13  and  C_16
REMARK    7  A    between atoms: C_16  and  C_17
REMARK    8  A    between atoms: C_17  and  N_19
REMARK    9  A    between atoms: C_22  and  C_25
REMARK   10  A    between atoms: C_25  and  N_26
REMARK   11  A    between atoms: C_28  and  C_35
REMARK   12  A    between atoms: C_31  and  C_34
REMARK                            x       y       z     vdW  Elec       q    Type
REMARK                         _______ _______ _______ _____ _____    ______ ____
ROOT
ATOM      1  C   UNL     1       2.078   3.101  -8.354  0.00  0.00    +0.243 C 
ATOM      2  O   UNL     1       1.974   3.729  -7.317  0.00  0.00    -0.273 OA
ENDROOT
BRANCH   1   3
ATOM      3  N   UNL     1       2.235   3.742  -9.505  0.00  0.00    -0.156 NA
ATOM      4  C   UNL     1       2.281   5.076  -9.525  0.00  0.00    +0.163 A 
ATOM      5  N   UNL     1       2.430   5.900 -10.597  0.00  0.00    -0.341 N 
ATOM      6  C   UNL     1       2.449   7.244 -10.393  0.00  0.00    +0.008 A 
ATOM      7  C   UNL     1       2.320   7.676  -9.134  0.00  0.00    +0.067 A 
ATOM      8  S   UNL     1       2.161   6.145  -8.233  0.00  0.00    -0.061 S 
ATOM      9  H   UNL     1       2.520   5.535 -11.491  0.00  0.00    +0.167 HD
BRANCH   6  10
ATOM     10  C   UNL     1       2.611   8.209 -11.540  0.00  0.00    -0.024 C 
BRANCH  10  11
ATOM     11  N   UNL     1       3.939   8.033 -12.144  0.00  0.00    +0.384 N 
ATOM     12  C   UNL     1       4.972   8.400 -11.167  0.00  0.00    -0.075 C 
ATOM     13  C   UNL     1       6.357   8.142 -11.763  0.00  0.00    -0.031 C 
ATOM     14  C   UNL     1       6.527   8.985 -13.030  0.00  0.00    +0.003 C 
ATOM     15  C   UNL     1       5.402   8.647 -14.011  0.00  0.00    -0.031 C 
ATOM     16  C   UNL     1       4.051   8.886 -13.332  0.00  0.00    -0.075 C 
ATOM     17  C   UNL     1       5.517   9.539 -15.249  0.00  0.00    +0.005 C 
ATOM     18  C   UNL     1       7.431   8.527 -10.744  0.00  0.00    +0.005 C 
ATOM     19  H   UNL     1       4.060   7.067 -12.411  0.00  0.00    -0.081 HD
ENDBRANCH  10  11
ENDBRANCH   6  10
ENDBRANCH   1   3
BRANCH   1  20
ATOM     20  C   UNL     1       2.026   1.595  -8.330  0.00  0.00    +0.133 C 
BRANCH  20  24
ATOM     21  C   UNL     1       1.504   0.249  -4.308  0.00  0.00    +0.121 A 
ATOM     22  C   UNL     1       0.397   0.507  -5.104  0.00  0.00    +0.046 A 
ATOM     23  C   UNL     1       0.568   0.942  -6.404  0.00  0.00    +0.007 A 
ATOM     24  C   UNL     1       1.842   1.121  -6.912  0.00  0.00    -0.038 A 
ATOM     25  C   UNL     1       2.946   0.864  -6.121  0.00  0.00    +0.007 A 
ATOM     26  C   UNL     1       2.780   0.435  -4.819  0.00  0.00    +0.046 A 
BRANCH  21  27
ATOM     27  O   UNL     1       1.338  -0.179  -3.029  0.00  0.00    -0.487 OA
BRANCH  27  28
ATOM     28  C   UNL     1      -0.005  -0.348  -2.571  0.00  0.00    +0.269 C 
BRANCH  28  31
ATOM     29  C   UNL     1      -0.018   1.503   0.010  0.00  0.00    +0.069 C 
ATOM     30  C   UNL     1       0.002  -0.004   0.002  0.00  0.00    +0.087 A 
ATOM     31  C   UNL     1       0.008  -0.824  -1.141  0.00  0.00    +0.054 A 
ATOM     32  C   UNL     1       0.027  -2.108  -0.735  0.00  0.00    +0.141 A 
ATOM     33  O   UNL     1       0.034  -2.119   0.606  0.00  0.00    -0.359 OA
ATOM     34  N   UNL     1       0.023  -0.775   1.052  0.00  0.00    -0.083 NA
ATOM     35  C   UNL     1       0.039  -3.320  -1.631  0.00  0.00    +0.089 C 
ENDBRANCH  28  31
ENDBRANCH  27  28
ENDBRANCH  21  27
ENDBRANCH  20  24
ENDBRANCH   1  20
TORSDOF 8
