REMARK  Name = ZINC06771860
REMARK  5 active torsions:
REMARK  status: ('A' for Active; 'I' for Inactive)
REMARK    1  A    between atoms: C_1  and  N_2
REMARK    2  A    between atoms: C_3  and  C_17
REMARK    3  A    between atoms: N_19  and  C_20
REMARK    4  A    between atoms: C_20  and  C_21
REMARK    5  A    between atoms: C_21  and  C_26
REMARK                            x       y       z     vdW  Elec       q    Type
REMARK                         _______ _______ _______ _____ _____    ______ ____
ROOT
ATOM      1  C   UNL     1      -4.519   6.977  -0.246  0.00  0.00    +0.149 C 
ATOM      2  N   UNL     1      -4.219   5.545  -0.180  0.00  0.00    -0.339 N 
ATOM      3  C   UNL     1      -5.153   4.531  -0.102  0.00  0.00    +0.105 A 
ATOM      4  C   UNL     1      -4.499   3.334  -0.057  0.00  0.00    +0.046 A 
ATOM      5  C   UNL     1      -3.119   3.606  -0.108  0.00  0.00    +0.065 A 
ATOM      6  C   UNL     1      -2.977   4.998  -0.184  0.00  0.00    +0.064 A 
ATOM      7  C   UNL     1      -1.621   5.558  -0.249  0.00  0.00    +0.023 A 
ATOM      8  C   UNL     1      -1.422   6.939  -0.321  0.00  0.00    +0.012 A 
ATOM      9  C   UNL     1      -0.142   7.442  -0.387  0.00  0.00    +0.001 A 
ATOM     10  C   UNL     1       0.949   6.585  -0.372  0.00  0.00    +0.002 A 
ATOM     11  C   UNL     1       0.768   5.221  -0.296  0.00  0.00    +0.026 A 
ATOM     12  C   UNL     1      -0.516   4.689  -0.234  0.00  0.00    +0.051 A 
ATOM     13  N   UNL     1      -0.696   3.321  -0.157  0.00  0.00    -0.321 N 
ATOM     14  H   UNL     1       0.107   2.725  -0.147  0.00  0.00    +0.169 HD
ATOM     15  C   UNL     1      -1.920   2.766  -0.096  0.00  0.00    +0.258 A 
ATOM     16  O   UNL     1      -2.032   1.556  -0.029  0.00  0.00    -0.267 OA
ENDROOT
BRANCH   3  17
ATOM     17  C   UNL     1      -6.610   4.711  -0.073  0.00  0.00    +0.261 C 
ATOM     18  O   UNL     1      -7.089   5.820  -0.215  0.00  0.00    -0.269 OA
ATOM     19  N   UNL     1      -7.417   3.647   0.111  0.00  0.00    -0.309 N 
ATOM     20  H   UNL     1      -7.035   2.775   0.298  0.00  0.00    +0.149 HD
BRANCH  19  21
ATOM     21  C   UNL     1      -8.870   3.808   0.029  0.00  0.00    +0.116 C 
BRANCH  21  22
ATOM     22  C   UNL     1      -9.543   2.439   0.151  0.00  0.00    +0.011 C 
ATOM     23  C   UNL     1      -9.019   1.495  -0.946  0.00  0.00    +0.013 C 
ATOM     24  C   UNL     1     -10.240   1.090  -1.798  0.00  0.00    +0.001 C 
ATOM     25  C   UNL     1     -11.258   2.235  -1.571  0.00  0.00    +0.001 C 
ATOM     26  C   UNL     1     -11.063   2.575  -0.072  0.00  0.00    +0.013 C 
BRANCH  22  27
ATOM     27  C   UNL     1      -9.272   1.851   1.512  0.00  0.00    -0.040 A 
ATOM     28  C   UNL     1      -9.691   0.567   1.806  0.00  0.00    +0.004 A 
ATOM     29  C   UNL     1      -9.438   0.025   3.053  0.00  0.00    +0.000 A 
ATOM     30  C   UNL     1      -8.775   0.772   4.009  0.00  0.00    +0.000 A 
ATOM     31  C   UNL     1      -8.360   2.058   3.717  0.00  0.00    +0.000 A 
ATOM     32  C   UNL     1      -8.608   2.597   2.468  0.00  0.00    +0.004 A 
ENDBRANCH  22  27
ENDBRANCH  21  22
ENDBRANCH  19  21
ENDBRANCH   3  17
TORSDOF 4
