REMARK  Name = ZINC17853045
REMARK  10 active torsions:
REMARK  status: ('A' for Active; 'I' for Inactive)
REMARK    1  A    between atoms: C_1  and  C_2
REMARK    2  A    between atoms: C_2  and  C_3
REMARK    3  A    between atoms: C_6  and  C_9
REMARK    4  A    between atoms: C_11  and  C_30
REMARK    5  A    between atoms: C_12  and  C_14
REMARK    6  A    between atoms: N_16  and  C_17
REMARK    7  A    between atoms: C_17  and  C_19
REMARK    8  A    between atoms: C_17  and  C_20
REMARK    9  A    between atoms: C_23  and  S_26
REMARK   10  A    between atoms: S_26  and  N_29
REMARK                            x       y       z     vdW  Elec       q    Type
REMARK                         _______ _______ _______ _____ _____    ______ ____
ROOT
ATOM      1  C   UNL     1      -2.526   3.834   7.140  0.00  0.00    +0.253 C 
ATOM      2  O   UNL     1      -3.507   3.258   7.571  0.00  0.00    -0.270 OA
ATOM      3  N   UNL     1      -2.249   3.801   5.821  0.00  0.00    -0.304 N 
ATOM      4  H   UNL     1      -1.467   4.260   5.478  0.00  0.00    +0.150 HD
ENDROOT
BRANCH   1   8
ATOM      5  C   UNL     1       0.189   5.980   9.341  0.00  0.00    +0.109 A 
ATOM      6  N   UNL     1      -0.809   5.434  10.023  0.00  0.00    -0.243 NA
ATOM      7  C   UNL     1      -1.734   4.729   9.432  0.00  0.00    +0.058 A 
ATOM      8  C   UNL     1      -1.644   4.564   8.056  0.00  0.00    +0.097 A 
ATOM      9  S   UNL     1      -0.150   5.482   7.713  0.00  0.00    -0.062 S 
ATOM     10  C   UNL     1      -2.864   4.113  10.217  0.00  0.00    +0.067 C 
BRANCH   5  14
ATOM     11  C   UNL     1       3.415   8.337  10.783  0.00  0.00    -0.048 A 
ATOM     12  C   UNL     1       2.465   7.856  11.666  0.00  0.00    +0.004 A 
ATOM     13  C   UNL     1       1.414   7.090  11.205  0.00  0.00    +0.011 A 
ATOM     14  C   UNL     1       1.312   6.801   9.843  0.00  0.00    +0.007 A 
ATOM     15  C   UNL     1       2.277   7.284   8.958  0.00  0.00    +0.011 A 
ATOM     16  C   UNL     1       3.319   8.053   9.432  0.00  0.00    +0.004 A 
BRANCH  11  18
ATOM     17  C   UNL     1       5.732   8.262  11.662  0.00  0.00    +0.009 C 
ATOM     18  C   UNL     1       4.560   9.173  11.294  0.00  0.00    +0.032 C 
ENDBRANCH  11  18
ENDBRANCH   5  14
ENDBRANCH   1   8
BRANCH   3  19
ATOM     19  C   UNL     1      -3.131   3.072   4.906  0.00  0.00    +0.100 C 
ATOM     20  C   UNL     1      -4.294   3.974   4.490  0.00  0.00    +0.033 C 
BRANCH  19  21
ATOM     21  C   UNL     1      -2.353   2.659   3.683  0.00  0.00    -0.027 A 
ATOM     22  C   UNL     1      -2.559   1.412   3.122  0.00  0.00    +0.007 A 
ATOM     23  C   UNL     1      -1.846   1.033   2.000  0.00  0.00    +0.029 A 
ATOM     24  C   UNL     1      -0.927   1.900   1.439  0.00  0.00    +0.105 A 
ATOM     25  C   UNL     1      -0.717   3.145   2.004  0.00  0.00    +0.029 A 
ATOM     26  C   UNL     1      -1.434   3.526   3.123  0.00  0.00    +0.007 A 
BRANCH  24  27
ATOM     27  S   UNL     1      -0.017   1.417   0.010  0.00  0.00    +0.056 S 
ATOM     28  O   UNL     1       0.002  -0.004   0.002  0.00  0.00    -0.153 OA
ATOM     29  O   UNL     1       1.172   2.195   0.003  0.00  0.00    -0.153 OA
BRANCH  27  30
ATOM     30  N   UNL     1      -0.897   1.885  -1.312  0.00  0.00    -0.204 NA
ATOM     31  H   UNL     1      -1.201   1.223  -1.952  0.00  0.00    +0.144 HD
ATOM     32  H   UNL     1      -1.110   2.822  -1.446  0.00  0.00    +0.144 HD
ENDBRANCH  27  30
ENDBRANCH  24  27
ENDBRANCH  19  21
ENDBRANCH   3  19
TORSDOF 7
