REMARK  Name = ZINC13719209
REMARK  5 active torsions:
REMARK  status: ('A' for Active; 'I' for Inactive)
REMARK    1  A    between atoms: C_3  and  N_16
REMARK    2  A    between atoms: C_6  and  C_7
REMARK    3  A    between atoms: C_7  and  C_8
REMARK    4  A    between atoms: N_10  and  C_11
REMARK    5  A    between atoms: C_17  and  C_19
REMARK                            x       y       z     vdW  Elec       q    Type
REMARK                         _______ _______ _______ _____ _____    ______ ____
ROOT
ATOM      1  C   UNL     1      -7.186   2.229   0.217  0.00  0.00    +0.006 A 
ATOM      2  C   UNL     1      -5.896   2.713   0.125  0.00  0.00    +0.023 A 
ATOM      3  C   UNL     1      -4.824   1.831   0.122  0.00  0.00    +0.034 A 
ATOM      4  C   UNL     1      -5.053   0.464   0.205  0.00  0.00    +0.023 A 
ATOM      5  C   UNL     1      -6.345  -0.014   0.303  0.00  0.00    +0.006 A 
ATOM      6  C   UNL     1      -7.411   0.867   0.306  0.00  0.00    -0.039 A 
ENDROOT
BRANCH   3   7
ATOM      7  N   UNL     1      -3.516   2.318   0.029  0.00  0.00    -0.279 N 
ATOM      8  C   UNL     1      -3.188   3.485   0.619  0.00  0.00    +0.284 C 
ATOM      9  O   UNL     1      -4.047   4.155   1.161  0.00  0.00    -0.266 OA
ATOM     10  H   UNL     1      -2.845   1.817  -0.460  0.00  0.00    +0.155 HD
BRANCH   8  11
ATOM     11  C   UNL     1      -1.797   3.945   0.609  0.00  0.00    +0.191 A 
ATOM     12  C   UNL     1      -1.330   5.102   1.167  0.00  0.00    +0.056 A 
ATOM     13  C   UNL     1       0.051   5.137   0.927  0.00  0.00    +0.058 A 
ATOM     14  C   UNL     1       0.364   4.016   0.236  0.00  0.00    +0.171 A 
ATOM     15  O   UNL     1      -0.753   3.303   0.044  0.00  0.00    -0.444 OA
ATOM     16 BR   UNL     1       2.093   3.537  -0.361  0.00  0.00    -0.008 Br
ENDBRANCH   8  11
ENDBRANCH   3   7
BRANCH   6  17
ATOM     17  C   UNL     1      -8.820   0.342   0.406  0.00  0.00    +0.130 C 
BRANCH  17  18
ATOM     18  C   UNL     1      -9.361   0.087  -0.977  0.00  0.00    +0.218 C 
ATOM     19  O   UNL     1      -8.670   0.309  -1.948  0.00  0.00    -0.275 OA
ATOM     20  N   UNL     1     -10.612  -0.389  -1.134  0.00  0.00    -0.312 N 
ATOM     21  H   UNL     1     -11.164  -0.567  -0.356  0.00  0.00    +0.149 HD
BRANCH  20  22
ATOM     22  C   UNL     1     -11.138  -0.637  -2.478  0.00  0.00    +0.073 C 
ATOM     23  C   UNL     1     -11.789   0.645  -3.037  0.00  0.00    +0.022 C 
ATOM     24  C   UNL     1     -13.017   0.134  -3.829  0.00  0.00    +0.002 C 
ATOM     25  C   UNL     1     -13.531  -1.032  -2.949  0.00  0.00    +0.002 C 
ATOM     26  C   UNL     1     -12.245  -1.704  -2.422  0.00  0.00    +0.022 C 
ENDBRANCH  20  22
ENDBRANCH  17  18
ENDBRANCH   6  17
TORSDOF 5
