REMARK  Name = ZINC02926096
REMARK  6 active torsions:
REMARK  status: ('A' for Active; 'I' for Inactive)
REMARK    1  A    between atoms: C_1  and  C_2
REMARK    2  A    between atoms: C_3  and  C_29
REMARK    3  A    between atoms: C_4  and  C_22
REMARK    4  A    between atoms: C_10  and  C_15
REMARK    5  A    between atoms: C_29  and  O_31
REMARK    6  A    between atoms: O_31  and  C_32
REMARK                            x       y       z     vdW  Elec       q    Type
REMARK                         _______ _______ _______ _____ _____    ______ ____
ROOT
ATOM      1  C   UNL     1      -0.188  10.450  -3.812  0.00  0.00    +0.061 C 
ATOM      2  C   UNL     1      -0.578   9.932  -2.452  0.00  0.00    +0.016 C 
ATOM      3  C   UNL     1      -0.559  10.759  -1.392  0.00  0.00    +0.065 C 
ATOM      4  C   UNL     1      -0.947  10.280  -0.024  0.00  0.00    +0.092 C 
ATOM      5  C   UNL     1      -0.913   8.774   0.052  0.00  0.00    +0.024 C 
ATOM      6  C   UNL     1      -0.922   8.027  -1.072  0.00  0.00    +0.016 C 
ATOM      7  N   UNL     1      -0.947   8.624  -2.304  0.00  0.00    -0.321 N 
ATOM      8  C   UNL     1      -0.901   6.520  -1.003  0.00  0.00    +0.059 C 
ATOM      9  C   UNL     1      -0.135   6.073   0.244  0.00  0.00    +0.032 C 
ATOM     10  C   UNL     1      -0.818   6.678   1.476  0.00  0.00    +0.088 C 
ATOM     11  C   UNL     1      -0.869   8.173   1.322  0.00  0.00    +0.162 C 
ATOM     12  O   UNL     1      -0.873   8.875   2.314  0.00  0.00    -0.292 OA
ATOM     13  H   UNL     1      -1.269   8.041  -3.179  0.00  0.00    +0.152 HD
ENDROOT
BRANCH   9  14
ATOM     14  C   UNL     1      -0.158   4.569   0.340  0.00  0.00    -0.043 A 
ATOM     15  C   UNL     1       1.029   3.859   0.335  0.00  0.00    +0.005 A 
ATOM     16  C   UNL     1       1.009   2.480   0.423  0.00  0.00    +0.020 A 
ATOM     17  C   UNL     1      -0.198   1.810   0.516  0.00  0.00    +0.041 A 
ATOM     18  C   UNL     1      -1.385   2.521   0.516  0.00  0.00    +0.020 A 
ATOM     19  C   UNL     1      -1.364   3.901   0.434  0.00  0.00    +0.005 A 
ATOM     20 CL   UNL     1      -0.224   0.078   0.627  0.00  0.00    -0.084 Cl
ENDBRANCH   9  14
BRANCH   4  21
ATOM     21  C   UNL     1      -2.340  10.760   0.290  0.00  0.00    -0.035 A 
ATOM     22  C   UNL     1      -3.403  10.361  -0.499  0.00  0.00    +0.006 A 
ATOM     23  C   UNL     1      -4.682  10.797  -0.208  0.00  0.00    +0.020 A 
ATOM     24  C   UNL     1      -4.897  11.640   0.867  0.00  0.00    +0.041 A 
ATOM     25  C   UNL     1      -3.833  12.043   1.653  0.00  0.00    +0.020 A 
ATOM     26  C   UNL     1      -2.555  11.603   1.365  0.00  0.00    +0.006 A 
ATOM     27 CL   UNL     1      -6.503  12.194   1.229  0.00  0.00    -0.084 Cl
ENDBRANCH   4  21
BRANCH   3  28
ATOM     28  C   UNL     1      -0.166  12.106  -1.570  0.00  0.00    +0.338 C 
ATOM     29  O   UNL     1       0.250  12.480  -2.650  0.00  0.00    -0.245 OA
BRANCH  28  30
ATOM     30  O   UNL     1      -0.254  12.976  -0.542  0.00  0.00    -0.458 OA
BRANCH  30  31
ATOM     31  C   UNL     1       0.160  14.320  -0.793  0.00  0.00    +0.177 C 
ATOM     32  C   UNL     1       1.651  14.462  -0.482  0.00  0.00    +0.044 C 
ATOM     33  C   UNL     1       2.094  15.901  -0.750  0.00  0.00    +0.004 C 
ATOM     34  C   UNL     1       1.295  16.855   0.140  0.00  0.00    +0.000 C 
ATOM     35  C   UNL     1      -0.197  16.714  -0.172  0.00  0.00    +0.004 C 
ATOM     36  C   UNL     1      -0.639  15.274   0.097  0.00  0.00    +0.044 C 
ENDBRANCH  30  31
ENDBRANCH  28  30
ENDBRANCH   3  28
TORSDOF 5
