REMARK  Name = ZINC65513917
REMARK  11 active torsions:
REMARK  status: ('A' for Active; 'I' for Inactive)
REMARK    1  A    between atoms: C_1  and  C_2
REMARK    2  A    between atoms: C_7  and  C_9
REMARK    3  A    between atoms: C_7  and  N_26
REMARK    4  A    between atoms: C_9  and  N_10
REMARK    5  A    between atoms: N_13  and  C_14
REMARK    6  A    between atoms: C_17  and  N_20
REMARK    7  A    between atoms: C_21  and  C_23
REMARK    8  A    between atoms: C_23  and  C_24
REMARK    9  A    between atoms: C_23  and  C_25
REMARK   10  A    between atoms: N_26  and  C_27
REMARK   11  A    between atoms: N_26  and  C_28
REMARK                            x       y       z     vdW  Elec       q    Type
REMARK                         _______ _______ _______ _____ _____    ______ ____
ROOT
ATOM      1  N   UNL     1       1.902  -3.787   1.165  0.00  0.00    -0.300 N 
ATOM      2  C   UNL     1       2.400  -4.433   2.237  0.00  0.00    +0.304 C 
ATOM      3  O   UNL     1       2.432  -3.881   3.320  0.00  0.00    -0.253 OA
ATOM      4  N   UNL     1       2.863  -5.692   2.110  0.00  0.00    -0.269 N 
ATOM      5  H   UNL     1       1.877  -4.227   0.301  0.00  0.00    +0.150 HD
ATOM      6  H   UNL     1       2.772  -6.160   1.265  0.00  0.00    +0.156 HD
ENDROOT
BRANCH   4   7
ATOM      7  C   UNL     1       3.477  -6.327   3.198  0.00  0.00    +0.035 A 
ATOM      8  C   UNL     1       4.545  -7.189   2.987  0.00  0.00    +0.025 A 
ATOM      9  C   UNL     1       5.149  -7.814   4.059  0.00  0.00    +0.025 A 
ATOM     10  C   UNL     1       4.689  -7.581   5.349  0.00  0.00    +0.034 A 
ATOM     11  C   UNL     1       3.621  -6.719   5.559  0.00  0.00    +0.025 A 
ATOM     12  C   UNL     1       3.020  -6.089   4.488  0.00  0.00    +0.025 A 
BRANCH  10  13
ATOM     13  N   UNL     1       5.301  -8.216   6.437  0.00  0.00    -0.285 N 
ATOM     14  C   UNL     1       6.625  -8.472   6.410  0.00  0.00    +0.220 C 
ATOM     15  O   UNL     1       7.303  -8.062   5.492  0.00  0.00    -0.275 OA
ATOM     16  H   UNL     1       4.774  -8.472   7.209  0.00  0.00    +0.155 HD
BRANCH  14  17
ATOM     17  C   UNL     1       7.261  -9.268   7.521  0.00  0.00    +0.069 C 
ATOM     18  C   UNL     1       6.618 -10.654   7.588  0.00  0.00    +0.017 C 
ATOM     19  C   UNL     1       8.759  -9.413   7.250  0.00  0.00    +0.017 C 
ENDBRANCH  14  17
ENDBRANCH  10  13
ENDBRANCH   4   7
BRANCH   1  20
ATOM     20  C   UNL     1       1.398  -2.418   1.304  0.00  0.00    +0.094 C 
BRANCH  20  26
ATOM     21  C   UNL     1      -0.718   1.401  -1.127  0.00  0.00    +0.007 C 
ATOM     22  C   UNL     1      -0.057   0.031  -1.287  0.00  0.00    -0.015 C 
ATOM     23  C   UNL     1      -1.040  -0.936  -1.950  0.00  0.00    +0.003 C 
ATOM     24  C   UNL     1      -0.378  -2.306  -2.111  0.00  0.00    -0.001 C 
ATOM     25  C   UNL     1       0.019  -2.845  -0.735  0.00  0.00    -0.010 C 
ATOM     26  C   UNL     1       1.002  -1.878  -0.072  0.00  0.00    -0.050 C 
ATOM     27  C   UNL     1       0.340  -0.508   0.089  0.00  0.00    -0.007 C 
BRANCH  26  28
ATOM     28  N   UNL     1       2.201  -1.748  -0.911  0.00  0.00    +0.381 N 
ATOM     29  C   UNL     1       3.173  -0.872  -0.243  0.00  0.00    -0.096 C 
ATOM     30  C   UNL     1       2.799  -3.073  -1.121  0.00  0.00    -0.096 C 
ATOM     31  H   UNL     1       1.946  -1.349  -1.802  0.00  0.00    -0.082 HD
ENDBRANCH  26  28
ENDBRANCH  20  26
ENDBRANCH   1  20
TORSDOF 6
