REMARK  Name = ZINC14543474
REMARK  7 active torsions:
REMARK  status: ('A' for Active; 'I' for Inactive)
REMARK    1  A    between atoms: C_1  and  C_2
REMARK    2  A    between atoms: C_2  and  O_3
REMARK    3  A    between atoms: O_3  and  C_4
REMARK    4  A    between atoms: C_7  and  C_10
REMARK    5  A    between atoms: C_21  and  O_26
REMARK    6  A    between atoms: O_26  and  C_27
REMARK    7  A    between atoms: C_27  and  C_28
REMARK                            x       y       z     vdW  Elec       q    Type
REMARK                         _______ _______ _______ _____ _____    ______ ____
ROOT
ATOM      1  C   UNL     1       7.915   3.416   2.654  0.00  0.00    +0.105 C 
ATOM      2  C   UNL     1       7.961   1.931   2.965  0.00  0.00    +0.029 C 
ATOM      3  C   UNL     1       8.534   1.131   1.771  0.00  0.00    +0.033 C 
ATOM      4  C   UNL     1       7.879  -0.229   1.929  0.00  0.00    -0.030 C 
ATOM      5  C   UNL     1       6.787  -0.131   2.645  0.00  0.00    -0.023 C 
ATOM      6  C   UNL     1       6.554   1.315   3.064  0.00  0.00    +0.049 C 
ATOM      7  C   UNL     1       5.590   1.920   2.079  0.00  0.00    -0.016 A 
ATOM      8  C   UNL     1       4.335   1.339   1.956  0.00  0.00    +0.051 A 
ATOM      9  C   UNL     1       3.412   1.848   1.058  0.00  0.00    +0.121 A 
ATOM     10  C   UNL     1       3.731   2.953   0.282  0.00  0.00    +0.047 A 
ATOM     11  C   UNL     1       4.975   3.539   0.406  0.00  0.00    +0.027 A 
ATOM     12  C   UNL     1       5.901   3.022   1.304  0.00  0.00    +0.032 A 
ATOM     13  N   UNL     1       7.158   3.635   1.417  0.00  0.00    -0.336 N 
ATOM     14  H   UNL     1       7.514   4.184   0.701  0.00  0.00    +0.147 HD
ENDROOT
BRANCH   1  18
ATOM     15  C   UNL     1       6.011   5.485   5.872  0.00  0.00    +0.121 A 
ATOM     16  C   UNL     1       7.395   5.472   5.777  0.00  0.00    +0.046 A 
ATOM     17  C   UNL     1       8.008   4.802   4.736  0.00  0.00    +0.009 A 
ATOM     18  C   UNL     1       7.244   4.146   3.789  0.00  0.00    -0.027 A 
ATOM     19  C   UNL     1       5.864   4.162   3.879  0.00  0.00    +0.009 A 
ATOM     20  C   UNL     1       5.246   4.826   4.921  0.00  0.00    +0.046 A 
BRANCH  15  21
ATOM     21  O   UNL     1       5.406   6.144   6.895  0.00  0.00    -0.492 OA
BRANCH  21  23
ATOM     22  C   UNL     1       3.481   6.905   8.143  0.00  0.00    +0.048 C 
ATOM     23  C   UNL     1       3.977   6.116   6.930  0.00  0.00    +0.225 C 
ENDBRANCH  21  23
ENDBRANCH  15  21
ENDBRANCH   1  18
BRANCH   9  24
ATOM     24  O   UNL     1       2.188   1.267   0.941  0.00  0.00    -0.488 OA
BRANCH  24  25
ATOM     25  C   UNL     1       1.282   1.847  -0.000  0.00  0.00    +0.256 C 
BRANCH  25  26
ATOM     26  C   UNL     1      -0.013   1.076   0.008  0.00  0.00    +0.006 C 
ATOM     27  C   UNL     1      -1.156   1.715   0.017  0.00  0.00    +0.007 C 
ENDBRANCH  25  26
ENDBRANCH  24  25
ENDBRANCH   9  24
TORSDOF 6
