REMARK  Name = ZINC59503366
REMARK  5 active torsions:
REMARK  status: ('A' for Active; 'I' for Inactive)
REMARK    1  A    between atoms: C_1  and  C_2
REMARK    2  A    between atoms: C_3  and  C_7
REMARK    3  A    between atoms: N_9  and  N_10
REMARK    4  A    between atoms: C_11  and  C_12
REMARK    5  A    between atoms: C_17  and  O_18
REMARK                            x       y       z     vdW  Elec       q    Type
REMARK                         _______ _______ _______ _____ _____    ______ ____
ROOT
ATOM      1  N   UNL     1      -0.011  -0.815  -4.932  0.00  0.00    -0.187 NA
ATOM      2  C   UNL     1      -0.004  -1.671  -5.908  0.00  0.00    +0.142 C 
ENDROOT
BRANCH   2   3
ATOM      3  C   UNL     1      -0.018  -1.198  -7.304  0.00  0.00    +0.037 A 
ATOM      4  C   UNL     1      -0.016  -2.117  -8.357  0.00  0.00    +0.028 A 
ATOM      5  C   UNL     1      -0.029  -1.667  -9.661  0.00  0.00    +0.019 A 
ATOM      6  C   UNL     1      -0.044  -0.308  -9.931  0.00  0.00    +0.019 A 
ATOM      7  C   UNL     1      -0.045   0.610  -8.898  0.00  0.00    +0.047 A 
ATOM      8  C   UNL     1      -0.039   0.175  -7.582  0.00  0.00    +0.126 A 
ATOM      9 BR   UNL     1      -0.026  -2.910 -11.086  0.00  0.00    -0.050 Br
BRANCH   8  10
ATOM     10  O   UNL     1      -0.048   1.077  -6.566  0.00  0.00    -0.506 OA
ATOM     11  H   UNL     1       0.833   1.350  -6.276  0.00  0.00    +0.292 HD
ENDBRANCH   8  10
ENDBRANCH   2   3
BRANCH   1  14
ATOM     12  C   UNL     1      -0.006  -0.376  -2.593  0.00  0.00    +0.287 C 
ATOM     13  O   UNL     1      -0.024   0.816  -2.830  0.00  0.00    -0.267 OA
ATOM     14  N   UNL     1       0.002  -1.265  -3.606  0.00  0.00    -0.202 N 
ATOM     15  H   UNL     1       0.017  -2.216  -3.416  0.00  0.00    +0.178 HD
BRANCH  12  18
ATOM     16  C   UNL     1      -0.018   1.503   0.010  0.00  0.00    +0.072 C 
ATOM     17  C   UNL     1       0.002  -0.004   0.002  0.00  0.00    +0.114 A 
ATOM     18  C   UNL     1       0.008  -0.851  -1.189  0.00  0.00    +0.193 A 
ATOM     19  N   UNL     1       0.028  -2.102  -0.804  0.00  0.00    -0.044 NA
ATOM     20  O   UNL     1       0.035  -2.115   0.613  0.00  0.00    -0.242 OA
ATOM     21  N   UNL     1       0.023  -0.768   1.052  0.00  0.00    -0.053 NA
ENDBRANCH  12  18
ENDBRANCH   1  14
TORSDOF 4
