REMARK  Name = ZINC02709869
REMARK  6 active torsions:
REMARK  status: ('A' for Active; 'I' for Inactive)
REMARK    1  A    between atoms: C_1  and  C_2
REMARK    2  A    between atoms: C_2  and  C_13
REMARK    3  A    between atoms: N_15  and  C_16
REMARK    4  A    between atoms: C_17  and  C_25
REMARK    5  A    between atoms: C_25  and  O_27
REMARK    6  A    between atoms: O_27  and  C_28
REMARK                            x       y       z     vdW  Elec       q    Type
REMARK                         _______ _______ _______ _____ _____    ______ ____
ROOT
ATOM      1  C   UNL     1       0.707  -0.490  -1.238  0.00  0.00    +0.262 C 
ATOM      2  O   UNL     1       0.066  -0.782  -2.225  0.00  0.00    -0.271 OA
ATOM      3  N   UNL     1       2.050  -0.601  -1.250  0.00  0.00    -0.276 N 
ATOM      4  H   UNL     1       2.563  -0.367  -0.460  0.00  0.00    +0.155 HD
ENDROOT
BRANCH   1   6
ATOM      5  C   UNL     1      -0.019   1.526   0.010  0.00  0.00    +0.066 C 
ATOM      6  C   UNL     1       0.002  -0.004   0.002  0.00  0.00    +0.190 C 
ATOM      7  C   UNL     1      -1.433  -0.533   0.014  0.00  0.00    +0.093 C 
ATOM      8  C   UNL     1      -2.076  -0.264   1.348  0.00  0.00    -0.029 A 
ATOM      9  C   UNL     1      -3.452  -0.246   1.462  0.00  0.00    +0.004 A 
ATOM     10  C   UNL     1      -4.043  -0.001   2.689  0.00  0.00    +0.000 A 
ATOM     11  C   UNL     1      -3.265   0.228   3.810  0.00  0.00    +0.001 A 
ATOM     12  C   UNL     1      -1.888   0.215   3.711  0.00  0.00    +0.015 A 
ATOM     13  C   UNL     1      -1.289  -0.031   2.477  0.00  0.00    +0.062 A 
ATOM     14  C   UNL     1       0.186  -0.042   2.344  0.00  0.00    +0.340 C 
ATOM     15  O   UNL     1       0.908   0.323   3.250  0.00  0.00    -0.245 OA
ATOM     16  O   UNL     1       0.696  -0.479   1.164  0.00  0.00    -0.445 OA
ENDBRANCH   1   6
BRANCH   3  17
ATOM     17  C   UNL     1       2.699  -1.048  -2.390  0.00  0.00    +0.086 A 
ATOM     18  C   UNL     1       4.061  -1.228  -2.582  0.00  0.00    +0.091 A 
ATOM     19  C   UNL     1       4.489  -1.712  -3.883  0.00  0.00    -0.021 A 
ATOM     20  C   UNL     1       3.479  -1.927  -4.753  0.00  0.00    -0.004 A 
ATOM     21  S   UNL     1       2.015  -1.503  -3.855  0.00  0.00    -0.077 S 
ATOM     22  C   UNL     1       3.596  -2.421  -6.162  0.00  0.00    +0.043 C 
ATOM     23  C   UNL     1       5.062  -2.289  -6.600  0.00  0.00    +0.005 C 
ATOM     24  C   UNL     1       5.960  -2.875  -5.506  0.00  0.00    +0.005 C 
ATOM     25  C   UNL     1       5.938  -1.970  -4.273  0.00  0.00    +0.037 C 
BRANCH  18  26
ATOM     26  C   UNL     1       5.025  -0.942  -1.518  0.00  0.00    +0.342 C 
ATOM     27  O   UNL     1       5.343  -1.816  -0.734  0.00  0.00    -0.245 OA
BRANCH  26  28
ATOM     28  O   UNL     1       5.562   0.291  -1.407  0.00  0.00    -0.464 OA
ATOM     29  C   UNL     1       6.496   0.499  -0.346  0.00  0.00    +0.280 C 
ENDBRANCH  26  28
ENDBRANCH  18  26
ENDBRANCH   3  17
TORSDOF 4
