REMARK  Name = ZINC01579668
REMARK  9 active torsions:
REMARK  status: ('A' for Active; 'I' for Inactive)
REMARK    1  A    between atoms: C_1  and  C_2
REMARK    2  A    between atoms: C_2  and  O_3
REMARK    3  A    between atoms: O_3  and  C_4
REMARK    4  A    between atoms: C_4  and  C_6
REMARK    5  A    between atoms: C_7  and  N_28
REMARK    6  A    between atoms: C_9  and  C_22
REMARK    7  A    between atoms: C_10  and  C_20
REMARK    8  A    between atoms: C_11  and  C_13
REMARK    9  A    between atoms: C_16  and  C_19
REMARK                            x       y       z     vdW  Elec       q    Type
REMARK                         _______ _______ _______ _____ _____    ______ ____
ROOT
ATOM      1  C   UNL     1      -1.474   2.989  -1.208  0.00  0.00    +0.106 C 
ATOM      2  C   UNL     1      -1.378   4.340  -1.109  0.00  0.00    +0.195 C 
ATOM      3  O   UNL     1      -1.067   4.941   0.053  0.00  0.00    -0.440 OA
ATOM      4  C   UNL     1      -1.206   4.270   1.213  0.00  0.00    +0.151 C 
ATOM      5  C   UNL     1      -1.291   2.921   1.249  0.00  0.00    +0.084 C 
ATOM      6  C   UNL     1      -1.233   2.106  -0.014  0.00  0.00    +0.105 C 
ENDROOT
BRANCH   6   7
ATOM      7  C   UNL     1       0.126   1.464  -0.133  0.00  0.00    -0.034 A 
ATOM      8  C   UNL     1       1.259   2.253  -0.196  0.00  0.00    +0.005 A 
ATOM      9  C   UNL     1       2.505   1.665  -0.312  0.00  0.00    +0.003 A 
ATOM     10  C   UNL     1       2.617   0.288  -0.364  0.00  0.00    -0.050 A 
ATOM     11  C   UNL     1       1.483  -0.501  -0.301  0.00  0.00    +0.003 A 
ATOM     12  C   UNL     1       0.237   0.088  -0.185  0.00  0.00    +0.005 A 
ATOM     13  C   UNL     1       3.974  -0.354  -0.490  0.00  0.00    +0.044 C 
ENDBRANCH   6   7
BRANCH   4  14
ATOM     14  C   UNL     1      -1.268   5.028   2.478  0.00  0.00    +0.018 A 
ATOM     15  C   UNL     1      -2.281   4.767   3.404  0.00  0.00    +0.011 A 
ATOM     16  C   UNL     1      -2.329   5.474   4.587  0.00  0.00    +0.001 A 
ATOM     17  C   UNL     1      -1.383   6.449   4.853  0.00  0.00    +0.000 A 
ATOM     18  C   UNL     1      -0.380   6.717   3.938  0.00  0.00    +0.001 A 
ATOM     19  C   UNL     1      -0.316   6.013   2.753  0.00  0.00    +0.011 A 
ENDBRANCH   4  14
BRANCH   2  20
ATOM     20  N   UNL     1      -1.604   5.109  -2.219  0.00  0.00    -0.329 N 
ATOM     21  H   UNL     1      -1.095   5.923  -2.357  0.00  0.00    +0.145 HD
ATOM     22  H   UNL     1      -2.274   4.840  -2.867  0.00  0.00    +0.145 HD
ENDBRANCH   2  20
BRANCH   1  23
ATOM     23  C   UNL     1      -1.803   2.408  -2.442  0.00  0.00    +0.341 C 
ATOM     24  O   UNL     1      -1.890   3.103  -3.438  0.00  0.00    -0.245 OA
BRANCH  23  25
ATOM     25  O   UNL     1      -2.024   1.078  -2.525  0.00  0.00    -0.462 OA
BRANCH  25  27
ATOM     26  C   UNL     1      -2.567  -0.957  -3.709  0.00  0.00    +0.048 C 
ATOM     27  C   UNL     1      -2.354   0.554  -3.813  0.00  0.00    +0.229 C 
ENDBRANCH  25  27
ENDBRANCH  23  25
ENDBRANCH   1  23
BRANCH   5  28
ATOM     28  C   UNL     1      -1.439   2.257   2.509  0.00  0.00    +0.099 C 
ATOM     29  N   UNL     1      -1.556   1.731   3.509  0.00  0.00    -0.191 NA
ENDBRANCH   5  28
TORSDOF 7
