REMARK  Name = ZINC25043437
REMARK  6 active torsions:
REMARK  status: ('A' for Active; 'I' for Inactive)
REMARK    1  A    between atoms: C_1  and  N_2
REMARK    2  A    between atoms: C_3  and  C_5
REMARK    3  A    between atoms: C_16  and  C_18
REMARK    4  A    between atoms: C_18  and  C_19
REMARK    5  A    between atoms: C_22  and  C_24
REMARK    6  A    between atoms: C_27  and  C_30
REMARK                            x       y       z     vdW  Elec       q    Type
REMARK                         _______ _______ _______ _____ _____    ______ ____
ROOT
ATOM      1  C   UNL     1       6.545  -6.597  -3.321  0.00  0.00    +0.276 C 
ATOM      2  C   UNL     1       6.175  -5.277  -2.638  0.00  0.00    +0.168 C 
ATOM      3  N   UNL     1       5.296  -5.592  -1.498  0.00  0.00    -0.264 N 
ATOM      4  C   UNL     1       5.627  -6.706  -0.708  0.00  0.00    +0.078 A 
ATOM      5  C   UNL     1       5.015  -6.891   0.522  0.00  0.00    +0.027 A 
ATOM      6  C   UNL     1       5.341  -7.990   1.295  0.00  0.00    +0.002 A 
ATOM      7  C   UNL     1       6.276  -8.903   0.841  0.00  0.00    +0.004 A 
ATOM      8  C   UNL     1       6.889  -8.723  -0.384  0.00  0.00    +0.047 A 
ATOM      9  C   UNL     1       6.569  -7.623  -1.165  0.00  0.00    +0.143 A 
ATOM     10  O   UNL     1       7.180  -7.451  -2.367  0.00  0.00    -0.476 OA
ATOM     11  C   UNL     1       4.211  -4.841  -1.226  0.00  0.00    +0.226 C 
ATOM     12  O   UNL     1       3.543  -5.075  -0.242  0.00  0.00    -0.275 OA
ENDROOT
BRANCH   1  15
ATOM     13  C   UNL     1       7.985  -5.363  -6.647  0.00  0.00    +0.128 C 
ATOM     14  N   UNL     1       7.068  -5.625  -5.535  0.00  0.00    -0.315 N 
ATOM     15  C   UNL     1       7.489  -6.327  -4.465  0.00  0.00    +0.255 C 
ATOM     16  O   UNL     1       8.628  -6.743  -4.422  0.00  0.00    -0.272 OA
ATOM     17  H   UNL     1       6.035  -5.248  -5.574  0.00  0.00    +0.148 HD
ENDBRANCH   1  15
BRANCH  11  18
ATOM     18  C   UNL     1       3.828  -3.710  -2.146  0.00  0.00    +0.152 C 
BRANCH  18  19
ATOM     19  C   UNL     1       2.520  -3.114  -1.691  0.00  0.00    +0.058 A 
ATOM     20  C   UNL     1       2.433  -1.782  -1.431  0.00  0.00    +0.071 A 
ATOM     21  S   UNL     1       0.716  -1.652  -0.949  0.00  0.00    -0.075 S 
ATOM     22  C   UNL     1       0.303  -3.381  -1.145  0.00  0.00    +0.109 A 
ATOM     23  N   UNL     1       1.466  -3.880  -1.538  0.00  0.00    -0.243 NA
BRANCH  22  24
ATOM     24  C   UNL     1      -0.987  -4.069  -0.921  0.00  0.00    +0.007 A 
ATOM     25  C   UNL     1      -2.102  -3.346  -0.495  0.00  0.00    +0.011 A 
ATOM     26  C   UNL     1      -3.302  -3.994  -0.289  0.00  0.00    +0.013 A 
ATOM     27  C   UNL     1      -3.402  -5.358  -0.504  0.00  0.00    +0.055 A 
ATOM     28  C   UNL     1      -2.300  -6.080  -0.927  0.00  0.00    +0.013 A 
ATOM     29  C   UNL     1      -1.094  -5.444  -1.136  0.00  0.00    +0.011 A 
BRANCH  27  30
ATOM     30  C   UNL     1      -4.716  -6.059  -0.277  0.00  0.00    +0.417 C 
ATOM     31  F   UNL     1      -5.459  -6.053  -1.463  0.00  0.00    -0.166 F 
ATOM     32  F   UNL     1      -4.478  -7.380   0.118  0.00  0.00    -0.166 F 
ATOM     33  F   UNL     1      -5.432  -5.395   0.724  0.00  0.00    -0.166 F 
ENDBRANCH  27  30
ENDBRANCH  22  24
ENDBRANCH  18  19
ENDBRANCH  11  18
TORSDOF 5
