REMARK  Name = ZINC39561734
REMARK  3 active torsions:
REMARK  status: ('A' for Active; 'I' for Inactive)
REMARK    1  A    between atoms: C_4  and  C_13
REMARK    2  A    between atoms: C_13  and  O_14
REMARK    3  A    between atoms: O_14  and  C_15
REMARK                            x       y       z     vdW  Elec       q    Type
REMARK                         _______ _______ _______ _____ _____    ______ ____
ROOT
ATOM      1  O   UNL     1       5.024   4.108  -0.023  0.00  0.00    -0.471 OA
ENDROOT
BRANCH   1   2
ATOM      2  C   UNL     1       5.224   5.447  -0.018  0.00  0.00    +0.227 A 
ATOM      3  C   UNL     1       6.542   5.978  -0.033  0.00  0.00    +0.073 A 
ATOM      4  C   UNL     1       7.819   5.262  -0.051  0.00  0.00    -0.023 A 
ATOM      5  C   UNL     1       8.940   6.011  -0.065  0.00  0.00    -0.004 A 
ATOM      6  S   UNL     1       8.375   7.691  -0.054  0.00  0.00    -0.073 S 
ATOM      7  C   UNL     1       6.628   7.386  -0.029  0.00  0.00    +0.116 A 
ATOM      8  N   UNL     1       5.548   8.142  -0.009  0.00  0.00    -0.228 NA
ATOM      9  C   UNL     1       4.351   7.590   0.007  0.00  0.00    +0.226 A 
ATOM     10  N   UNL     1       4.197   6.277  -0.005  0.00  0.00    -0.201 NA
ATOM     11  C   UNL     1      10.357   5.524  -0.083  0.00  0.00    +0.043 C 
ATOM     12  C   UNL     1      10.362   4.035   0.291  0.00  0.00    +0.005 C 
ATOM     13  C   UNL     1       9.290   3.318  -0.534  0.00  0.00    +0.005 C 
ATOM     14  C   UNL     1       7.900   3.738  -0.055  0.00  0.00    +0.037 C 
ENDBRANCH   1   2
BRANCH   1  15
ATOM     15  C   UNL     1       3.669   3.654  -0.013  0.00  0.00    +0.267 C 
BRANCH  15  19
ATOM     16  C   UNL     1      -0.017   1.384   0.010  0.00  0.00    +0.016 A 
ATOM     17  C   UNL     1       1.151   2.093   0.002  0.00  0.00    +0.013 A 
ATOM     18  C   UNL     1       2.374   1.415  -0.013  0.00  0.00    +0.024 A 
ATOM     19  C   UNL     1       3.644   2.147  -0.021  0.00  0.00    +0.007 A 
ATOM     20  C   UNL     1       4.797   1.431  -0.035  0.00  0.00    +0.099 A 
ATOM     21  C   UNL     1       4.746   0.020  -0.042  0.00  0.00    +0.338 A 
ATOM     22  O   UNL     1       5.787  -0.611  -0.055  0.00  0.00    -0.245 OA
ATOM     23  O   UNL     1       3.579  -0.643  -0.035  0.00  0.00    -0.422 OA
ATOM     24  C   UNL     1       2.398   0.009  -0.021  0.00  0.00    +0.140 A 
ATOM     25  C   UNL     1       1.199  -0.692  -0.013  0.00  0.00    +0.062 A 
ATOM     26  C   UNL     1       0.002  -0.004   0.002  0.00  0.00    +0.021 A 
ATOM     27 BR   UNL     1      -1.628  -0.963   0.012  0.00  0.00    -0.050 Br
ENDBRANCH  15  19
ENDBRANCH   1  15
TORSDOF 3
