REMARK  Name = ZINC63985828
REMARK  6 active torsions:
REMARK  status: ('A' for Active; 'I' for Inactive)
REMARK    1  A    between atoms: C_1  and  C_2
REMARK    2  A    between atoms: C_2  and  N_3
REMARK    3  A    between atoms: N_6  and  C_25
REMARK    4  A    between atoms: N_12  and  C_15
REMARK    5  A    between atoms: C_15  and  C_16
REMARK    6  A    between atoms: C_25  and  C_26
REMARK                            x       y       z     vdW  Elec       q    Type
REMARK                         _______ _______ _______ _____ _____    ______ ____
ROOT
ATOM      1  N   UNL     1       0.774  -0.530  -1.130  0.00  0.00    -0.271 N 
ATOM      2  C   UNL     1       0.307  -0.790  -2.367  0.00  0.00    +0.312 C 
ATOM      3  O   UNL     1      -0.847  -0.612  -2.705  0.00  0.00    -0.252 OA
ATOM      4  N   UNL     1       1.257  -1.265  -3.182  0.00  0.00    -0.220 N 
ATOM      5  C   UNL     1       2.447  -1.363  -2.553  0.00  0.00    +0.247 C 
ATOM      6  O   UNL     1       3.494  -1.757  -3.021  0.00  0.00    -0.273 OA
ATOM      7  C   UNL     1       2.201  -0.873  -1.146  0.00  0.00    +0.112 C 
ATOM      8  C   UNL     1       2.498  -1.979  -0.138  0.00  0.00    +0.017 C 
ATOM      9  C   UNL     1       2.285  -1.442   1.280  0.00  0.00    -0.076 C 
ATOM     10  N   UNL     1       3.170  -0.294   1.509  0.00  0.00    +0.382 N 
ATOM     11  C   UNL     1       2.817   0.801   0.597  0.00  0.00    -0.076 C 
ATOM     12  C   UNL     1       3.052   0.359  -0.850  0.00  0.00    +0.017 C 
ATOM     13  H   UNL     1       4.127  -0.570   1.345  0.00  0.00    -0.081 HD
ENDROOT
BRANCH   1  15
ATOM     14  C   UNL     1      -1.024  -1.038   0.447  0.00  0.00    +0.024 C 
ATOM     15  C   UNL     1       0.011  -0.003   0.003  0.00  0.00    +0.107 C 
ENDBRANCH   1  15
BRANCH  10  16
ATOM     16  C   UNL     1       3.029   0.163   2.898  0.00  0.00    -0.045 C 
BRANCH  16  17
ATOM     17  C   UNL     1       4.024   1.261   3.169  0.00  0.00    -0.058 C 
ATOM     18  C   UNL     1       3.806   2.594   3.095  0.00  0.00    -0.003 A 
ATOM     19  C   UNL     1       2.621   3.390   2.750  0.00  0.00    +0.010 A 
ATOM     20  C   UNL     1       2.711   4.739   2.762  0.00  0.00    +0.001 A 
ATOM     21  C   UNL     1       3.905   5.395   3.094  0.00  0.00    +0.002 A 
ATOM     22  C   UNL     1       5.034   4.733   3.422  0.00  0.00    +0.026 A 
ATOM     23  C   UNL     1       5.053   3.311   3.442  0.00  0.00    +0.043 A 
ATOM     24  N   UNL     1       6.006   2.455   3.721  0.00  0.00    -0.380 N 
ATOM     25  C   UNL     1       5.468   1.096   3.587  0.00  0.00    +0.142 C 
ATOM     26  H   UNL     1       6.914   2.682   3.976  0.00  0.00    +0.160 HD
ENDBRANCH  16  17
ENDBRANCH  10  16
BRANCH   4  27
ATOM     27  C   UNL     1       1.032  -1.633  -4.582  0.00  0.00    +0.153 C 
BRANCH  27  28
ATOM     28  C   UNL     1       1.392  -0.471  -5.471  0.00  0.00    -0.022 A 
ATOM     29  C   UNL     1       1.747   0.724  -4.924  0.00  0.00    +0.006 A 
ATOM     30  C   UNL     1       2.082   1.810  -5.730  0.00  0.00    +0.001 A 
ATOM     31  C   UNL     1       2.065   1.708  -7.087  0.00  0.00    +0.008 A 
ATOM     32  C   UNL     1       1.704   0.490  -7.688  0.00  0.00    -0.018 A 
ATOM     33  C   UNL     1       1.368  -0.617  -6.868  0.00  0.00    -0.013 A 
ATOM     34  C   UNL     1       1.013  -1.837  -7.469  0.00  0.00    +0.009 A 
ATOM     35  C   UNL     1       1.001  -1.941  -8.826  0.00  0.00    +0.001 A 
ATOM     36  C   UNL     1       1.337  -0.854  -9.632  0.00  0.00    +0.001 A 
ATOM     37  C   UNL     1       1.674   0.346  -9.086  0.00  0.00    +0.008 A 
ENDBRANCH  27  28
ENDBRANCH   4  27
TORSDOF 5
