REMARK  Name = ZINC05103539
REMARK  4 active torsions:
REMARK  status: ('A' for Active; 'I' for Inactive)
REMARK    1  A    between atoms: C_1  and  C_2
REMARK    2  A    between atoms: C_2  and  C_3
REMARK    3  A    between atoms: C_3  and  C_4
REMARK    4  A    between atoms: C_16  and  C_18
REMARK                            x       y       z     vdW  Elec       q    Type
REMARK                         _______ _______ _______ _____ _____    ______ ____
ROOT
ATOM      1  C   UNL     1       1.501  -1.321   1.363  0.00  0.00    +0.221 C 
ATOM      2  O   UNL     1       0.588  -1.497   2.143  0.00  0.00    -0.275 OA
ATOM      3  N   UNL     1       1.305  -0.582   0.253  0.00  0.00    -0.255 N 
ATOM      4  C   UNL     1       2.362  -0.387  -0.635  0.00  0.00    +0.058 A 
ATOM      5  C   UNL     1       2.903  -1.441  -1.355  0.00  0.00    +0.025 A 
ATOM      6  C   UNL     1       3.920  -1.196  -2.261  0.00  0.00    +0.002 A 
ATOM      7  C   UNL     1       4.393   0.089  -2.454  0.00  0.00    +0.002 A 
ATOM      8  C   UNL     1       3.867   1.142  -1.725  0.00  0.00    +0.025 A 
ATOM      9  C   UNL     1       2.867   0.894  -0.802  0.00  0.00    +0.053 A 
ATOM     10  N   UNL     1       2.348   1.890   0.019  0.00  0.00    -0.316 N 
ATOM     11  C   UNL     1       1.057   2.309   0.004  0.00  0.00    +0.017 C 
ATOM     12  C   UNL     1      -0.018   1.507   0.010  0.00  0.00    +0.040 C 
ATOM     13  C   UNL     1       0.002  -0.004   0.002  0.00  0.00    +0.182 C 
ATOM     14  C   UNL     1      -1.321   2.059   0.032  0.00  0.00    +0.163 C 
ATOM     15  O   UNL     1      -2.276   1.306   0.027  0.00  0.00    -0.292 OA
ATOM     16  C   UNL     1      -1.568   3.537   0.059  0.00  0.00    +0.080 C 
ATOM     17  C   UNL     1      -0.372   4.220   0.733  0.00  0.00    +0.014 C 
ATOM     18  C   UNL     1       0.886   3.820  -0.036  0.00  0.00    +0.051 C 
ATOM     19  H   UNL     1       2.952   2.316   0.647  0.00  0.00    +0.152 HD
ENDROOT
BRANCH  13  20
ATOM     20  C   UNL     1      -0.483  -0.482  -1.342  0.00  0.00    +0.130 A 
ATOM     21  C   UNL     1      -1.721  -0.932  -1.617  0.00  0.00    +0.047 A 
ATOM     22  C   UNL     1      -1.738  -1.270  -2.990  0.00  0.00    +0.041 A 
ATOM     23  C   UNL     1      -0.508  -1.014  -3.470  0.00  0.00    +0.195 A 
ATOM     24  O   UNL     1       0.248  -0.537  -2.467  0.00  0.00    -0.466 OA
ENDBRANCH  13  20
BRANCH   1  25
ATOM     25  C   UNL     1       2.853  -1.928   1.636  0.00  0.00    +0.096 C 
BRANCH  25  27
ATOM     26  C   UNL     1       4.177  -3.328   3.227  0.00  0.00    +0.004 C 
ATOM     27  C   UNL     1       2.804  -2.711   2.950  0.00  0.00    +0.006 C 
ENDBRANCH  25  27
ENDBRANCH   1  25
TORSDOF 3
