REMARK  Name = ZINC21083515
REMARK  10 active torsions:
REMARK  status: ('A' for Active; 'I' for Inactive)
REMARK    1  A    between atoms: C_1  and  C_2
REMARK    2  A    between atoms: C_2  and  C_24
REMARK    3  A    between atoms: N_3  and  N_4
REMARK    4  A    between atoms: C_7  and  S_10
REMARK    5  A    between atoms: S_10  and  C_11
REMARK    6  A    between atoms: C_11  and  C_12
REMARK    7  A    between atoms: C_12  and  C_13
REMARK    8  A    between atoms: N_15  and  C_16
REMARK    9  A    between atoms: C_27  and  O_30
REMARK   10  A    between atoms: O_30  and  C_31
REMARK                            x       y       z     vdW  Elec       q    Type
REMARK                         _______ _______ _______ _____ _____    ______ ____
ROOT
ATOM      1  N   UNL     1      -5.618   3.535  -7.290  0.00  0.00    -0.205 N 
ATOM      2  C   UNL     1      -4.622   3.260  -6.365  0.00  0.00    +0.232 A 
ATOM      3  N   UNL     1      -4.654   3.570  -5.034  0.00  0.00    -0.186 NA
ATOM      4  C   UNL     1      -3.488   3.133  -4.470  0.00  0.00    +0.210 A 
ATOM      5  N   UNL     1      -2.763   2.582  -5.414  0.00  0.00    -0.144 NA
ATOM      6  N   UNL     1      -3.484   2.657  -6.613  0.00  0.00    -0.245 N 
ATOM      7  H   UNL     1      -6.537   4.048  -6.973  0.00  0.00    +0.177 HD
ATOM      8  H   UNL     1      -3.253   2.316  -7.633  0.00  0.00    +0.192 HD
ENDROOT
BRANCH   1  11
ATOM      9  C   UNL     1      -7.645   4.120  -9.061  0.00  0.00    +0.068 C 
ATOM     10  C   UNL     1      -6.385   3.417  -9.496  0.00  0.00    +0.063 C 
ATOM     11  N   UNL     1      -5.452   3.159  -8.630  0.00  0.00    -0.184 NA
BRANCH  10  12
ATOM     12  C   UNL     1      -6.211   3.022 -10.906  0.00  0.00    -0.002 A 
ATOM     13  C   UNL     1      -7.215   3.293 -11.839  0.00  0.00    +0.013 A 
ATOM     14  C   UNL     1      -7.046   2.927 -13.156  0.00  0.00    +0.046 A 
ATOM     15  C   UNL     1      -5.884   2.278 -13.555  0.00  0.00    +0.120 A 
ATOM     16  C   UNL     1      -4.886   2.002 -12.631  0.00  0.00    +0.046 A 
ATOM     17  C   UNL     1      -5.044   2.370 -11.312  0.00  0.00    +0.013 A 
BRANCH  15  18
ATOM     18  O   UNL     1      -5.724   1.914 -14.854  0.00  0.00    -0.495 OA
ATOM     19  C   UNL     1      -6.790   2.229 -15.753  0.00  0.00    +0.277 C 
ENDBRANCH  15  18
ENDBRANCH  10  12
ENDBRANCH   1  11
BRANCH   4  20
ATOM     20  S   UNL     1      -3.035   3.290  -2.775  0.00  0.00    -0.084 S 
BRANCH  20  21
ATOM     21  C   UNL     1      -1.395   2.520  -2.686  0.00  0.00    +0.086 C 
BRANCH  21  22
ATOM     22  C   UNL     1      -0.877   2.588  -1.248  0.00  0.00    +0.107 C 
BRANCH  22  23
ATOM     23  C   UNL     1       0.486   1.949  -1.174  0.00  0.00    +0.218 C 
ATOM     24  O   UNL     1       0.992   1.484  -2.173  0.00  0.00    -0.275 OA
ATOM     25  N   UNL     1       1.143   1.898   0.001  0.00  0.00    -0.283 N 
ATOM     26  H   UNL     1       0.722   2.392   0.889  0.00  0.00    +0.155 HD
BRANCH  25  27
ATOM     27  C   UNL     1       2.364   1.218   0.092  0.00  0.00    +0.070 A 
ATOM     28  C   UNL     1       2.385  -0.136   0.402  0.00  0.00    +0.064 A 
ATOM     29  C   UNL     1       3.592  -0.805   0.486  0.00  0.00    +0.022 A 
ATOM     30  C   UNL     1       4.777  -0.126   0.271  0.00  0.00    +0.003 A 
ATOM     31  C   UNL     1       4.760   1.223  -0.033  0.00  0.00    +0.022 A 
ATOM     32  C   UNL     1       3.557   1.897  -0.123  0.00  0.00    +0.064 A 
ATOM     33 CL   UNL     1       3.537   3.591  -0.504  0.00  0.00    -0.082 Cl
ATOM     34 CL   UNL     1       0.898  -0.988   0.678  0.00  0.00    -0.082 Cl
ENDBRANCH  25  27
ENDBRANCH  22  23
ENDBRANCH  21  22
ENDBRANCH  20  21
ENDBRANCH   4  20
TORSDOF 8
