REMARK  Name = ZINC08878366
REMARK  10 active torsions:
REMARK  status: ('A' for Active; 'I' for Inactive)
REMARK    1  A    between atoms: C_1  and  C_2
REMARK    2  A    between atoms: C_2  and  C_3
REMARK    3  A    between atoms: C_3  and  C_5
REMARK    4  A    between atoms: C_3  and  C_6
REMARK    5  A    between atoms: C_11  and  N_12
REMARK    6  A    between atoms: C_14  and  C_19
REMARK    7  A    between atoms: N_21  and  C_22
REMARK    8  A    between atoms: C_22  and  C_23
REMARK    9  A    between atoms: C_26  and  S_29
REMARK   10  A    between atoms: S_29  and  N_32
REMARK                            x       y       z     vdW  Elec       q    Type
REMARK                         _______ _______ _______ _____ _____    ______ ____
ROOT
ATOM      1  C   UNL     1      -0.014   1.209   0.009  0.00  0.00    +0.218 C 
ATOM      2  O   UNL     1       0.002  -0.004   0.002  0.00  0.00    -0.275 OA
ATOM      3  N   UNL     1       1.143   1.898   0.001  0.00  0.00    -0.311 N 
ATOM      4  H   UNL     1       1.130   2.868   0.007  0.00  0.00    +0.149 HD
ENDROOT
BRANCH   1   7
ATOM      5  N   UNL     1      -3.541   1.574   0.868  0.00  0.00    -0.270 N 
ATOM      6  C   UNL     1      -2.516   0.955   0.019  0.00  0.00    +0.127 C 
ATOM      7  C   UNL     1      -1.330   1.944   0.019  0.00  0.00    +0.101 C 
ATOM      8  C   UNL     1      -1.538   2.687   1.359  0.00  0.00    +0.110 C 
ATOM      9  C   UNL     1      -3.018   2.546   1.635  0.00  0.00    +0.221 C 
ATOM     10  O   UNL     1      -3.643   3.213   2.433  0.00  0.00    -0.275 OA
BRANCH   5  16
ATOM     11  C   UNL     1      -5.789   1.817   0.020  0.00  0.00    -0.023 A 
ATOM     12  C   UNL     1      -7.120   1.445   0.032  0.00  0.00    +0.006 A 
ATOM     13  C   UNL     1      -7.555   0.459   0.897  0.00  0.00    +0.000 A 
ATOM     14  C   UNL     1      -6.662  -0.159   1.753  0.00  0.00    +0.002 A 
ATOM     15  C   UNL     1      -5.329   0.205   1.742  0.00  0.00    +0.024 A 
ATOM     16  C   UNL     1      -4.889   1.199   0.878  0.00  0.00    +0.040 A 
BRANCH  11  17
ATOM     17  C   UNL     1      -5.315   2.892  -0.924  0.00  0.00    +0.017 C 
ATOM     18  C   UNL     1      -5.592   2.462  -2.366  0.00  0.00    +0.012 C 
BRANCH  17  20
ATOM     19  C   UNL     1      -5.492   5.317  -1.501  0.00  0.00    +0.004 C 
ATOM     20  C   UNL     1      -6.060   4.195  -0.628  0.00  0.00    +0.004 C 
ENDBRANCH  17  20
ENDBRANCH  11  17
ENDBRANCH   5  16
ENDBRANCH   1   7
BRANCH   3  21
ATOM     21  C   UNL     1       2.422   1.183  -0.015  0.00  0.00    +0.139 C 
BRANCH  21  22
ATOM     22  C   UNL     1       3.554   2.178  -0.020  0.00  0.00    -0.030 A 
ATOM     23  C   UNL     1       4.066   2.636  -1.220  0.00  0.00    +0.007 A 
ATOM     24  C   UNL     1       5.101   3.553  -1.225  0.00  0.00    +0.029 A 
ATOM     25  C   UNL     1       5.631   4.002  -0.030  0.00  0.00    +0.105 A 
ATOM     26  C   UNL     1       5.123   3.540   1.169  0.00  0.00    +0.029 A 
ATOM     27  C   UNL     1       4.085   2.628   1.174  0.00  0.00    +0.007 A 
BRANCH  25  28
ATOM     28  S   UNL     1       6.956   5.165  -0.037  0.00  0.00    +0.056 S 
ATOM     29  O   UNL     1       6.886   5.853  -1.278  0.00  0.00    -0.153 OA
ATOM     30  O   UNL     1       6.909   5.840   1.213  0.00  0.00    -0.153 OA
BRANCH  28  31
ATOM     31  N   UNL     1       8.367   4.299  -0.055  0.00  0.00    -0.204 NA
ATOM     32  H   UNL     1       8.341   3.329  -0.060  0.00  0.00    +0.144 HD
ATOM     33  H   UNL     1       9.220   4.761  -0.060  0.00  0.00    +0.144 HD
ENDBRANCH  28  31
ENDBRANCH  25  28
ENDBRANCH  21  22
ENDBRANCH   3  21
TORSDOF 8
