REMARK  Name = ZINC36408706
REMARK  7 active torsions:
REMARK  status: ('A' for Active; 'I' for Inactive)
REMARK    1  A    between atoms: C_1  and  C_2
REMARK    2  A    between atoms: C_9  and  N_13
REMARK    3  A    between atoms: C_10  and  C_11
REMARK    4  A    between atoms: C_14  and  C_16
REMARK    5  A    between atoms: C_16  and  N_17
REMARK    6  A    between atoms: N_20  and  C_23
REMARK    7  A    between atoms: C_26  and  O_29
REMARK                            x       y       z     vdW  Elec       q    Type
REMARK                         _______ _______ _______ _____ _____    ______ ____
ROOT
ATOM      1  N   UNL     1       0.713  -5.821   2.428  0.00  0.00    -0.278 N 
ATOM      2  C   UNL     1       1.690  -6.077   3.320  0.00  0.00    +0.232 C 
ATOM      3  O   UNL     1       2.392  -5.176   3.727  0.00  0.00    -0.274 OA
ATOM      4  H   UNL     1       0.152  -6.542   2.102  0.00  0.00    +0.155 HD
ENDROOT
BRANCH   1  12
ATOM      5  C   UNL     1      -0.001   1.578   0.081  0.00  0.00    +0.008 C 
ATOM      6  C   UNL     1       0.022   0.049   0.057  0.00  0.00    -0.009 C 
ATOM      7  C   UNL     1      -1.412  -0.487   0.059  0.00  0.00    +0.008 C 
ATOM      8  C   UNL     1      -1.407  -1.993  -0.213  0.00  0.00    +0.037 C 
ATOM      9  C   UNL     1      -0.443  -2.660   0.757  0.00  0.00    -0.018 A 
ATOM     10  C   UNL     1       0.501  -1.947   1.411  0.00  0.00    -0.004 A 
ATOM     11  S   UNL     1       1.356  -3.138   2.400  0.00  0.00    -0.077 S 
ATOM     12  C   UNL     1       0.510  -4.524   1.975  0.00  0.00    +0.090 A 
ATOM     13  C   UNL     1      -0.437  -4.078   1.068  0.00  0.00    +0.084 A 
ATOM     14  C   UNL     1       0.753  -0.474   1.302  0.00  0.00    +0.046 C 
BRANCH  13  15
ATOM     15  C   UNL     1      -1.372  -4.978   0.462  0.00  0.00    +0.102 C 
ATOM     16  N   UNL     1      -2.113  -5.692  -0.019  0.00  0.00    -0.191 NA
ENDBRANCH  13  15
ENDBRANCH   1  12
BRANCH   2  17
ATOM     17  C   UNL     1       1.911  -7.485   3.811  0.00  0.00    +0.181 C 
BRANCH  17  18
ATOM     18  N   UNL     1       3.025  -7.500   4.768  0.00  0.00    -0.291 NA
ATOM     19  C   UNL     1       4.290  -7.150   4.109  0.00  0.00    +0.104 C 
ATOM     20  C   UNL     1       5.389  -7.000   5.167  0.00  0.00    +0.120 C 
ATOM     21  N   UNL     1       5.429  -8.227   5.977  0.00  0.00    -0.327 N 
ATOM     22  C   UNL     1       4.170  -8.717   6.558  0.00  0.00    +0.120 C 
ATOM     23  C   UNL     1       3.119  -8.800   5.446  0.00  0.00    +0.104 C 
BRANCH  21  24
ATOM     24  C   UNL     1       6.632  -8.909   6.188  0.00  0.00    +0.030 A 
ATOM     25  C   UNL     1       7.788  -8.496   5.540  0.00  0.00    +0.027 A 
ATOM     26  C   UNL     1       8.975  -9.170   5.749  0.00  0.00    +0.047 A 
ATOM     27  C   UNL     1       9.013 -10.259   6.607  0.00  0.00    +0.117 A 
ATOM     28  C   UNL     1       7.858 -10.673   7.255  0.00  0.00    +0.047 A 
ATOM     29  C   UNL     1       6.671  -9.997   7.051  0.00  0.00    +0.027 A 
BRANCH  27  30
ATOM     30  O   UNL     1      10.182 -10.922   6.813  0.00  0.00    -0.507 OA
ATOM     31  H   UNL     1      10.707 -10.576   7.548  0.00  0.00    +0.292 HD
ENDBRANCH  27  30
ENDBRANCH  21  24
ENDBRANCH  17  18
ENDBRANCH   2  17
TORSDOF 6
