REMARK  Name = ZINC16755842
REMARK  11 active torsions:
REMARK  status: ('A' for Active; 'I' for Inactive)
REMARK    1  A    between atoms: C_1  and  C_2
REMARK    2  A    between atoms: C_7  and  N_8
REMARK    3  A    between atoms: C_9  and  C_11
REMARK    4  A    between atoms: C_11  and  S_12
REMARK    5  A    between atoms: S_12  and  C_13
REMARK    6  A    between atoms: C_16  and  C_19
REMARK    7  A    between atoms: N_17  and  N_18
REMARK    8  A    between atoms: C_22  and  C_25
REMARK    9  A    between atoms: C_25  and  C_26
REMARK   10  A    between atoms: C_25  and  C_27
REMARK   11  A    between atoms: C_25  and  C_28
REMARK                            x       y       z     vdW  Elec       q    Type
REMARK                         _______ _______ _______ _____ _____    ______ ____
ROOT
ATOM      1  C   UNL     1      -6.427   2.045  -0.501  0.00  0.00    +0.209 A 
ATOM      2  N   UNL     1      -6.371   3.345  -0.315  0.00  0.00    -0.121 NA
ATOM      3  N   UNL     1      -7.553   3.848  -0.352  0.00  0.00    -0.127 NA
ATOM      4  C   UNL     1      -8.437   2.900  -0.556  0.00  0.00    +0.182 A 
ATOM      5  N   UNL     1      -7.744   1.716  -0.657  0.00  0.00    -0.224 N 
ENDROOT
BRANCH   4   6
ATOM      6  C   UNL     1      -9.902   3.071  -0.656  0.00  0.00    +0.021 A 
ATOM      7  C   UNL     1     -10.445   4.337  -0.885  0.00  0.00    +0.012 A 
ATOM      8  C   UNL     1     -11.813   4.489  -0.983  0.00  0.00    +0.005 A 
ATOM      9  C   UNL     1     -12.646   3.393  -0.844  0.00  0.00    -0.042 A 
ATOM     10  C   UNL     1     -12.114   2.137  -0.611  0.00  0.00    +0.005 A 
ATOM     11  C   UNL     1     -10.748   1.970  -0.516  0.00  0.00    +0.012 A 
BRANCH   9  12
ATOM     12  C   UNL     1     -14.139   3.568  -0.946  0.00  0.00    -0.013 C 
ATOM     13  C   UNL     1     -14.795   3.123   0.363  0.00  0.00    +0.015 C 
ATOM     14  C   UNL     1     -14.464   5.041  -1.204  0.00  0.00    +0.015 C 
ATOM     15  C   UNL     1     -14.675   2.718  -2.099  0.00  0.00    +0.015 C 
ENDBRANCH   9  12
ENDBRANCH   4   6
BRANCH   5  16
ATOM     16  N   UNL     1      -8.263   0.471  -0.871  0.00  0.00    -0.295 N 
ATOM     17  H   UNL     1      -8.564   0.051  -0.004  0.00  0.00    +0.163 HD
ATOM     18  H   UNL     1      -9.019   0.504  -1.538  0.00  0.00    +0.163 HD
ENDBRANCH   5  16
BRANCH   1  19
ATOM     19  S   UNL     1      -5.061   0.933  -0.536  0.00  0.00    -0.075 S 
BRANCH  19  20
ATOM     20  C   UNL     1      -3.702   2.098  -0.263  0.00  0.00    +0.173 C 
BRANCH  20  22
ATOM     21  N   UNL     1      -1.238   2.016  -0.066  0.00  0.00    -0.285 N 
ATOM     22  C   UNL     1      -2.394   1.349  -0.254  0.00  0.00    +0.227 C 
ATOM     23  O   UNL     1      -2.381   0.147  -0.416  0.00  0.00    -0.275 OA
ATOM     24  H   UNL     1      -1.252   2.965   0.136  0.00  0.00    +0.155 HD
BRANCH  21  31
ATOM     25  C   UNL     1       1.003   3.427  -1.107  0.00  0.00    +0.046 C 
ATOM     26  C   UNL     1       1.102   1.989  -0.666  0.00  0.00    -0.028 A 
ATOM     27  C   UNL     1       2.305   1.317  -0.764  0.00  0.00    +0.020 A 
ATOM     28  C   UNL     1       2.396  -0.003  -0.359  0.00  0.00    +0.018 A 
ATOM     29  C   UNL     1       1.283  -0.653   0.145  0.00  0.00    +0.017 A 
ATOM     30  C   UNL     1       0.078   0.014   0.245  0.00  0.00    +0.024 A 
ATOM     31  C   UNL     1      -0.016   1.339  -0.161  0.00  0.00    +0.036 A 
ATOM     32 BR   UNL     1       4.044  -0.919  -0.494  0.00  0.00    -0.050 Br
ENDBRANCH  21  31
ENDBRANCH  20  22
ENDBRANCH  19  20
ENDBRANCH   1  19
TORSDOF 7
