REMARK  Name = ZINC11623192
REMARK  6 active torsions:
REMARK  status: ('A' for Active; 'I' for Inactive)
REMARK    1  A    between atoms: C_1  and  C_2
REMARK    2  A    between atoms: C_5  and  N_9
REMARK    3  A    between atoms: N_9  and  C_10
REMARK    4  A    between atoms: C_10  and  C_11
REMARK    5  A    between atoms: N_13  and  C_14
REMARK    6  A    between atoms: C_19  and  N_20
REMARK                            x       y       z     vdW  Elec       q    Type
REMARK                         _______ _______ _______ _____ _____    ______ ____
ROOT
ATOM      1  C   UNL     1      -0.728   1.592  -1.216  0.00  0.00    +0.234 C 
ATOM      2  O   UNL     1      -1.727   2.268  -1.089  0.00  0.00    -0.274 OA
ATOM      3  N   UNL     1      -0.280   1.278  -2.447  0.00  0.00    -0.282 N 
ATOM      4  H   UNL     1       0.555   0.793  -2.550  0.00  0.00    +0.155 HD
ENDROOT
BRANCH   3   5
ATOM      5  C   UNL     1      -1.017   1.649  -3.577  0.00  0.00    +0.061 A 
ATOM      6  C   UNL     1      -1.718   2.847  -3.588  0.00  0.00    +0.045 A 
ATOM      7  C   UNL     1      -2.442   3.214  -4.707  0.00  0.00    +0.043 A 
ATOM      8  C   UNL     1      -2.479   2.384  -5.814  0.00  0.00    +0.022 A 
ATOM      9  C   UNL     1      -1.788   1.188  -5.810  0.00  0.00    +0.031 A 
ATOM     10  C   UNL     1      -1.055   0.814  -4.693  0.00  0.00    +0.088 A 
ATOM     11 CL   UNL     1      -3.313   4.715  -4.720  0.00  0.00    -0.083 Cl
BRANCH  10  12
ATOM     12  N   UNL     1      -0.354  -0.401  -4.686  0.00  0.00    -0.218 N 
ATOM     13  C   UNL     1      -0.219  -1.261  -5.714  0.00  0.00    +0.225 A 
ATOM     14  N   UNL     1       0.508  -2.269  -5.305  0.00  0.00    -0.222 NA
ATOM     15  C   UNL     1       0.848  -2.095  -4.029  0.00  0.00    +0.245 A 
ATOM     16  N   UNL     1       0.343  -0.965  -3.605  0.00  0.00    -0.153 NA
ENDBRANCH  10  12
ENDBRANCH   3   5
BRANCH   1  17
ATOM     17  C   UNL     1       0.012   1.105   0.003  0.00  0.00    +0.198 C 
BRANCH  17  18
ATOM     18  N   UNL     1      -0.671   1.577   1.210  0.00  0.00    -0.335 N 
ATOM     19  H   UNL     1      -1.473   2.118   1.134  0.00  0.00    +0.147 HD
BRANCH  18  24
ATOM     20  C   UNL     1       1.375   0.245   6.330  0.00  0.00    +0.044 C 
ATOM     21  C   UNL     1       0.831   0.599   4.970  0.00  0.00    -0.049 A 
ATOM     22  C   UNL     1       1.476   0.152   3.831  0.00  0.00    +0.005 A 
ATOM     23  C   UNL     1       0.981   0.475   2.583  0.00  0.00    +0.024 A 
ATOM     24  C   UNL     1      -0.167   1.249   2.471  0.00  0.00    +0.042 A 
ATOM     25  C   UNL     1      -0.810   1.701   3.617  0.00  0.00    +0.039 A 
ATOM     26  C   UNL     1      -0.312   1.370   4.863  0.00  0.00    +0.020 A 
ATOM     27 BR   UNL     1      -2.369   2.762   3.472  0.00  0.00    -0.048 Br
ENDBRANCH  18  24
ENDBRANCH  17  18
ENDBRANCH   1  17
TORSDOF 5
