REMARK  Name = ZINC37131304
REMARK  5 active torsions:
REMARK  status: ('A' for Active; 'I' for Inactive)
REMARK    1  A    between atoms: C_1  and  C_2
REMARK    2  A    between atoms: C_2  and  C_4
REMARK    3  A    between atoms: C_2  and  N_11
REMARK    4  A    between atoms: N_11  and  C_12
REMARK    5  A    between atoms: C_15  and  N_19
REMARK                            x       y       z     vdW  Elec       q    Type
REMARK                         _______ _______ _______ _____ _____    ______ ____
ROOT
ATOM      1  N   UNL     1       0.711  -0.489   1.189  0.00  0.00    -0.336 N 
ATOM      2  H   UNL     1       0.213  -0.731   1.986  0.00  0.00    +0.147 HD
ENDROOT
BRANCH   1   3
ATOM      3  C   UNL     1       2.103  -0.604   1.173  0.00  0.00    +0.042 A 
ATOM      4  C   UNL     1       2.818  -0.253   0.035  0.00  0.00    +0.026 A 
ATOM      5  C   UNL     1       4.194  -0.366   0.023  0.00  0.00    +0.034 A 
ATOM      6  C   UNL     1       4.861  -0.830   1.142  0.00  0.00    +0.127 A 
ATOM      7  C   UNL     1       4.154  -1.181   2.277  0.00  0.00    +0.049 A 
ATOM      8  C   UNL     1       2.777  -1.064   2.298  0.00  0.00    +0.041 A 
ATOM      9 BR   UNL     1       1.810  -1.536   3.853  0.00  0.00    -0.048 Br
BRANCH   6  10
ATOM     10  N   UNL     1       6.336  -0.952   1.124  0.00  0.00    +0.056 N 
ATOM     11  O   UNL     1       6.956  -0.646   0.133  0.00  0.00    -0.126 OA
ATOM     12  O   UNL     1       6.921  -1.357   2.102  0.00  0.00    -0.126 OA
ENDBRANCH   6  10
ENDBRANCH   1   3
BRANCH   1  14
ATOM     13  C   UNL     1      -0.019   1.526   0.010  0.00  0.00    +0.033 C 
ATOM     14  C   UNL     1       0.002  -0.004   0.002  0.00  0.00    +0.100 C 
BRANCH  14  15
ATOM     15  C   UNL     1      -1.412  -0.526   0.013  0.00  0.00    +0.008 A 
ATOM     16  C   UNL     1      -2.015  -0.864   1.210  0.00  0.00    +0.008 A 
ATOM     17  C   UNL     1      -3.312  -1.342   1.220  0.00  0.00    +0.000 A 
ATOM     18  C   UNL     1      -4.007  -1.483   0.033  0.00  0.00    +0.003 A 
ATOM     19  C   UNL     1      -3.406  -1.145  -1.165  0.00  0.00    +0.039 A 
ATOM     20  C   UNL     1      -2.109  -0.661  -1.176  0.00  0.00    +0.128 A 
ATOM     21  F   UNL     1      -1.522  -0.326  -2.345  0.00  0.00    -0.205 F 
ENDBRANCH  14  15
ENDBRANCH   1  14
TORSDOF 4
