REMARK  Name = ZINC41026882
REMARK  10 active torsions:
REMARK  status: ('A' for Active; 'I' for Inactive)
REMARK    1  A    between atoms: C_1  and  C_2
REMARK    2  A    between atoms: C_2  and  C_3
REMARK    3  A    between atoms: C_3  and  O_4
REMARK    4  A    between atoms: O_4  and  C_5
REMARK    5  A    between atoms: C_5  and  C_7
REMARK    6  A    between atoms: C_10  and  O_13
REMARK    7  A    between atoms: O_13  and  C_14
REMARK    8  A    between atoms: N_26  and  C_29
REMARK    9  A    between atoms: C_29  and  C_30
REMARK   10  A    between atoms: C_30  and  C_31
REMARK                            x       y       z     vdW  Elec       q    Type
REMARK                         _______ _______ _______ _____ _____    ______ ____
ROOT
ATOM      1  C   UNL     1      -4.005  -8.863  -0.059  0.00  0.00    +0.210 A 
ATOM      2  C   UNL     1      -5.169  -8.188  -0.133  0.00  0.00    +0.245 A 
ATOM      3  O   UNL     1      -6.360  -8.800  -0.179  0.00  0.00    -0.459 OA
ATOM      4  C   UNL     1      -6.484 -10.143  -0.151  0.00  0.00    +0.147 A 
ATOM      5  C   UNL     1      -5.334 -10.948  -0.076  0.00  0.00    +0.068 A 
ATOM      6  C   UNL     1      -4.018 -10.287  -0.032  0.00  0.00    +0.235 A 
ATOM      7  O   UNL     1      -2.985 -10.931   0.029  0.00  0.00    -0.283 OA
ATOM      8  C   UNL     1      -5.451 -12.338  -0.048  0.00  0.00    +0.019 A 
ATOM      9  C   UNL     1      -6.688 -12.913  -0.094  0.00  0.00    +0.047 A 
ATOM     10  C   UNL     1      -7.836 -12.123  -0.167  0.00  0.00    +0.130 A 
ATOM     11  C   UNL     1      -7.735 -10.743  -0.194  0.00  0.00    +0.051 A 
ATOM     12  C   UNL     1      -8.968  -9.879  -0.264  0.00  0.00    +0.130 C 
ATOM     13  N   UNL     1     -10.112 -10.686  -0.709  0.00  0.00    -0.266 NA
ATOM     14  C   UNL     1     -10.195 -11.926   0.080  0.00  0.00    +0.318 C 
ATOM     15  O   UNL     1      -9.051 -12.731  -0.214  0.00  0.00    -0.476 OA
ENDROOT
BRANCH   1  16
ATOM     16  O   UNL     1      -2.823  -8.188  -0.015  0.00  0.00    -0.449 OA
BRANCH  16  20
ATOM     17  C   UNL     1      -0.601  -8.395   3.457  0.00  0.00    +0.059 A 
ATOM     18  C   UNL     1      -1.873  -8.974   3.403  0.00  0.00    +0.018 A 
ATOM     19  C   UNL     1      -2.610  -8.903   2.243  0.00  0.00    +0.047 A 
ATOM     20  C   UNL     1      -2.093  -8.256   1.126  0.00  0.00    +0.129 A 
ATOM     21  C   UNL     1      -0.829  -7.679   1.175  0.00  0.00    +0.047 A 
ATOM     22  C   UNL     1      -0.087  -7.740   2.333  0.00  0.00    +0.018 A 
BRANCH  17  23
ATOM     23  C   UNL     1       0.193  -8.468   4.697  0.00  0.00    +0.339 C 
ATOM     24  O   UNL     1       1.296  -7.960   4.744  0.00  0.00    -0.245 OA
BRANCH  23  25
ATOM     25  O   UNL     1      -0.305  -9.099   5.779  0.00  0.00    -0.461 OA
BRANCH  25  26
ATOM     26  C   UNL     1       0.519  -9.132   6.947  0.00  0.00    +0.232 C 
BRANCH  26  28
ATOM     27  C   UNL     1       0.673  -9.921   9.312  0.00  0.00    +0.007 C 
ATOM     28  C   UNL     1      -0.208  -9.885   8.062  0.00  0.00    +0.038 C 
ENDBRANCH  26  28
ENDBRANCH  25  26
ENDBRANCH  23  25
ENDBRANCH  17  23
ENDBRANCH  16  20
ENDBRANCH   1  16
BRANCH  13  29
ATOM     29  C   UNL     1     -11.363  -9.921  -0.620  0.00  0.00    +0.092 C 
BRANCH  29  30
ATOM     30  C   UNL     1     -12.485 -10.694  -1.317  0.00  0.00    +0.052 C 
BRANCH  30  31
ATOM     31  C   UNL     1     -13.768  -9.909  -1.226  0.00  0.00    -0.028 A 
ATOM     32  C   UNL     1     -14.665 -10.167  -0.206  0.00  0.00    +0.005 A 
ATOM     33  C   UNL     1     -15.842  -9.447  -0.122  0.00  0.00    +0.000 A 
ATOM     34  C   UNL     1     -16.122  -8.468  -1.057  0.00  0.00    +0.001 A 
ATOM     35  C   UNL     1     -15.226  -8.209  -2.077  0.00  0.00    +0.020 A 
ATOM     36  C   UNL     1     -14.045  -8.925  -2.158  0.00  0.00    +0.044 A 
ATOM     37 CL   UNL     1     -12.916  -8.596  -3.435  0.00  0.00    -0.083 Cl
ENDBRANCH  30  31
ENDBRANCH  29  30
ENDBRANCH  13  29
TORSDOF 9
