REMARK  Name = ZINC20583710
REMARK  4 active torsions:
REMARK  status: ('A' for Active; 'I' for Inactive)
REMARK    1  A    between atoms: C_1  and  C_2
REMARK    2  A    between atoms: C_2  and  C_3
REMARK    3  A    between atoms: C_6  and  N_9
REMARK    4  A    between atoms: C_11  and  C_16
REMARK                            x       y       z     vdW  Elec       q    Type
REMARK                         _______ _______ _______ _____ _____    ______ ____
ROOT
ATOM      1  C   UNL     1      -1.661   8.929   0.255  0.00  0.00    +0.109 A 
ATOM      2  N   UNL     1      -1.766   9.239   1.531  0.00  0.00    -0.144 NA
ATOM      3  N   UNL     1      -2.527  10.174   1.906  0.00  0.00    -0.126 NA
ATOM      4  C   UNL     1      -3.245  10.876   1.047  0.00  0.00    +0.189 A 
ATOM      5  S   UNL     1      -2.781  10.130  -0.454  0.00  0.00    -0.035 S 
ATOM      6  N   UNL     1      -4.125  11.928   1.278  0.00  0.00    -0.246 N 
ATOM      7  C   UNL     1      -4.339  12.362   2.536  0.00  0.00    +0.317 C 
ATOM      8  O   UNL     1      -3.722  11.872   3.462  0.00  0.00    -0.252 OA
ATOM      9  N   UNL     1      -5.238  13.340   2.768  0.00  0.00    -0.222 N 
ATOM     10  C   UNL     1      -5.933  13.896   1.686  0.00  0.00    +0.057 A 
ATOM     11  C   UNL     1      -5.295  14.095   0.472  0.00  0.00    +0.025 A 
ATOM     12  C   UNL     1      -5.987  14.647  -0.591  0.00  0.00    +0.002 A 
ATOM     13  C   UNL     1      -7.316  15.003  -0.453  0.00  0.00    +0.001 A 
ATOM     14  C   UNL     1      -7.971  14.799   0.759  0.00  0.00    +0.017 A 
ATOM     15  C   UNL     1      -7.280  14.251   1.824  0.00  0.00    +0.035 A 
ATOM     16  S   UNL     1      -8.075  13.994   3.380  0.00  0.00    -0.086 S 
ATOM     17  C   UNL     1      -6.729  14.121   4.516  0.00  0.00    +0.035 A 
ATOM     18  C   UNL     1      -5.447  13.776   4.082  0.00  0.00    +0.057 A 
ATOM     19  C   UNL     1      -4.383  13.870   4.966  0.00  0.00    +0.025 A 
ATOM     20  C   UNL     1      -4.597  14.302   6.263  0.00  0.00    +0.002 A 
ATOM     21  C   UNL     1      -5.867  14.644   6.686  0.00  0.00    +0.001 A 
ATOM     22  C   UNL     1      -6.938  14.553   5.813  0.00  0.00    +0.017 A 
ATOM     23  H   UNL     1      -4.646  12.405   0.435  0.00  0.00    +0.158 HD
ENDROOT
BRANCH   1  26
ATOM     24  N   UNL     1       0.056   5.711   0.146  0.00  0.00    -0.271 N 
ATOM     25  C   UNL     1      -1.205   6.460   0.097  0.00  0.00    +0.124 C 
ATOM     26  C   UNL     1      -0.829   7.867  -0.418  0.00  0.00    +0.073 C 
ATOM     27  C   UNL     1       0.654   7.973   0.009  0.00  0.00    +0.108 C 
ATOM     28  C   UNL     1       1.116   6.537   0.110  0.00  0.00    +0.220 C 
ATOM     29  O   UNL     1       2.275   6.181   0.149  0.00  0.00    -0.275 OA
BRANCH  24  33
ATOM     30  C   UNL     1       0.315   1.560   0.385  0.00  0.00    -0.048 A 
ATOM     31  C   UNL     1       1.464   2.315   0.232  0.00  0.00    +0.005 A 
ATOM     32  C   UNL     1       1.380   3.691   0.147  0.00  0.00    +0.024 A 
ATOM     33  C   UNL     1       0.143   4.317   0.227  0.00  0.00    +0.036 A 
ATOM     34  C   UNL     1      -1.008   3.556   0.386  0.00  0.00    +0.024 A 
ATOM     35  C   UNL     1      -0.918   2.180   0.465  0.00  0.00    +0.005 A 
BRANCH  30  37
ATOM     36  C   UNL     1       0.303  -0.541  -0.931  0.00  0.00    +0.009 C 
ATOM     37  C   UNL     1       0.409   0.058   0.472  0.00  0.00    +0.032 C 
ENDBRANCH  30  37
ENDBRANCH  24  33
ENDBRANCH   1  26
TORSDOF 3
