REMARK  Name = ZINC31656351
REMARK  5 active torsions:
REMARK  status: ('A' for Active; 'I' for Inactive)
REMARK    1  A    between atoms: C_5  and  O_7
REMARK    2  A    between atoms: O_7  and  C_8
REMARK    3  A    between atoms: C_8  and  C_9
REMARK    4  A    between atoms: N_11  and  C_12
REMARK    5  A    between atoms: C_13  and  C_21
REMARK                            x       y       z     vdW  Elec       q    Type
REMARK                         _______ _______ _______ _____ _____    ______ ____
ROOT
ATOM      1  C   UNL     1      -4.026   5.882   0.053  0.00  0.00    +0.084 A 
ATOM      2  C   UNL     1      -4.424   7.211   0.068  0.00  0.00    +0.068 A 
ATOM      3  C   UNL     1      -5.851   7.485   0.070  0.00  0.00    -0.023 A 
ATOM      4  C   UNL     1      -6.646   6.393   0.069  0.00  0.00    -0.004 A 
ATOM      5  S   UNL     1      -5.529   5.020   0.056  0.00  0.00    -0.077 S 
ATOM      6  C   UNL     1      -8.144   6.367   0.077  0.00  0.00    +0.043 C 
ATOM      7  C   UNL     1      -8.650   7.763   0.464  0.00  0.00    +0.005 C 
ATOM      8  C   UNL     1      -7.905   8.808  -0.371  0.00  0.00    +0.005 C 
ATOM      9  C   UNL     1      -6.445   8.889   0.079  0.00  0.00    +0.037 C 
ENDROOT
BRANCH   2  10
ATOM     10  C   UNL     1      -3.441   8.299   0.076  0.00  0.00    +0.244 C 
ATOM     11  O   UNL     1      -3.036   8.762  -0.974  0.00  0.00    -0.270 OA
ATOM     12  N   UNL     1      -2.986   8.787   1.248  0.00  0.00    -0.325 N 
ATOM     13  H   UNL     1      -2.248   9.603   1.254  0.00  0.00    +0.145 HD
ATOM     14  H   UNL     1      -3.352   8.368   2.197  0.00  0.00    +0.145 HD
ENDBRANCH   2  10
BRANCH   1  17
ATOM     15  C   UNL     1      -2.545   4.034   0.036  0.00  0.00    +0.255 C 
ATOM     16  O   UNL     1      -3.498   3.284   0.036  0.00  0.00    -0.272 OA
ATOM     17  N   UNL     1      -2.738   5.368   0.044  0.00  0.00    -0.277 N 
ATOM     18  H   UNL     1      -1.875   6.049   0.044  0.00  0.00    +0.155 HD
BRANCH  15  19
ATOM     19  C   UNL     1      -1.145   3.476   0.026  0.00  0.00    +0.325 C 
BRANCH  19  20
ATOM     20  O   UNL     1      -1.202   2.048   0.019  0.00  0.00    -0.482 OA
BRANCH  20  25
ATOM     21  C   UNL     1       2.380   1.413  -0.013  0.00  0.00    +0.004 A 
ATOM     22  C   UNL     1       2.397   0.030  -0.021  0.00  0.00    +0.001 A 
ATOM     23  C   UNL     1       1.209  -0.677  -0.013  0.00  0.00    +0.018 A 
ATOM     24  C   UNL     1       0.002  -0.004   0.002  0.00  0.00    +0.055 A 
ATOM     25  C   UNL     1      -0.017   1.383   0.010  0.00  0.00    +0.134 A 
ATOM     26  C   UNL     1       1.177   2.091   0.002  0.00  0.00    +0.047 A 
ATOM     27  I   UNL     1      -1.797  -1.077   0.013  0.00  0.00    -0.040 I 
ENDBRANCH  20  25
ENDBRANCH  19  20
ENDBRANCH  15  19
ENDBRANCH   1  17
TORSDOF 5
