REMARK  Name = ZINC38832374
REMARK  7 active torsions:
REMARK  status: ('A' for Active; 'I' for Inactive)
REMARK    1  A    between atoms: C_1  and  C_2
REMARK    2  A    between atoms: C_2  and  C_3
REMARK    3  A    between atoms: C_2  and  C_4
REMARK    4  A    between atoms: C_2  and  N_5
REMARK    5  A    between atoms: C_6  and  C_8
REMARK    6  A    between atoms: N_12  and  S_21
REMARK    7  A    between atoms: S_21  and  C_24
REMARK                            x       y       z     vdW  Elec       q    Type
REMARK                         _______ _______ _______ _____ _____    ______ ____
ROOT
ATOM      1  C   UNL     1       2.677  -0.618  -2.667  0.00  0.00    +0.260 C 
ATOM      2  C   UNL     1       1.996  -0.025  -3.893  0.00  0.00    +0.075 C 
ATOM      3  C   UNL     1       2.536  -0.597  -5.191  0.00  0.00    +0.135 C 
ATOM      4  N   UNL     1       3.955  -0.250  -5.351  0.00  0.00    -0.204 N 
ATOM      5  C   UNL     1       4.906  -1.034  -4.680  0.00  0.00    +0.094 A 
ATOM      6  C   UNL     1       5.809  -1.810  -5.387  0.00  0.00    +0.048 A 
ATOM      7  C   UNL     1       6.733  -2.581  -4.702  0.00  0.00    +0.043 A 
ATOM      8  C   UNL     1       6.753  -2.577  -3.318  0.00  0.00    +0.024 A 
ATOM      9  C   UNL     1       5.852  -1.800  -2.609  0.00  0.00    +0.049 A 
ATOM     10  C   UNL     1       4.931  -1.025  -3.290  0.00  0.00    +0.144 A 
ATOM     11  O   UNL     1       4.049  -0.236  -2.604  0.00  0.00    -0.478 OA
ATOM     12 CL   UNL     1       7.869  -3.556  -5.580  0.00  0.00    -0.083 Cl
ENDROOT
BRANCH   1  14
ATOM     13  N   UNL     1       0.688  -0.476  -1.203  0.00  0.00    -0.308 N 
ATOM     14  C   UNL     1       1.972  -0.132  -1.427  0.00  0.00    +0.254 C 
ATOM     15  O   UNL     1       2.559   0.569  -0.630  0.00  0.00    -0.272 OA
ATOM     16  H   UNL     1       0.218  -1.037  -1.840  0.00  0.00    +0.149 HD
BRANCH  13  18
ATOM     17  C   UNL     1      -0.019   1.526   0.010  0.00  0.00    +0.031 C 
ATOM     18  C   UNL     1       0.002  -0.004   0.002  0.00  0.00    +0.026 C 
ATOM     19  C   UNL     1       0.742  -0.511   1.242  0.00  0.00    +0.031 C 
ATOM     20  C   UNL     1      -1.433  -0.534   0.013  0.00  0.00    +0.031 C 
ENDBRANCH  13  18
ENDBRANCH   1  14
BRANCH   4  21
ATOM     21  S   UNL     1       4.418   1.029  -6.295  0.00  0.00    +0.043 S 
ATOM     22  O   UNL     1       5.738   0.711  -6.714  0.00  0.00    -0.155 OA
ATOM     23  O   UNL     1       3.372   1.175  -7.245  0.00  0.00    -0.155 OA
ATOM     24  C   UNL     1       4.444   2.453  -5.171  0.00  0.00    +0.218 C 
ENDBRANCH   4  21
TORSDOF 3
