REMARK  Name = ZINC14705151
REMARK  10 active torsions:
REMARK  status: ('A' for Active; 'I' for Inactive)
REMARK    1  A    between atoms: C_1  and  C_2
REMARK    2  A    between atoms: C_2  and  N_3
REMARK    3  A    between atoms: C_6  and  C_19
REMARK    4  A    between atoms: C_7  and  N_18
REMARK    5  A    between atoms: N_8  and  C_11
REMARK    6  A    between atoms: C_11  and  C_12
REMARK    7  A    between atoms: C_19  and  C_21
REMARK    8  A    between atoms: C_21  and  N_62
REMARK    9  A    between atoms: C_22  and  N_62
REMARK   10  A    between atoms: C_23  and  N_62
REMARK                            x       y       z     vdW  Elec       q    Type
REMARK                         _______ _______ _______ _____ _____    ______ ____
ROOT
ATOM      1  N   UNL     1      -0.732   2.899   1.562  0.00  0.00    -0.260 N 
ATOM      2  C   UNL     1       0.350   3.533   2.059  0.00  0.00    +0.269 A 
ATOM      3  O   UNL     1       1.353   2.911   2.355  0.00  0.00    -0.267 OA
ATOM      4  C   UNL     1       0.294   4.991   2.229  0.00  0.00    +0.118 A 
ATOM      5  C   UNL     1      -0.896   5.649   1.873  0.00  0.00    +0.116 A 
ATOM      6  N   UNL     1      -1.937   4.912   1.383  0.00  0.00    -0.277 N 
ATOM      7  C   UNL     1      -1.843   3.581   1.238  0.00  0.00    +0.334 A 
ATOM      8  O   UNL     1      -2.797   2.971   0.797  0.00  0.00    -0.246 OA
ENDROOT
BRANCH   5   9
ATOM      9  N   UNL     1      -1.009   6.997   2.013  0.00  0.00    -0.344 N 
ATOM     10  H   UNL     1      -1.796   7.455   1.678  0.00  0.00    +0.144 HD
ATOM     11  H   UNL     1      -0.302   7.501   2.447  0.00  0.00    +0.144 HD
ENDBRANCH   5   9
BRANCH   1  13
ATOM     12  C   UNL     1      -0.183   1.121  -0.026  0.00  0.00    +0.027 C 
ATOM     13  C   UNL     1      -0.697   1.446   1.378  0.00  0.00    +0.126 C 
ENDBRANCH   1  13
BRANCH   4  14
ATOM     14  C   UNL     1       1.397   5.707   2.740  0.00  0.00    +0.155 C 
ATOM     15  O   UNL     1       1.294   6.893   2.978  0.00  0.00    -0.294 OA
BRANCH  14  16
ATOM     16  C   UNL     1       2.705   5.000   2.989  0.00  0.00    +0.002 C 
BRANCH  16  18
ATOM     17  C   UNL     1       4.146   6.873   2.463  0.00  0.00    -0.095 C 
ATOM     18  N   UNL     1       3.674   5.973   3.536  0.00  0.00    +0.385 N 
ATOM     19  H   UNL     1       3.210   6.533   4.261  0.00  0.00    -0.081 HD
BRANCH  18  20
ATOM     20  C   UNL     1       4.819   5.260   4.139  0.00  0.00    -0.068 C 
ATOM     21  C   UNL     1       5.692   6.291   4.884  0.00  0.00    -0.015 C 
ATOM     22  C   UNL     1       6.518   5.566   5.911  0.00  0.00    -0.002 C 
ATOM     23  C   UNL     1       7.916   5.189   5.384  0.00  0.00    -0.000 C 
ATOM     24  C   UNL     1       7.887   4.663   3.937  0.00  0.00    -0.000 C 
ATOM     25  C   UNL     1       6.733   3.731   3.686  0.00  0.00    -0.002 C 
ATOM     26  C   UNL     1       5.560   4.548   3.108  0.00  0.00    -0.015 C 
ENDBRANCH  18  20
ENDBRANCH  16  18
ENDBRANCH  14  16
ENDBRANCH   4  14
BRANCH   6  27
ATOM     27  C   UNL     1      -3.181   5.589   1.009  0.00  0.00    +0.163 C 
BRANCH  27  28
ATOM     28  C   UNL     1      -4.103   5.642   2.200  0.00  0.00    -0.028 A 
ATOM     29  C   UNL     1      -5.004   4.617   2.423  0.00  0.00    +0.005 A 
ATOM     30  C   UNL     1      -5.846   4.664   3.518  0.00  0.00    +0.000 A 
ATOM     31  C   UNL     1      -5.793   5.739   4.386  0.00  0.00    +0.000 A 
ATOM     32  C   UNL     1      -4.896   6.766   4.160  0.00  0.00    +0.000 A 
ATOM     33  C   UNL     1      -4.050   6.717   3.067  0.00  0.00    +0.005 A 
ENDBRANCH  27  28
ENDBRANCH   6  27
TORSDOF 8
