REMARK  Name = ZINC63270496
REMARK  10 active torsions:
REMARK  status: ('A' for Active; 'I' for Inactive)
REMARK    1  A    between atoms: C_1  and  C_2
REMARK    2  A    between atoms: C_7  and  O_16
REMARK    3  A    between atoms: C_13  and  C_15
REMARK    4  A    between atoms: O_16  and  C_17
REMARK    5  A    between atoms: C_17  and  C_18
REMARK    6  A    between atoms: N_20  and  C_21
REMARK    7  A    between atoms: C_21  and  C_22
REMARK    8  A    between atoms: N_24  and  C_25
REMARK    9  A    between atoms: C_25  and  C_26
REMARK   10  A    between atoms: C_26  and  C_27
REMARK                            x       y       z     vdW  Elec       q    Type
REMARK                         _______ _______ _______ _____ _____    ______ ____
ROOT
ATOM      1  C   UNL     1      -7.607  -1.768  -0.803  0.00  0.00    +0.251 C 
ATOM      2  O   UNL     1      -7.777  -2.746  -0.108  0.00  0.00    -0.272 OA
ATOM      3  N   UNL     1      -8.639  -1.245  -1.495  0.00  0.00    -0.304 N 
ATOM      4  H   UNL     1      -8.503  -0.462  -2.052  0.00  0.00    +0.149 HD
ENDROOT
BRANCH   1   5
ATOM      5  C   UNL     1      -6.241  -1.136  -0.895  0.00  0.00    +0.324 C 
BRANCH   5   6
ATOM      6  O   UNL     1      -5.323  -1.866  -0.078  0.00  0.00    -0.483 OA
BRANCH   6  12
ATOM      7  C   UNL     1      -0.019   1.526   0.010  0.00  0.00    +0.013 C 
ATOM      8  C   UNL     1       0.002  -0.004   0.002  0.00  0.00    +0.033 C 
ATOM      9  C   UNL     1      -1.413  -0.524   0.009  0.00  0.00    -0.001 A 
ATOM     10  C   UNL     1      -2.362   0.134  -0.759  0.00  0.00    +0.011 A 
ATOM     11  C   UNL     1      -3.668  -0.310  -0.789  0.00  0.00    +0.046 A 
ATOM     12  C   UNL     1      -4.039  -1.424  -0.048  0.00  0.00    +0.125 A 
ATOM     13  C   UNL     1      -3.095  -2.082   0.722  0.00  0.00    +0.092 A 
ATOM     14  C   UNL     1      -1.781  -1.631   0.754  0.00  0.00    +0.139 A 
ATOM     15  O   UNL     1      -0.889  -2.295   1.540  0.00  0.00    -0.425 OA
ATOM     16  C   UNL     1       0.414  -1.979   1.408  0.00  0.00    +0.316 C 
ATOM     17  O   UNL     1       1.276  -2.826   1.423  0.00  0.00    -0.250 OA
ATOM     18  C   UNL     1       0.747  -0.510   1.241  0.00  0.00    +0.102 C 
ATOM     19  C   UNL     1       0.290   0.271   2.476  0.00  0.00    +0.020 C 
ENDBRANCH   6  12
ENDBRANCH   5   6
ENDBRANCH   1   5
BRANCH   3  20
ATOM     20  C   UNL     1      -9.966  -1.859  -1.406  0.00  0.00    +0.200 C 
BRANCH  20  21
ATOM     21  C   UNL     1     -10.934  -1.090  -2.268  0.00  0.00    +0.230 C 
ATOM     22  O   UNL     1     -10.553  -0.123  -2.894  0.00  0.00    -0.274 OA
ATOM     23  N   UNL     1     -12.223  -1.475  -2.342  0.00  0.00    -0.314 N 
ATOM     24  H   UNL     1     -12.528  -2.248  -1.841  0.00  0.00    +0.149 HD
BRANCH  23  25
ATOM     25  C   UNL     1     -13.165  -0.727  -3.179  0.00  0.00    +0.108 C 
BRANCH  25  26
ATOM     26  C   UNL     1     -14.550  -1.369  -3.086  0.00  0.00    +0.052 C 
BRANCH  26  27
ATOM     27  C   UNL     1     -15.519  -0.599  -3.947  0.00  0.00    -0.040 C 
ATOM     28  C   UNL     1     -15.876  -0.882  -5.221  0.00  0.00    -0.001 A 
ATOM     29  C   UNL     1     -15.485  -1.948  -6.150  0.00  0.00    +0.010 A 
ATOM     30  C   UNL     1     -16.025  -1.969  -7.390  0.00  0.00    +0.001 A 
ATOM     31  C   UNL     1     -16.946  -0.999  -7.809  0.00  0.00    +0.002 A 
ATOM     32  C   UNL     1     -17.354   0.011  -7.012  0.00  0.00    +0.026 A 
ATOM     33  C   UNL     1     -16.851   0.130  -5.687  0.00  0.00    +0.043 A 
ATOM     34  N   UNL     1     -17.087   1.004  -4.739  0.00  0.00    -0.380 N 
ATOM     35  C   UNL     1     -16.292   0.642  -3.560  0.00  0.00    +0.144 C 
ATOM     36  H   UNL     1     -17.690   1.761  -4.804  0.00  0.00    +0.160 HD
ENDBRANCH  26  27
ENDBRANCH  25  26
ENDBRANCH  23  25
ENDBRANCH  20  21
ENDBRANCH   3  20
TORSDOF 8
