REMARK  Name = ZINC39954793
REMARK  6 active torsions:
REMARK  status: ('A' for Active; 'I' for Inactive)
REMARK    1  A    between atoms: C_1  and  C_2
REMARK    2  A    between atoms: C_2  and  C_3
REMARK    3  A    between atoms: C_2  and  C_4
REMARK    4  A    between atoms: C_4  and  C_5
REMARK    5  A    between atoms: C_7  and  C_11
REMARK    6  A    between atoms: C_15  and  C_20
REMARK                            x       y       z     vdW  Elec       q    Type
REMARK                         _______ _______ _______ _____ _____    ______ ____
ROOT
ATOM      1  C   UNL     1       5.053   0.283   0.435  0.00  0.00    +0.182 C 
ATOM      2  N   UNL     1       6.196   1.227   0.317  0.00  0.00    -0.265 N 
ATOM      3  N   UNL     1       5.878   2.542   0.486  0.00  0.00    -0.220 N 
ATOM      4  C   UNL     1       6.428   3.777   0.157  0.00  0.00    +0.182 A 
ATOM      5  N   UNL     1       5.648   4.705   0.652  0.00  0.00    -0.127 NA
ATOM      6  N   UNL     1       4.646   4.164   1.251  0.00  0.00    -0.120 NA
ATOM      7  C   UNL     1       4.731   2.871   1.161  0.00  0.00    +0.211 A 
ATOM      8  S   UNL     1       3.971   1.301   1.530  0.00  0.00    -0.058 S 
ATOM      9  H   UNL     1       6.953   0.956   0.927  0.00  0.00    +0.168 HD
ENDROOT
BRANCH   4  10
ATOM     10  C   UNL     1       7.670   4.001  -0.613  0.00  0.00    +0.022 A 
ATOM     11  C   UNL     1       8.566   2.951  -0.819  0.00  0.00    +0.012 A 
ATOM     12  C   UNL     1       9.723   3.167  -1.538  0.00  0.00    +0.002 A 
ATOM     13  C   UNL     1       9.997   4.421  -2.054  0.00  0.00    +0.015 A 
ATOM     14  C   UNL     1       9.113   5.467  -1.853  0.00  0.00    +0.019 A 
ATOM     15  C   UNL     1       7.949   5.263  -1.141  0.00  0.00    +0.027 A 
ATOM     16 BR   UNL     1       9.498   7.177  -2.562  0.00  0.00    -0.050 Br
ENDBRANCH   4  10
BRANCH   1  19
ATOM     17  C   UNL     1       2.165  -0.079  -1.208  0.00  0.00    +0.062 C 
ATOM     18  C   UNL     1       3.162  -0.848  -0.763  0.00  0.00    +0.029 C 
ATOM     19  C   UNL     1       4.395   0.024  -0.922  0.00  0.00    +0.185 C 
ATOM     20  N   UNL     1       3.849   1.269  -1.487  0.00  0.00    -0.177 NA
ATOM     21  N   UNL     1       2.631   1.122  -1.615  0.00  0.00    -0.159 NA
BRANCH  17  22
ATOM     22  C   UNL     1       0.718  -0.497  -1.257  0.00  0.00    +0.060 C 
BRANCH  22  24
ATOM     23  C   UNL     1      -0.019   1.526   0.010  0.00  0.00    +0.007 C 
ATOM     24  C   UNL     1       0.002  -0.004   0.002  0.00  0.00    -0.011 C 
ATOM     25  C   UNL     1      -1.433  -0.534   0.013  0.00  0.00    +0.007 C 
ENDBRANCH  22  24
ENDBRANCH  17  22
ENDBRANCH   1  19
TORSDOF 4
