REMARK  Name = ZINC16667211
REMARK  2 active torsions:
REMARK  status: ('A' for Active; 'I' for Inactive)
REMARK    1  A    between atoms: C_8  and  C_9
REMARK    2  A    between atoms: N_10  and  C_11
REMARK                            x       y       z     vdW  Elec       q    Type
REMARK                         _______ _______ _______ _____ _____    ______ ____
ROOT
ATOM      1  C   UNL     1      -0.017   1.390   0.010  0.00  0.00    +0.025 A 
ATOM      2  C   UNL     1       1.163   2.103   0.002  0.00  0.00    +0.018 A 
ATOM      3  C   UNL     1       2.385   1.446  -0.013  0.00  0.00    +0.037 A 
ATOM      4  C   UNL     1       2.430   0.068  -0.021  0.00  0.00    +0.067 A 
ATOM      5  C   UNL     1       1.238  -0.670  -0.014  0.00  0.00    +0.060 A 
ATOM      6  C   UNL     1       0.002  -0.004   0.002  0.00  0.00    +0.040 A 
ATOM      7  N   UNL     1      -1.047  -0.911   0.007  0.00  0.00    -0.329 N 
ATOM      8  C   UNL     1      -0.509  -2.274  -0.006  0.00  0.00    +0.183 C 
ATOM      9  C   UNL     1       0.995  -2.119  -0.020  0.00  0.00    +0.192 C 
ATOM     10  O   UNL     1       1.826  -3.003  -0.034  0.00  0.00    -0.290 OA
ATOM     11 CL   UNL     1       3.960  -0.751  -0.042  0.00  0.00    -0.082 Cl
ATOM     12 BR   UNL     1       3.991   2.444  -0.023  0.00  0.00    -0.049 Br
ATOM     13  H   UNL     1      -1.989  -0.679   0.017  0.00  0.00    +0.147 HD
ENDROOT
BRANCH   8  14
ATOM     14  C   UNL     1      -0.968  -3.003  -1.242  0.00  0.00    +0.108 C 
ATOM     15  N   UNL     1      -1.661  -4.074  -1.134  0.00  0.00    -0.290 NA
BRANCH  15  16
ATOM     16  C   UNL     1      -2.107  -4.783  -2.335  0.00  0.00    +0.105 C 
ATOM     17  C   UNL     1      -3.635  -4.848  -2.351  0.00  0.00    +0.027 C 
ATOM     18  C   UNL     1      -4.101  -5.588  -3.607  0.00  0.00    +0.002 C 
ATOM     19  C   UNL     1      -3.531  -7.008  -3.603  0.00  0.00    +0.000 C 
ATOM     20  C   UNL     1      -2.002  -6.943  -3.587  0.00  0.00    +0.002 C 
ATOM     21  C   UNL     1      -1.536  -6.203  -2.331  0.00  0.00    +0.027 C 
ENDBRANCH  15  16
ENDBRANCH   8  14
TORSDOF 2
