REMARK  Name = ZINC05201196
REMARK  3 active torsions:
REMARK  status: ('A' for Active; 'I' for Inactive)
REMARK    1  A    between atoms: C_1  and  C_2
REMARK    2  A    between atoms: C_6  and  N_8
REMARK    3  A    between atoms: C_12  and  C_13
REMARK                            x       y       z     vdW  Elec       q    Type
REMARK                         _______ _______ _______ _____ _____    ______ ____
ROOT
ATOM      1  N   UNL     1       5.113   3.639  -0.262  0.00  0.00    -0.224 N 
ATOM      2  C   UNL     1       4.129   3.191   0.500  0.00  0.00    +0.263 C 
ATOM      3  O   UNL     1       3.457   3.940   1.183  0.00  0.00    -0.269 OA
ATOM      4  C   UNL     1       3.892   1.734   0.483  0.00  0.00    +0.078 C 
ATOM      5  C   UNL     1       2.969   1.000   1.156  0.00  0.00    +0.028 C 
ATOM      6  S   UNL     1       5.148   1.202  -0.672  0.00  0.00    -0.061 S 
ATOM      7  C   UNL     1       5.852   2.805  -1.022  0.00  0.00    +0.125 C 
ATOM      8  S   UNL     1       7.150   3.191  -2.069  0.00  0.00    -0.027 S 
ENDROOT
BRANCH   5   9
ATOM      9  C   UNL     1       2.146   1.630   2.197  0.00  0.00    -0.020 A 
ATOM     10  C   UNL     1       0.783   1.324   2.296  0.00  0.00    +0.012 A 
ATOM     11  C   UNL     1       0.015   1.917   3.273  0.00  0.00    +0.050 A 
ATOM     12  C   UNL     1       0.587   2.818   4.162  0.00  0.00    +0.166 A 
ATOM     13  C   UNL     1       1.946   3.124   4.073  0.00  0.00    +0.167 A 
ATOM     14  C   UNL     1       2.722   2.538   3.093  0.00  0.00    +0.057 A 
ATOM     15  O   UNL     1       2.253   4.029   5.048  0.00  0.00    -0.453 OA
ATOM     16  C   UNL     1       0.993   4.576   5.478  0.00  0.00    +0.466 C 
ATOM     17  O   UNL     1       0.049   3.525   5.198  0.00  0.00    -0.453 OA
ENDBRANCH   5   9
BRANCH   1  23
ATOM     18  C   UNL     1       7.547   7.497   1.576  0.00  0.00    +0.044 C 
ATOM     19  C   UNL     1       6.565   6.909   0.596  0.00  0.00    -0.049 A 
ATOM     20  C   UNL     1       5.936   7.725  -0.327  0.00  0.00    +0.003 A 
ATOM     21  C   UNL     1       5.035   7.188  -1.228  0.00  0.00    +0.002 A 
ATOM     22  C   UNL     1       4.760   5.834  -1.209  0.00  0.00    +0.024 A 
ATOM     23  C   UNL     1       5.390   5.013  -0.284  0.00  0.00    +0.043 A 
ATOM     24  C   UNL     1       6.291   5.555   0.623  0.00  0.00    +0.027 A 
ENDBRANCH   1  23
TORSDOF 2
