REMARK  Name = ZINC40826430
REMARK  7 active torsions:
REMARK  status: ('A' for Active; 'I' for Inactive)
REMARK    1  A    between atoms: C_1  and  C_2
REMARK    2  A    between atoms: C_6  and  C_7
REMARK    3  A    between atoms: N_9  and  N_10
REMARK    4  A    between atoms: N_10  and  C_11
REMARK    5  A    between atoms: N_21  and  N_22
REMARK    6  A    between atoms: C_23  and  C_25
REMARK    7  A    between atoms: C_30  and  O_31
REMARK                            x       y       z     vdW  Elec       q    Type
REMARK                         _______ _______ _______ _____ _____    ______ ____
ROOT
ATOM      1  C   UNL     1      -0.018   1.503   0.010  0.00  0.00    +0.048 C 
ATOM      2  C   UNL     1       0.002  -0.004   0.002  0.00  0.00    +0.009 A 
ATOM      3  C   UNL     1       0.008  -0.838  -1.123  0.00  0.00    +0.042 A 
ATOM      4  C   UNL     1       0.026  -2.138  -0.673  0.00  0.00    +0.115 A 
ATOM      5  O   UNL     1       0.034  -2.112   0.658  0.00  0.00    -0.454 OA
ATOM      6  C   UNL     1       0.024  -0.830   1.091  0.00  0.00    +0.194 A 
ATOM      7  C   UNL     1       0.033  -3.327  -1.599  0.00  0.00    +0.075 C 
ATOM      8  C   UNL     1      -0.492  -2.903  -2.974  0.00  0.00    +0.014 C 
ATOM      9  C   UNL     1       0.280  -1.685  -3.494  0.00  0.00    +0.058 C 
ATOM     10  C   UNL     1       0.001  -0.512  -2.566  0.00  0.00    +0.070 C 
ATOM     11  N   UNL     1      -0.226   0.686  -3.008  0.00  0.00    -0.184 NA
ENDROOT
BRANCH   6  12
ATOM     12  C   UNL     1       0.032  -0.400   2.493  0.00  0.00    +0.296 C 
ATOM     13  O   UNL     1       0.018   0.786   2.766  0.00  0.00    -0.265 OA
ATOM     14  N   UNL     1       0.054  -1.317   3.480  0.00  0.00    -0.230 N 
ATOM     15  H   UNL     1       0.065  -2.263   3.263  0.00  0.00    +0.173 HD
BRANCH  14  16
ATOM     16  N   UNL     1       0.061  -0.906   4.819  0.00  0.00    -0.264 N 
ATOM     17  H   UNL     1       0.050   0.040   5.037  0.00  0.00    +0.170 HD
BRANCH  16  18
ATOM     18  C   UNL     1       0.084  -1.857   5.842  0.00  0.00    +0.044 A 
ATOM     19  C   UNL     1       0.106  -3.211   5.533  0.00  0.00    +0.024 A 
ATOM     20  C   UNL     1       0.129  -4.149   6.546  0.00  0.00    +0.002 A 
ATOM     21  C   UNL     1       0.131  -3.741   7.868  0.00  0.00    +0.000 A 
ATOM     22  C   UNL     1       0.109  -2.394   8.179  0.00  0.00    +0.002 A 
ATOM     23  C   UNL     1       0.091  -1.451   7.170  0.00  0.00    +0.024 A 
ENDBRANCH  16  18
ENDBRANCH  14  16
ENDBRANCH   6  12
BRANCH  11  24
ATOM     24  N   UNL     1      -0.221   0.938  -4.386  0.00  0.00    -0.203 N 
ATOM     25  C   UNL     1      -0.457   2.183  -4.845  0.00  0.00    +0.267 C 
ATOM     26  O   UNL     1      -0.675   3.088  -4.062  0.00  0.00    -0.268 OA
ATOM     27  H   UNL     1      -0.048   0.216  -5.010  0.00  0.00    +0.178 HD
BRANCH  25  28
ATOM     28  C   UNL     1      -0.452   2.448  -6.296  0.00  0.00    +0.080 A 
ATOM     29  C   UNL     1      -0.208   1.409  -7.199  0.00  0.00    +0.017 A 
ATOM     30  C   UNL     1      -0.205   1.663  -8.553  0.00  0.00    +0.001 A 
ATOM     31  C   UNL     1      -0.442   2.944  -9.024  0.00  0.00    +0.004 A 
ATOM     32  C   UNL     1      -0.684   3.979  -8.143  0.00  0.00    +0.046 A 
ATOM     33  C   UNL     1      -0.697   3.741  -6.777  0.00  0.00    +0.129 A 
BRANCH  33  34
ATOM     34  O   UNL     1      -0.940   4.756  -5.911  0.00  0.00    -0.506 OA
ATOM     35  H   UNL     1      -0.146   5.227  -5.624  0.00  0.00    +0.292 HD
ENDBRANCH  33  34
ENDBRANCH  25  28
ENDBRANCH  11  24
TORSDOF 6
