REMARK  Name = ZINC04590051
REMARK  4 active torsions:
REMARK  status: ('A' for Active; 'I' for Inactive)
REMARK    1  A    between atoms: C_3  and  C_10
REMARK    2  A    between atoms: C_5  and  N_7
REMARK    3  A    between atoms: C_11  and  C_12
REMARK    4  A    between atoms: C_15  and  C_16
REMARK                            x       y       z     vdW  Elec       q    Type
REMARK                         _______ _______ _______ _____ _____    ______ ____
ROOT
ATOM      1  C   UNL     1       1.154   3.465   0.990  0.00  0.00    +0.225 C 
ATOM      2  N   UNL     1       2.206   4.220   0.801  0.00  0.00    -0.206 NA
ATOM      3  C   UNL     1       1.837   5.528   0.885  0.00  0.00    +0.152 C 
ATOM      4  C   UNL     1       2.647   6.635   0.745  0.00  0.00    +0.043 C 
ATOM      5  C   UNL     1       0.385   5.511   1.156  0.00  0.00    +0.364 C 
ATOM      6  O   UNL     1      -0.349   6.469   1.305  0.00  0.00    -0.243 OA
ATOM      7  O   UNL     1       0.046   4.205   1.200  0.00  0.00    -0.403 OA
ENDROOT
BRANCH   4   8
ATOM      8  C   UNL     1       2.054   7.975   0.692  0.00  0.00    -0.022 A 
ATOM      9  C   UNL     1       2.693   9.053   1.319  0.00  0.00    +0.008 A 
ATOM     10  C   UNL     1       2.130  10.309   1.264  0.00  0.00    +0.002 A 
ATOM     11  C   UNL     1       0.936  10.509   0.592  0.00  0.00    +0.015 A 
ATOM     12  C   UNL     1       0.297   9.449  -0.031  0.00  0.00    +0.018 A 
ATOM     13  C   UNL     1       0.849   8.186   0.010  0.00  0.00    +0.023 A 
ATOM     14 BR   UNL     1      -1.333   9.737  -0.946  0.00  0.00    -0.050 Br
ENDBRANCH   4   8
BRANCH   1  16
ATOM     15  C   UNL     1       0.020   1.310   1.053  0.00  0.00    +0.013 C 
ATOM     16  C   UNL     1       1.175   2.003   0.970  0.00  0.00    +0.068 C 
BRANCH  15  19
ATOM     17  C   UNL     1      -2.668   3.568  -0.267  0.00  0.00    +0.003 A 
ATOM     18  C   UNL     1      -1.457   2.921  -0.135  0.00  0.00    +0.008 A 
ATOM     19  C   UNL     1      -1.268   2.006   0.906  0.00  0.00    -0.023 A 
ATOM     20  C   UNL     1      -2.311   1.752   1.803  0.00  0.00    +0.040 A 
ATOM     21  C   UNL     1      -3.513   2.412   1.661  0.00  0.00    +0.127 A 
ATOM     22  C   UNL     1      -3.693   3.316   0.628  0.00  0.00    +0.033 A 
BRANCH  21  23
ATOM     23  N   UNL     1      -4.616   2.150   2.612  0.00  0.00    +0.056 N 
ATOM     24  O   UNL     1      -5.680   2.729   2.486  0.00  0.00    -0.126 OA
ATOM     25  O   UNL     1      -4.460   1.354   3.521  0.00  0.00    -0.126 OA
ENDBRANCH  21  23
ENDBRANCH  15  19
ENDBRANCH   1  16
TORSDOF 4
