REMARK  Name = ZINC39534173
REMARK  11 active torsions:
REMARK  status: ('A' for Active; 'I' for Inactive)
REMARK    1  A    between atoms: C_1  and  C_2
REMARK    2  A    between atoms: C_2  and  O_3
REMARK    3  A    between atoms: O_3  and  C_4
REMARK    4  A    between atoms: N_7  and  C_11
REMARK    5  A    between atoms: C_11  and  C_13
REMARK    6  A    between atoms: C_11  and  C_24
REMARK    7  A    between atoms: C_13  and  N_14
REMARK    8  A    between atoms: N_14  and  S_15
REMARK    9  A    between atoms: S_15  and  C_18
REMARK   10  A    between atoms: C_27  and  C_30
REMARK   11  A    between atoms: C_35  and  O_36
REMARK                            x       y       z     vdW  Elec       q    Type
REMARK                         _______ _______ _______ _____ _____    ______ ____
ROOT
ATOM      1  C   UNL     1      -4.301  -4.250  -0.739  0.00  0.00    +0.102 C 
ENDROOT
BRANCH   1   4
ATOM      2  C   UNL     1      -1.218  -2.579   0.638  0.00  0.00    +0.200 C 
ATOM      3  C   UNL     1      -2.666  -2.704   0.158  0.00  0.00    +0.132 C 
ATOM      4  N   UNL     1      -2.942  -4.102  -0.201  0.00  0.00    -0.289 NA
ATOM      5  C   UNL     1      -2.731  -4.990   0.951  0.00  0.00    +0.100 C 
ATOM      6  C   UNL     1      -1.283  -4.865   1.431  0.00  0.00    +0.098 C 
ATOM      7  N   UNL     1      -1.008  -3.467   1.790  0.00  0.00    -0.289 NA
ATOM      8  H   UNL     1      -0.074  -3.365   2.159  0.00  0.00    +0.124 HD
BRANCH   2   9
ATOM      9  O   UNL     1      -0.959  -1.228   1.024  0.00  0.00    -0.361 OA
BRANCH   9  11
ATOM     10  C   UNL     1       0.587   0.545   1.579  0.00  0.00    +0.034 C 
ATOM     11  C   UNL     1       0.429  -0.919   1.166  0.00  0.00    +0.158 C 
ENDBRANCH   9  11
ENDBRANCH   2   9
ENDBRANCH   1   4
BRANCH   1  12
ATOM     12  C   UNL     1      -5.304  -3.881   0.324  0.00  0.00    -0.029 A 
ATOM     13  C   UNL     1      -6.025  -2.706   0.213  0.00  0.00    +0.006 A 
ATOM     14  C   UNL     1      -6.945  -2.364   1.184  0.00  0.00    +0.009 A 
ATOM     15  C   UNL     1      -7.146  -3.205   2.276  0.00  0.00    -0.014 A 
ATOM     16  C   UNL     1      -6.418  -4.388   2.382  0.00  0.00    +0.009 A 
ATOM     17  C   UNL     1      -5.504  -4.723   1.403  0.00  0.00    +0.006 A 
BRANCH  15  18
ATOM     18  C   UNL     1      -8.133  -2.842   3.323  0.00  0.00    +0.024 A 
ATOM     19  C   UNL     1      -8.113  -1.571   3.893  0.00  0.00    +0.012 A 
ATOM     20  C   UNL     1      -9.033  -1.239   4.867  0.00  0.00    +0.001 A 
ATOM     21  C   UNL     1      -9.977  -2.163   5.279  0.00  0.00    +0.004 A 
ATOM     22  C   UNL     1     -10.006  -3.426   4.719  0.00  0.00    +0.046 A 
ATOM     23  C   UNL     1      -9.092  -3.772   3.737  0.00  0.00    +0.125 A 
BRANCH  23  24
ATOM     24  O   UNL     1      -9.123  -5.011   3.182  0.00  0.00    -0.506 OA
ATOM     25  H   UNL     1      -8.579  -5.663   3.645  0.00  0.00    +0.292 HD
ENDBRANCH  23  24
ENDBRANCH  15  18
ENDBRANCH   1  12
BRANCH   1  26
ATOM     26  C   UNL     1      -4.524  -5.700  -1.170  0.00  0.00    +0.129 C 
BRANCH  26  27
ATOM     27  N   UNL     1      -3.476  -6.096  -2.114  0.00  0.00    -0.188 NA
ATOM     28  H   UNL     1      -2.922  -5.420  -2.535  0.00  0.00    +0.148 HD
BRANCH  27  29
ATOM     29  S   UNL     1      -3.237  -7.697  -2.464  0.00  0.00    +0.058 S 
ATOM     30  O   UNL     1      -2.185  -7.752  -3.418  0.00  0.00    -0.153 OA
ATOM     31  O   UNL     1      -3.174  -8.379  -1.219  0.00  0.00    -0.153 OA
BRANCH  29  32
ATOM     32  C   UNL     1      -4.688  -8.273  -3.281  0.00  0.00    +0.105 A 
ATOM     33  C   UNL     1      -5.735  -8.796  -2.544  0.00  0.00    +0.028 A 
ATOM     34  C   UNL     1      -6.873  -9.248  -3.185  0.00  0.00    +0.002 A 
ATOM     35  C   UNL     1      -6.965  -9.178  -4.562  0.00  0.00    +0.000 A 
ATOM     36  C   UNL     1      -5.919  -8.654  -5.299  0.00  0.00    +0.002 A 
ATOM     37  C   UNL     1      -4.782  -8.198  -4.658  0.00  0.00    +0.028 A 
ENDBRANCH  29  32
ENDBRANCH  27  29
ENDBRANCH  26  27
ENDBRANCH   1  26
TORSDOF 10
