REMARK  Name = ZINC20233122
REMARK  9 active torsions:
REMARK  status: ('A' for Active; 'I' for Inactive)
REMARK    1  A    between atoms: C_1  and  C_2
REMARK    2  A    between atoms: C_6  and  N_8
REMARK    3  A    between atoms: C_13  and  C_15
REMARK    4  A    between atoms: C_16  and  C_18
REMARK    5  A    between atoms: C_18  and  C_19
REMARK    6  A    between atoms: C_19  and  N_20
REMARK    7  A    between atoms: N_20  and  S_21
REMARK    8  A    between atoms: S_21  and  C_24
REMARK    9  A    between atoms: C_33  and  C_35
REMARK                            x       y       z     vdW  Elec       q    Type
REMARK                         _______ _______ _______ _____ _____    ______ ____
ROOT
ATOM      1  C   UNL     1      -6.301  -2.586  -3.330  0.00  0.00    +0.115 C 
ENDROOT
BRANCH   1   2
ATOM      2  N   UNL     1      -6.376  -3.558  -4.424  0.00  0.00    -0.189 NA
ATOM      3  H   UNL     1      -5.455  -3.909  -4.912  0.00  0.00    +0.148 HD
BRANCH   2   4
ATOM      4  S   UNL     1      -7.843  -3.939  -5.092  0.00  0.00    +0.058 S 
ATOM      5  O   UNL     1      -7.584  -4.874  -6.131  0.00  0.00    -0.153 OA
ATOM      6  O   UNL     1      -8.720  -4.225  -4.012  0.00  0.00    -0.153 OA
BRANCH   4   7
ATOM      7  C   UNL     1      -8.457  -2.482  -5.868  0.00  0.00    +0.106 A 
ATOM      8  C   UNL     1      -8.153  -2.220  -7.192  0.00  0.00    +0.030 A 
ATOM      9  C   UNL     1      -8.632  -1.081  -7.802  0.00  0.00    +0.026 A 
ATOM     10  C   UNL     1      -9.428  -0.182  -7.088  0.00  0.00    +0.040 A 
ATOM     11  C   UNL     1      -9.726  -0.453  -5.763  0.00  0.00    -0.023 A 
ATOM     12  C   UNL     1      -9.248  -1.599  -5.157  0.00  0.00    +0.034 A 
ATOM     13  C   UNL     1     -10.592   0.665  -5.226  0.00  0.00    +0.056 C 
ATOM     14  C   UNL     1     -10.762   1.627  -6.413  0.00  0.00    +0.118 C 
ATOM     15  N   UNL     1     -10.008   1.018  -7.512  0.00  0.00    -0.271 N 
ATOM     16  C   UNL     1      -9.891   1.538  -8.750  0.00  0.00    +0.217 C 
ATOM     17  O   UNL     1      -9.243   0.955  -9.594  0.00  0.00    -0.276 OA
ATOM     18  C   UNL     1     -10.566   2.842  -9.087  0.00  0.00    +0.109 C 
ENDBRANCH   4   7
ENDBRANCH   2   4
ENDBRANCH   1   2
BRANCH   1  19
ATOM     19  C   UNL     1      -4.933  -2.686  -2.652  0.00  0.00    +0.113 C 
BRANCH  19  27
ATOM     20  N   UNL     1      -1.210  -0.739   0.026  0.00  0.00    -0.324 N 
ATOM     21  C   UNL     1      -1.329  -1.580  -1.173  0.00  0.00    +0.124 C 
ATOM     22  C   UNL     1      -2.577  -2.460  -1.053  0.00  0.00    +0.126 C 
ATOM     23  N   UNL     1      -3.735  -1.595  -0.783  0.00  0.00    -0.298 N 
ATOM     24  C   UNL     1      -3.638  -0.627   0.320  0.00  0.00    +0.130 C 
ATOM     25  C   UNL     1      -2.348   0.182   0.146  0.00  0.00    +0.088 C 
ATOM     26  C   UNL     1      -2.146   1.088   1.362  0.00  0.00    +0.029 C 
ATOM     27  C   UNL     1      -4.855  -1.687  -1.527  0.00  0.00    +0.217 C 
ATOM     28  O   UNL     1      -5.801  -0.966  -1.290  0.00  0.00    -0.276 OA
BRANCH  20  34
ATOM     29  C   UNL     1       1.815   2.497  -2.104  0.00  0.00    +0.044 C 
ATOM     30  C   UNL     1       1.494   1.534  -0.990  0.00  0.00    -0.049 A 
ATOM     31  C   UNL     1       2.398   1.340   0.037  0.00  0.00    +0.003 A 
ATOM     32  C   UNL     1       2.107   0.458   1.062  0.00  0.00    +0.002 A 
ATOM     33  C   UNL     1       0.911  -0.234   1.061  0.00  0.00    +0.023 A 
ATOM     34  C   UNL     1       0.000  -0.041   0.030  0.00  0.00    +0.030 A 
ATOM     35  C   UNL     1       0.296   0.846  -0.997  0.00  0.00    +0.026 A 
ENDBRANCH  20  34
ENDBRANCH  19  27
ENDBRANCH   1  19
TORSDOF 6
