REMARK  Name = ZINC00530709
REMARK  3 active torsions:
REMARK  status: ('A' for Active; 'I' for Inactive)
REMARK    1  A    between atoms: C_9  and  O_26
REMARK    2  A    between atoms: C_10  and  C_11
REMARK    3  A    between atoms: N_12  and  N_13
REMARK                            x       y       z     vdW  Elec       q    Type
REMARK                         _______ _______ _______ _____ _____    ______ ____
ROOT
ATOM      1  C   UNL     1       4.994   0.066  -0.018  0.00  0.00    +0.145 C 
ATOM      2  N   UNL     1       6.112  -0.585  -0.148  0.00  0.00    -0.167 NA
ENDROOT
BRANCH   2   3
ATOM      3  N   UNL     1       6.096  -1.967  -0.377  0.00  0.00    -0.144 N 
ATOM      4  C   UNL     1       5.594  -2.789   0.569  0.00  0.00    +0.285 A 
ATOM      5  O   UNL     1       5.157  -2.345   1.614  0.00  0.00    -0.265 OA
ATOM      6  C   UNL     1       5.589  -4.238   0.303  0.00  0.00    +0.065 A 
ATOM      7  C   UNL     1       5.088  -5.151   1.229  0.00  0.00    +0.015 A 
ATOM      8  C   UNL     1       5.105  -6.498   0.932  0.00  0.00    +0.001 A 
ATOM      9  C   UNL     1       5.616  -6.944  -0.278  0.00  0.00    +0.002 A 
ATOM     10  C   UNL     1       6.116  -6.049  -1.203  0.00  0.00    +0.026 A 
ATOM     11  C   UNL     1       6.107  -4.692  -0.923  0.00  0.00    +0.056 A 
ATOM     12  N   UNL     1       6.599  -3.760  -1.825  0.00  0.00    -0.306 N 
ATOM     13  H   UNL     1       6.959  -4.058  -2.675  0.00  0.00    +0.170 HD
ATOM     14  C   UNL     1       6.576  -2.447  -1.535  0.00  0.00    +0.351 A 
ATOM     15  O   UNL     1       7.012  -1.663  -2.355  0.00  0.00    -0.245 OA
ENDBRANCH   2   3
BRANCH   1  25
ATOM     16  C   UNL     1       0.703  -0.731   2.728  0.00  0.00    +0.001 A 
ATOM     17  C   UNL     1       1.903  -0.070   2.978  0.00  0.00    +0.001 A 
ATOM     18  C   UNL     1       2.886  -0.023   2.035  0.00  0.00    +0.009 A 
ATOM     19  C   UNL     1       2.688  -0.646   0.797  0.00  0.00    -0.006 A 
ATOM     20  C   UNL     1       1.469  -1.319   0.539  0.00  0.00    -0.017 A 
ATOM     21  C   UNL     1       0.477  -1.348   1.535  0.00  0.00    +0.008 A 
ATOM     22  C   UNL     1       1.272  -1.946  -0.704  0.00  0.00    +0.012 A 
ATOM     23  C   UNL     1       2.238  -1.913  -1.660  0.00  0.00    +0.046 A 
ATOM     24  C   UNL     1       3.454  -1.264  -1.453  0.00  0.00    +0.126 A 
ATOM     25  C   UNL     1       3.715  -0.621  -0.243  0.00  0.00    +0.044 A 
BRANCH  24  26
ATOM     26  O   UNL     1       4.391  -1.258  -2.436  0.00  0.00    -0.506 OA
ATOM     27  H   UNL     1       4.267  -0.559  -3.093  0.00  0.00    +0.292 HD
ENDBRANCH  24  26
ENDBRANCH   1  25
TORSDOF 3
