REMARK  Name = ZINC36344019
REMARK  8 active torsions:
REMARK  status: ('A' for Active; 'I' for Inactive)
REMARK    1  A    between atoms: C_1  and  C_2
REMARK    2  A    between atoms: C_2  and  O_3
REMARK    3  A    between atoms: O_3  and  C_4
REMARK    4  A    between atoms: C_7  and  C_10
REMARK    5  A    between atoms: C_13  and  C_27
REMARK    6  A    between atoms: C_16  and  C_18
REMARK    7  A    between atoms: C_18  and  N_19
REMARK    8  A    between atoms: C_24  and  C_26
REMARK                            x       y       z     vdW  Elec       q    Type
REMARK                         _______ _______ _______ _____ _____    ______ ____
ROOT
ATOM      1  C   UNL     1       1.144  -6.059   1.764  0.00  0.00    +0.137 C 
ATOM      2  C   UNL     1       2.557  -6.535   1.372  0.00  0.00    +0.087 C 
ATOM      3  C   UNL     1       3.103  -7.144   2.643  0.00  0.00    +0.070 C 
ATOM      4  N   UNL     1       2.220  -7.053   3.577  0.00  0.00    -0.181 NA
ATOM      5  N   UNL     1       1.031  -6.437   3.182  0.00  0.00    -0.184 N 
ATOM      6  C   UNL     1      -0.043  -6.222   3.967  0.00  0.00    +0.249 C 
ATOM      7  O   UNL     1      -1.026  -5.674   3.514  0.00  0.00    -0.272 OA
ENDROOT
BRANCH   3   8
ATOM      8  C   UNL     1       4.439  -7.750   2.791  0.00  0.00    +0.016 A 
ATOM      9  C   UNL     1       5.317  -7.788   1.705  0.00  0.00    +0.011 A 
ATOM     10  C   UNL     1       6.565  -8.356   1.851  0.00  0.00    +0.001 A 
ATOM     11  C   UNL     1       6.949  -8.889   3.069  0.00  0.00    +0.001 A 
ATOM     12  C   UNL     1       6.086  -8.856   4.149  0.00  0.00    +0.020 A 
ATOM     13  C   UNL     1       4.836  -8.284   4.021  0.00  0.00    +0.050 A 
ATOM     14 CL   UNL     1       3.756  -8.236   5.380  0.00  0.00    -0.083 Cl
ENDBRANCH   3   8
BRANCH   1  18
ATOM     15  C   UNL     1       0.802  -1.824   1.306  0.00  0.00    +0.121 A 
ATOM     16  C   UNL     1       0.260  -2.673   0.351  0.00  0.00    +0.046 A 
ATOM     17  C   UNL     1       0.372  -4.041   0.502  0.00  0.00    +0.009 A 
ATOM     18  C   UNL     1       1.024  -4.566   1.603  0.00  0.00    -0.024 A 
ATOM     19  C   UNL     1       1.565  -3.722   2.555  0.00  0.00    +0.009 A 
ATOM     20  C   UNL     1       1.460  -2.353   2.406  0.00  0.00    +0.046 A 
BRANCH  15  21
ATOM     21  O   UNL     1       0.693  -0.477   1.160  0.00  0.00    -0.492 OA
BRANCH  21  23
ATOM     22  C   UNL     1      -0.019   1.526   0.010  0.00  0.00    +0.048 C 
ATOM     23  C   UNL     1       0.002  -0.004   0.002  0.00  0.00    +0.225 C 
ENDBRANCH  21  23
ENDBRANCH  15  21
ENDBRANCH   1  18
BRANCH   6  24
ATOM     24  C   UNL     1      -0.024  -6.663   5.408  0.00  0.00    +0.182 C 
BRANCH  24  25
ATOM     25  N   UNL     1      -1.303  -6.318   6.043  0.00  0.00    -0.295 NA
ATOM     26  C   UNL     1      -2.407  -7.093   5.460  0.00  0.00    +0.066 C 
ATOM     27  C   UNL     1      -3.726  -6.662   6.106  0.00  0.00    -0.067 C 
ATOM     28  N   UNL     1      -3.658  -6.887   7.556  0.00  0.00    +0.381 N 
ATOM     29  C   UNL     1      -2.567  -6.087   8.127  0.00  0.00    -0.064 C 
ATOM     30  C   UNL     1      -1.238  -6.514   7.498  0.00  0.00    +0.037 C 
ATOM     31  C   UNL     1      -0.104  -5.667   8.078  0.00  0.00    +0.022 C 
ATOM     32  H   UNL     1      -4.532  -6.614   7.979  0.00  0.00    -0.086 HD
ATOM     33  H   UNL     1      -3.488  -7.865   7.736  0.00  0.00    -0.086 HD
ENDBRANCH  24  25
ENDBRANCH   6  24
TORSDOF 6
