REMARK  Name = ZINC41653352
REMARK  4 active torsions:
REMARK  status: ('A' for Active; 'I' for Inactive)
REMARK    1  A    between atoms: C_5  and  C_7
REMARK    2  A    between atoms: N_19  and  C_22
REMARK    3  A    between atoms: C_22  and  C_23
REMARK    4  A    between atoms: C_23  and  C_24
REMARK                            x       y       z     vdW  Elec       q    Type
REMARK                         _______ _______ _______ _____ _____    ______ ____
ROOT
ATOM      1  C   UNL     1       1.255  -2.153  -0.022  0.00  0.00    +0.059 C 
ATOM      2  C   UNL     1       0.099  -2.855   0.088  0.00  0.00    +0.176 C 
ATOM      3  C   UNL     1      -0.022  -4.317   0.203  0.00  0.00    +0.231 C 
ATOM      4  O   UNL     1       0.875  -5.141   0.221  0.00  0.00    -0.283 OA
ATOM      5  C   UNL     1      -1.473  -4.560   0.294  0.00  0.00    +0.068 A 
ATOM      6  C   UNL     1      -2.242  -5.718   0.419  0.00  0.00    +0.019 A 
ATOM      7  C   UNL     1      -3.603  -5.627   0.479  0.00  0.00    +0.047 A 
ATOM      8  C   UNL     1      -4.229  -4.382   0.417  0.00  0.00    +0.130 A 
ATOM      9  C   UNL     1      -3.478  -3.226   0.295  0.00  0.00    +0.051 A 
ATOM     10  C   UNL     1      -2.091  -3.301   0.231  0.00  0.00    +0.147 A 
ATOM     11  O   UNL     1      -1.151  -2.337   0.116  0.00  0.00    -0.451 OA
ATOM     12  C   UNL     1      -4.143  -1.875   0.234  0.00  0.00    +0.130 C 
ATOM     13  N   UNL     1      -5.566  -2.040  -0.094  0.00  0.00    -0.266 NA
ATOM     14  C   UNL     1      -6.173  -3.058   0.779  0.00  0.00    +0.318 C 
ATOM     15  O   UNL     1      -5.586  -4.326   0.476  0.00  0.00    -0.476 OA
ENDROOT
BRANCH   1  20
ATOM     16  C   UNL     1       0.015   1.384  -0.103  0.00  0.00    +0.001 A 
ATOM     17  C   UNL     1       1.185   2.084   0.139  0.00  0.00    +0.001 A 
ATOM     18  C   UNL     1       2.378   1.409   0.329  0.00  0.00    +0.020 A 
ATOM     19  C   UNL     1       2.410   0.030   0.278  0.00  0.00    +0.048 A 
ATOM     20  C   UNL     1       1.231  -0.685   0.034  0.00  0.00    -0.003 A 
ATOM     21  C   UNL     1       0.029   0.007  -0.157  0.00  0.00    +0.009 A 
ATOM     22 CL   UNL     1       3.908  -0.815   0.516  0.00  0.00    -0.083 Cl
ENDBRANCH   1  20
BRANCH  13  23
ATOM     23  C   UNL     1      -6.283  -0.762   0.012  0.00  0.00    +0.093 C 
BRANCH  23  24
ATOM     24  C   UNL     1      -7.689  -0.915  -0.572  0.00  0.00    +0.058 C 
BRANCH  24  25
ATOM     25  C   UNL     1      -8.424   0.396  -0.463  0.00  0.00    -0.009 A 
ATOM     26  C   UNL     1      -8.482   1.417  -1.352  0.00  0.00    +0.011 A 
ATOM     27  C   UNL     1      -9.228   2.538  -1.037  0.00  0.00    +0.008 A 
ATOM     28  C   UNL     1      -9.880   2.582   0.151  0.00  0.00    +0.045 A 
ATOM     29  S   UNL     1      -9.450   1.003   0.866  0.00  0.00    -0.102 S 
ENDBRANCH  24  25
ENDBRANCH  23  24
ENDBRANCH  13  23
TORSDOF 4
