REMARK  Name = ZINC40056360
REMARK  7 active torsions:
REMARK  status: ('A' for Active; 'I' for Inactive)
REMARK    1  A    between atoms: C_1  and  C_2
REMARK    2  A    between atoms: C_17  and  C_19
REMARK    3  A    between atoms: C_23  and  O_25
REMARK    4  A    between atoms: C_29  and  C_31
REMARK    5  A    between atoms: C_31  and  C_32
REMARK    6  A    between atoms: C_32  and  C_33
REMARK    7  A    between atoms: C_32  and  C_34
REMARK                            x       y       z     vdW  Elec       q    Type
REMARK                         _______ _______ _______ _____ _____    ______ ____
ROOT
ATOM      1  C   UNL     1      -0.018   1.503   0.010  0.00  0.00    +0.045 C 
ATOM      2  C   UNL     1       0.002  -0.004   0.002  0.00  0.00    -0.029 A 
ATOM      3  C   UNL     1       0.005  -0.677  -1.199  0.00  0.00    +0.051 A 
ATOM      4  C   UNL     1       0.026  -2.071  -1.222  0.00  0.00    +0.140 A 
ATOM      5  C   UNL     1       0.047  -2.767  -0.001  0.00  0.00    +0.066 A 
ATOM      6  C   UNL     1       0.039  -2.075   1.209  0.00  0.00    +0.035 A 
ATOM      7  C   UNL     1       0.023  -0.696   1.206  0.00  0.00    +0.045 A 
ATOM      8 CL   UNL     1       0.022   0.175   2.707  0.00  0.00    -0.083 Cl
ATOM      9  C   UNL     1       0.084  -4.251  -0.018  0.00  0.00    +0.199 A 
ATOM     10  O   UNL     1      -0.064  -4.933   0.980  0.00  0.00    -0.287 OA
ATOM     11  C   UNL     1       0.317  -4.817  -1.351  0.00  0.00    +0.072 A 
ATOM     12  C   UNL     1       0.278  -4.030  -2.467  0.00  0.00    +0.199 A 
ATOM     13  O   UNL     1       0.022  -2.708  -2.416  0.00  0.00    -0.450 OA
ATOM     14  C   UNL     1       0.556  -4.877  -3.639  0.00  0.00    +0.289 C 
ATOM     15  O   UNL     1       0.600  -4.482  -4.788  0.00  0.00    -0.266 OA
ATOM     16  N   UNL     1       0.755  -6.153  -3.253  0.00  0.00    -0.230 N 
ATOM     17  C   UNL     1       0.618  -6.213  -1.788  0.00  0.00    +0.152 C 
ATOM     18  C   UNL     1       1.039  -7.224  -4.090  0.00  0.00    +0.191 A 
ATOM     19  N   UNL     1       1.241  -8.503  -3.801  0.00  0.00    -0.125 NA
ATOM     20  N   UNL     1       1.491  -9.355  -4.696  0.00  0.00    -0.145 NA
ATOM     21  C   UNL     1       1.568  -9.032  -5.972  0.00  0.00    +0.104 A 
ATOM     22  S   UNL     1       1.229  -7.277  -5.870  0.00  0.00    -0.035 S 
ENDROOT
BRANCH  17  23
ATOM     23  C   UNL     1      -0.515  -7.132  -1.409  0.00  0.00    -0.019 A 
ATOM     24  C   UNL     1      -1.654  -7.184  -2.191  0.00  0.00    +0.006 A 
ATOM     25  C   UNL     1      -2.694  -8.027  -1.846  0.00  0.00    +0.004 A 
ATOM     26  C   UNL     1      -2.599  -8.818  -0.718  0.00  0.00    +0.045 A 
ATOM     27  C   UNL     1      -1.457  -8.768   0.068  0.00  0.00    +0.117 A 
ATOM     28  C   UNL     1      -0.412  -7.926  -0.283  0.00  0.00    +0.051 A 
BRANCH  27  29
ATOM     29  O   UNL     1      -1.361  -9.546   1.179  0.00  0.00    -0.507 OA
ATOM     30  H   UNL     1      -0.971 -10.416   1.017  0.00  0.00    +0.292 HD
ENDBRANCH  27  29
ENDBRANCH  17  23
BRANCH  21  31
ATOM     31  C   UNL     1       1.853  -9.895  -7.174  0.00  0.00    +0.068 C 
BRANCH  31  32
ATOM     32  C   UNL     1       0.538 -10.444  -7.731  0.00  0.00    -0.011 C 
ATOM     33  C   UNL     1      -0.316  -9.288  -8.256  0.00  0.00    +0.007 C 
ATOM     34  C   UNL     1       0.835 -11.418  -8.873  0.00  0.00    +0.007 C 
ENDBRANCH  31  32
ENDBRANCH  21  31
TORSDOF 4
