REMARK  Name = ZINC20703347
REMARK  8 active torsions:
REMARK  status: ('A' for Active; 'I' for Inactive)
REMARK    1  A    between atoms: C_4  and  C_7
REMARK    2  A    between atoms: C_7  and  N_8
REMARK    3  A    between atoms: N_8  and  S_9
REMARK    4  A    between atoms: S_9  and  C_12
REMARK    5  A    between atoms: C_25  and  C_28
REMARK    6  A    between atoms: C_31  and  O_34
REMARK    7  A    between atoms: O_34  and  C_35
REMARK    8  A    between atoms: C_35  and  C_36
REMARK                            x       y       z     vdW  Elec       q    Type
REMARK                         _______ _______ _______ _____ _____    ______ ____
ROOT
ATOM      1  C   UNL     1      -5.082   5.299   0.234  0.00  0.00    +0.106 A 
ATOM      2  C   UNL     1      -5.053   4.811   1.528  0.00  0.00    +0.030 A 
ATOM      3  C   UNL     1      -4.506   3.568   1.779  0.00  0.00    +0.025 A 
ATOM      4  C   UNL     1      -3.986   2.814   0.734  0.00  0.00    +0.031 A 
ATOM      5  C   UNL     1      -4.014   3.299  -0.565  0.00  0.00    -0.018 A 
ATOM      6  C   UNL     1      -4.567   4.550  -0.804  0.00  0.00    +0.034 A 
ATOM      7  C   UNL     1      -3.471   2.522  -1.722  0.00  0.00    +0.049 C 
ATOM      8  C   UNL     1      -2.148   3.082  -2.188  0.00  0.00    -0.023 C 
ATOM      9  C   UNL     1      -1.354   2.111  -2.570  0.00  0.00    -0.030 C 
ATOM     10  C   UNL     1      -2.043   0.769  -2.416  0.00  0.00    +0.033 C 
ATOM     11  C   UNL     1      -3.159   1.055  -1.368  0.00  0.00    +0.029 C 
ATOM     12  C   UNL     1      -2.513   0.977   0.019  0.00  0.00    +0.105 C 
ATOM     13  N   UNL     1      -3.432   1.558   1.004  0.00  0.00    -0.336 N 
ATOM     14  H   UNL     1      -3.669   1.008   1.926  0.00  0.00    +0.147 HD
ENDROOT
BRANCH  12  15
ATOM     15  C   UNL     1      -1.220   1.750   0.017  0.00  0.00    -0.027 A 
ATOM     16  C   UNL     1      -0.035   1.112  -0.300  0.00  0.00    +0.009 A 
ATOM     17  C   UNL     1       1.152   1.820  -0.308  0.00  0.00    +0.046 A 
ATOM     18  C   UNL     1       1.154   3.171   0.008  0.00  0.00    +0.121 A 
ATOM     19  C   UNL     1      -0.035   3.807   0.332  0.00  0.00    +0.046 A 
ATOM     20  C   UNL     1      -1.219   3.095   0.338  0.00  0.00    +0.009 A 
BRANCH  18  21
ATOM     21  O   UNL     1       2.320   3.869   0.001  0.00  0.00    -0.487 OA
BRANCH  21  22
ATOM     22  C   UNL     1       2.247   5.257   0.336  0.00  0.00    +0.264 C 
BRANCH  22  23
ATOM     23  C   UNL     1       3.626   5.861   0.275  0.00  0.00    -0.010 A 
ATOM     24  C   UNL     1       4.426   5.873   1.403  0.00  0.00    +0.007 A 
ATOM     25  C   UNL     1       5.693   6.424   1.346  0.00  0.00    +0.000 A 
ATOM     26  C   UNL     1       6.156   6.971   0.164  0.00  0.00    +0.000 A 
ATOM     27  C   UNL     1       5.354   6.963  -0.963  0.00  0.00    +0.000 A 
ATOM     28  C   UNL     1       4.089   6.409  -0.907  0.00  0.00    +0.007 A 
ENDBRANCH  22  23
ENDBRANCH  21  22
ENDBRANCH  18  21
ENDBRANCH  12  15
BRANCH   1  29
ATOM     29  S   UNL     1      -5.779   6.885  -0.089  0.00  0.00    +0.059 S 
ATOM     30  O   UNL     1      -5.698   7.619   1.125  0.00  0.00    -0.153 OA
ATOM     31  O   UNL     1      -5.193   7.346  -1.299  0.00  0.00    -0.153 OA
BRANCH  29  32
ATOM     32  N   UNL     1      -7.389   6.657  -0.400  0.00  0.00    -0.186 NA
ATOM     33  H   UNL     1      -7.752   6.728  -1.435  0.00  0.00    +0.148 HD
BRANCH  32  34
ATOM     34  C   UNL     1      -8.274   6.155   0.654  0.00  0.00    +0.141 C 
BRANCH  34  38
ATOM     35  C   UNL     1     -12.343   6.798  -0.476  0.00  0.00    +0.000 A 
ATOM     36  C   UNL     1     -11.707   5.622  -0.824  0.00  0.00    +0.000 A 
ATOM     37  C   UNL     1     -10.390   5.413  -0.458  0.00  0.00    +0.005 A 
ATOM     38  C   UNL     1      -9.710   6.382   0.255  0.00  0.00    -0.032 A 
ATOM     39  C   UNL     1     -10.347   7.557   0.608  0.00  0.00    +0.005 A 
ATOM     40  C   UNL     1     -11.663   7.767   0.238  0.00  0.00    +0.000 A 
ENDBRANCH  34  38
ENDBRANCH  32  34
ENDBRANCH  29  32
ENDBRANCH   1  29
TORSDOF 8
