REMARK  Name = ZINC13010009
REMARK  7 active torsions:
REMARK  status: ('A' for Active; 'I' for Inactive)
REMARK    1  A    between atoms: C_1  and  C_2
REMARK    2  A    between atoms: C_5  and  S_9
REMARK    3  A    between atoms: C_6  and  C_8
REMARK    4  A    between atoms: S_9  and  N_12
REMARK    5  A    between atoms: N_12  and  C_13
REMARK    6  A    between atoms: C_16  and  N_19
REMARK    7  A    between atoms: C_29  and  C_31
REMARK                            x       y       z     vdW  Elec       q    Type
REMARK                         _______ _______ _______ _____ _____    ______ ____
ROOT
ATOM      1  C   UNL     1      -1.672   3.699  -2.153  0.00  0.00    +0.048 A 
ATOM      2  C   UNL     1      -2.203   4.262  -1.000  0.00  0.00    +0.026 A 
ATOM      3  C   UNL     1      -2.331   5.633  -0.897  0.00  0.00    +0.025 A 
ATOM      4  C   UNL     1      -1.940   6.448  -1.952  0.00  0.00    +0.033 A 
ATOM      5  C   UNL     1      -1.415   5.884  -3.107  0.00  0.00    +0.025 A 
ATOM      6  C   UNL     1      -1.281   4.513  -3.208  0.00  0.00    +0.026 A 
ENDROOT
BRANCH   4   7
ATOM      7  N   UNL     1      -2.075   7.838  -1.849  0.00  0.00    -0.298 N 
ATOM      8  C   UNL     1      -1.084   8.672  -2.360  0.00  0.00    +0.146 A 
ATOM      9  C   UNL     1       0.121   8.133  -2.812  0.00  0.00    +0.049 A 
ATOM     10  C   UNL     1       1.073   9.003  -3.314  0.00  0.00    +0.053 A 
ATOM     11  C   UNL     1       0.773  10.365  -3.329  0.00  0.00    +0.176 A 
ATOM     12  N   UNL     1      -0.395  10.787  -2.874  0.00  0.00    -0.128 NA
ATOM     13  N   UNL     1      -1.281   9.981  -2.412  0.00  0.00    -0.132 NA
ATOM     14  N   UNL     1       1.706  11.284  -3.822  0.00  0.00    -0.220 N 
ATOM     15  C   UNL     1       1.544  12.630  -3.893  0.00  0.00    +0.116 A 
ATOM     16  C   UNL     1       2.672  13.151  -4.428  0.00  0.00    +0.044 A 
ATOM     17  C   UNL     1       3.551  12.096  -4.693  0.00  0.00    +0.060 A 
ATOM     18  N   UNL     1       2.978  10.979  -4.326  0.00  0.00    -0.170 NA
ATOM     19  C   UNL     1       4.928  12.224  -5.294  0.00  0.00    +0.067 C 
ATOM     20  H   UNL     1      -2.858   8.219  -1.423  0.00  0.00    +0.154 HD
ENDBRANCH   4   7
BRANCH   1  21
ATOM     21  N   UNL     1      -1.538   2.309  -2.255  0.00  0.00    -0.216 N 
ATOM     22  H   UNL     1      -1.830   1.851  -3.058  0.00  0.00    +0.174 HD
BRANCH  21  23
ATOM     23  S   UNL     1      -0.878   1.447  -1.004  0.00  0.00    +0.073 S 
ATOM     24  O   UNL     1      -1.586   1.827   0.168  0.00  0.00    -0.150 OA
ATOM     25  O   UNL     1      -0.796   0.097  -1.440  0.00  0.00    -0.150 OA
BRANCH  23  30
ATOM     26  C   UNL     1       4.794   3.380  -0.298  0.00  0.00    +0.044 C 
ATOM     27  C   UNL     1       3.377   2.897  -0.475  0.00  0.00    -0.050 A 
ATOM     28  C   UNL     1       2.461   3.053   0.549  0.00  0.00    +0.005 A 
ATOM     29  C   UNL     1       1.162   2.610   0.388  0.00  0.00    +0.029 A 
ATOM     30  C   UNL     1       0.778   2.012  -0.798  0.00  0.00    +0.111 A 
ATOM     31  C   UNL     1       1.695   1.852  -1.820  0.00  0.00    -0.024 A 
ATOM     32  C   UNL     1       2.993   2.299  -1.660  0.00  0.00    +0.008 A 
ATOM     33  C   UNL     1       1.278   1.194  -3.110  0.00  0.00    +0.046 C 
ENDBRANCH  23  30
ENDBRANCH  21  23
ENDBRANCH   1  21
TORSDOF 4
