REMARK  Name = ZINC36587432
REMARK  19 active torsions:
REMARK  status: ('A' for Active; 'I' for Inactive)
REMARK    1  A    between atoms: C_1  and  C_2
REMARK    2  A    between atoms: C_2  and  C_3
REMARK    3  A    between atoms: C_3  and  C_4
REMARK    4  A    between atoms: C_5  and  C_6
REMARK    5  A    between atoms: C_6  and  C_8
REMARK    6  A    between atoms: C_6  and  N_22
REMARK    7  A    between atoms: N_10  and  C_11
REMARK    8  A    between atoms: C_11  and  S_12
REMARK    9  A    between atoms: S_12  and  C_15
REMARK   10  A    between atoms: C_18  and  C_21
REMARK   11  A    between atoms: N_22  and  C_35
REMARK   12  A    between atoms: C_23  and  C_25
REMARK   13  A    between atoms: C_25  and  C_26
REMARK   14  A    between atoms: C_26  and  C_27
REMARK   15  A    between atoms: C_30  and  O_33
REMARK   16  A    between atoms: O_33  and  C_34
REMARK   17  A    between atoms: C_35  and  C_36
REMARK   18  A    between atoms: C_35  and  C_37
REMARK   19  A    between atoms: C_35  and  C_38
REMARK                            x       y       z     vdW  Elec       q    Type
REMARK                         _______ _______ _______ _____ _____    ______ ____
ROOT
ATOM      1  C   UNL     1      -2.388  -4.092   0.925  0.00  0.00    +0.185 C 
ENDROOT
BRANCH   1   2
ATOM      2  C   UNL     1      -2.431  -4.010   2.429  0.00  0.00    +0.239 C 
ATOM      3  O   UNL     1      -1.423  -4.202   3.076  0.00  0.00    -0.273 OA
ATOM      4  N   UNL     1      -3.590  -3.725   3.055  0.00  0.00    -0.294 N 
ATOM      5  H   UNL     1      -4.396  -3.571   2.538  0.00  0.00    +0.150 HD
BRANCH   4   6
ATOM      6  C   UNL     1      -3.631  -3.645   4.518  0.00  0.00    +0.278 C 
BRANCH   6   7
ATOM      7  S   UNL     1      -3.428  -1.919   5.036  0.00  0.00    +0.013 S 
ATOM      8  O   UNL     1      -3.529  -1.817   6.449  0.00  0.00    -0.168 OA
ATOM      9  O   UNL     1      -2.338  -1.325   4.343  0.00  0.00    -0.168 OA
BRANCH   7  10
ATOM     10  C   UNL     1      -4.856  -1.090   4.421  0.00  0.00    +0.090 A 
ATOM     11  C   UNL     1      -4.840  -0.531   3.157  0.00  0.00    +0.027 A 
ATOM     12  C   UNL     1      -5.961   0.119   2.675  0.00  0.00    +0.005 A 
ATOM     13  C   UNL     1      -7.097   0.210   3.457  0.00  0.00    -0.050 A 
ATOM     14  C   UNL     1      -7.113  -0.349   4.721  0.00  0.00    +0.005 A 
ATOM     15  C   UNL     1      -5.994  -1.003   5.201  0.00  0.00    +0.027 A 
ATOM     16  C   UNL     1      -8.318   0.920   2.932  0.00  0.00    +0.044 C 
ENDBRANCH   7  10
ENDBRANCH   6   7
ENDBRANCH   4   6
ENDBRANCH   1   2
BRANCH   1  17
ATOM     17  N   UNL     1      -0.994  -4.146   0.478  0.00  0.00    -0.281 N 
ATOM     18  C   UNL     1      -0.550  -5.210  -0.219  0.00  0.00    +0.217 C 
ATOM     19  O   UNL     1      -1.329  -6.067  -0.578  0.00  0.00    -0.276 OA
BRANCH  17  20
ATOM     20  C   UNL     1      -0.082  -3.042   0.790  0.00  0.00    +0.030 C 
ATOM     21  C   UNL     1      -0.779  -2.053   1.726  0.00  0.00    +0.031 C 
ATOM     22  C   UNL     1       1.171  -3.594   1.474  0.00  0.00    +0.031 C 
ATOM     23  C   UNL     1       0.316  -2.328  -0.503  0.00  0.00    +0.031 C 
ENDBRANCH  17  20
BRANCH  18  24
ATOM     24  C   UNL     1       0.914  -5.335  -0.553  0.00  0.00    +0.100 C 
BRANCH  24  25
ATOM     25  C   UNL     1       1.100  -6.386  -1.649  0.00  0.00    +0.044 C 
BRANCH  25  26
ATOM     26  C   UNL     1       2.564  -6.511  -1.983  0.00  0.00    -0.047 A 
ATOM     27  C   UNL     1       3.118  -5.714  -2.967  0.00  0.00    +0.007 A 
ATOM     28  C   UNL     1       4.460  -5.827  -3.275  0.00  0.00    +0.046 A 
ATOM     29  C   UNL     1       5.252  -6.741  -2.595  0.00  0.00    +0.120 A 
ATOM     30  C   UNL     1       4.694  -7.539  -1.608  0.00  0.00    +0.046 A 
ATOM     31  C   UNL     1       3.353  -7.419  -1.300  0.00  0.00    +0.007 A 
BRANCH  29  32
ATOM     32  O   UNL     1       6.572  -6.854  -2.897  0.00  0.00    -0.495 OA
ATOM     33  C   UNL     1       7.327  -7.816  -2.157  0.00  0.00    +0.277 C 
ENDBRANCH  29  32
ENDBRANCH  25  26
ENDBRANCH  24  25
ENDBRANCH  18  24
ENDBRANCH   1  17
BRANCH   1  35
ATOM     34  C   UNL     1      -2.537  -2.284  -0.709  0.00  0.00    -0.029 C 
ATOM     35  C   UNL     1      -3.057  -2.877   0.336  0.00  0.00    +0.000 C 
BRANCH  34  36
ATOM     36  C   UNL     1      -3.151  -1.014  -1.240  0.00  0.00    +0.027 C 
BRANCH  36  38
ATOM     37  C   UNL     1      -2.709   1.369  -1.844  0.00  0.00    +0.004 C 
ATOM     38  C   UNL     1      -2.085   0.081  -1.305  0.00  0.00    +0.001 C 
ENDBRANCH  36  38
ENDBRANCH  34  36
ENDBRANCH   1  35
TORSDOF 13
