REMARK  Name = ZINC35000874
REMARK  14 active torsions:
REMARK  status: ('A' for Active; 'I' for Inactive)
REMARK    1  A    between atoms: C_1  and  C_2
REMARK    2  A    between atoms: C_6  and  C_39
REMARK    3  A    between atoms: C_7  and  N_8
REMARK    4  A    between atoms: N_14  and  C_17
REMARK    5  A    between atoms: C_17  and  C_18
REMARK    6  A    between atoms: C_18  and  N_19
REMARK    7  A    between atoms: N_19  and  C_20
REMARK    8  A    between atoms: C_20  and  C_21
REMARK    9  A    between atoms: C_29  and  C_30
REMARK   10  A    between atoms: C_29  and  C_31
REMARK   11  A    between atoms: N_34  and  C_35
REMARK   12  A    between atoms: C_35  and  C_36
REMARK   13  A    between atoms: C_35  and  C_37
REMARK   14  A    between atoms: C_35  and  C_38
REMARK                            x       y       z     vdW  Elec       q    Type
REMARK                         _______ _______ _______ _____ _____    ______ ____
ROOT
ATOM      1  C   UNL     1       0.968   1.712   8.267  0.00  0.00    -0.059 C 
ENDROOT
BRANCH   1   8
ATOM      2  N   UNL     1      -0.128   0.030   2.413  0.00  0.00    -0.269 N 
ATOM      3  C   UNL     1      -0.314  -0.643   3.566  0.00  0.00    +0.306 C 
ATOM      4  O   UNL     1      -0.330  -1.858   3.565  0.00  0.00    -0.252 OA
ATOM      5  N   UNL     1      -0.483   0.033   4.720  0.00  0.00    -0.289 N 
ATOM      6  C   UNL     1      -0.361   1.498   4.764  0.00  0.00    +0.091 C 
ATOM      7  C   UNL     1       0.592   1.871   5.905  0.00  0.00    -0.059 C 
ATOM      8  N   UNL     1       0.118   1.265   7.155  0.00  0.00    +0.383 N 
ATOM      9  C   UNL     1       0.177  -0.199   7.055  0.00  0.00    -0.059 C 
ATOM     10  C   UNL     1      -0.801  -0.675   5.970  0.00  0.00    +0.091 C 
ATOM     11  H   UNL     1      -0.066   0.998   2.421  0.00  0.00    +0.156 HD
ATOM     12  H   UNL     1      -0.834   1.551   7.327  0.00  0.00    -0.082 HD
BRANCH   2  19
ATOM     13  C   UNL     1       1.976   0.734   0.631  0.00  0.00    +0.045 C 
ATOM     14  C   UNL     1       0.988  -0.356   0.306  0.00  0.00    -0.029 A 
ATOM     15  C   UNL     1       1.092  -1.051  -0.883  0.00  0.00    +0.005 A 
ATOM     16  C   UNL     1       0.185  -2.052  -1.182  0.00  0.00    +0.001 A 
ATOM     17  C   UNL     1      -0.827  -2.361  -0.292  0.00  0.00    +0.005 A 
ATOM     18  C   UNL     1      -0.936  -1.669   0.898  0.00  0.00    -0.029 A 
ATOM     19  C   UNL     1      -0.024  -0.668   1.204  0.00  0.00    +0.041 A 
ATOM     20  C   UNL     1      -2.040  -2.006   1.867  0.00  0.00    +0.045 C 
ENDBRANCH   2  19
ENDBRANCH   1   8
BRANCH   1  21
ATOM     21  C   UNL     1       0.403   1.182   9.586  0.00  0.00    +0.091 C 
BRANCH  21  22
ATOM     22  N   UNL     1       1.251   1.628  10.695  0.00  0.00    -0.283 N 
ATOM     23  C   UNL     1       2.290   0.870  11.096  0.00  0.00    +0.303 C 
ATOM     24  O   UNL     1       2.994   1.240  12.016  0.00  0.00    -0.253 OA
ATOM     25  N   UNL     1       2.550  -0.299  10.477  0.00  0.00    -0.294 N 
ATOM     26  H   UNL     1       1.989  -0.594   9.743  0.00  0.00    +0.151 HD
BRANCH  25  27
ATOM     27  C   UNL     1       3.680  -1.123  10.913  0.00  0.00    +0.028 C 
ATOM     28  C   UNL     1       3.489  -1.516  12.379  0.00  0.00    +0.031 C 
ATOM     29  C   UNL     1       3.752  -2.386  10.052  0.00  0.00    +0.031 C 
ATOM     30  C   UNL     1       4.979  -0.329  10.763  0.00  0.00    +0.031 C 
ENDBRANCH  25  27
BRANCH  22  31
ATOM     31  C   UNL     1       0.968   2.899  11.367  0.00  0.00    +0.140 C 
BRANCH  31  32
ATOM     32  C   UNL     1       0.024   2.660  12.517  0.00  0.00    -0.053 C 
ATOM     33  C   UNL     1       0.470   2.486  13.740  0.00  0.00    -0.025 C 
ATOM     34  C   UNL     1      -0.510   2.257  14.866  0.00  0.00    +0.031 C 
ATOM     35  C   UNL     1      -1.937   2.196  14.305  0.00  0.00    -0.000 C 
ATOM     36  C   UNL     1      -2.043   1.332  13.036  0.00  0.00    +0.012 C 
ATOM     37  C   UNL     1      -1.479   2.617  12.308  0.00  0.00    +0.022 C 
ATOM     38  C   UNL     1      -2.221   3.408  13.395  0.00  0.00    -0.025 C 
ATOM     39  C   UNL     1      -1.501   4.687  13.825  0.00  0.00    +0.012 C 
ATOM     40  C   UNL     1      -3.707   3.626  13.098  0.00  0.00    +0.012 C 
ENDBRANCH  31  32
ENDBRANCH  22  31
ENDBRANCH  21  22
ENDBRANCH   1  21
TORSDOF 7
