REMARK  Name = ZINC12309716
REMARK  10 active torsions:
REMARK  status: ('A' for Active; 'I' for Inactive)
REMARK    1  A    between atoms: C_1  and  C_2
REMARK    2  A    between atoms: C_2  and  C_3
REMARK    3  A    between atoms: C_3  and  C_4
REMARK    4  A    between atoms: C_10  and  N_11
REMARK    5  A    between atoms: N_11  and  O_12
REMARK    6  A    between atoms: O_12  and  C_13
REMARK    7  A    between atoms: C_13  and  C_14
REMARK    8  A    between atoms: N_16  and  C_17
REMARK    9  A    between atoms: N_26  and  C_31
REMARK   10  A    between atoms: N_29  and  C_30
REMARK                            x       y       z     vdW  Elec       q    Type
REMARK                         _______ _______ _______ _____ _____    ______ ____
ROOT
ATOM      1  C   UNL     1       1.275   6.067  -0.269  0.00  0.00    -0.005 A 
ATOM      2  C   UNL     1       2.388   5.317  -0.258  0.00  0.00    +0.090 A 
ATOM      3  N   UNL     1       2.357   3.982   0.043  0.00  0.00    -0.347 N 
ATOM      4  H   UNL     1       3.291   3.448   0.272  0.00  0.00    +0.167 HD
ATOM      5  C   UNL     1       1.196   3.275   0.073  0.00  0.00    +0.129 A 
ATOM      6  C   UNL     1      -0.024   3.946   0.082  0.00  0.00    +0.106 A 
ATOM      7  C   UNL     1      -0.014   5.421   0.049  0.00  0.00    +0.082 A 
ATOM      8  C   UNL     1      -1.227   3.204   0.122  0.00  0.00    +0.268 A 
ATOM      9  O   UNL     1      -2.305   3.770   0.135  0.00  0.00    -0.267 OA
ATOM     10  N   UNL     1      -1.157   1.855   0.142  0.00  0.00    -0.263 N 
ATOM     11  C   UNL     1       0.032   1.228   0.134  0.00  0.00    +0.333 A 
ATOM     12  O   UNL     1       0.057   0.012   0.155  0.00  0.00    -0.246 OA
ATOM     13  N   UNL     1       1.194   1.904   0.098  0.00  0.00    -0.282 N 
ATOM     14  C   UNL     1       2.464   1.173   0.086  0.00  0.00    +0.155 C 
ATOM     15  C   UNL     1      -2.392   1.067   0.177  0.00  0.00    +0.157 C 
ENDROOT
BRANCH   7  16
ATOM     16  N   UNL     1      -1.098   6.123   0.289  0.00  0.00    -0.264 N 
ATOM     17  H   UNL     1      -1.185   7.149  -0.097  0.00  0.00    +0.194 HD
BRANCH  16  18
ATOM     18  O   UNL     1      -2.154   5.560   1.046  0.00  0.00    -0.265 OA
BRANCH  18  19
ATOM     19  C   UNL     1      -3.268   6.435   1.230  0.00  0.00    +0.288 C 
BRANCH  19  20
ATOM     20  C   UNL     1      -4.326   5.736   2.045  0.00  0.00    +0.246 C 
ATOM     21  O   UNL     1      -4.144   4.601   2.430  0.00  0.00    -0.273 OA
ATOM     22  N   UNL     1      -5.476   6.373   2.345  0.00  0.00    -0.284 N 
ATOM     23  H   UNL     1      -5.680   7.367   1.922  0.00  0.00    +0.155 HD
BRANCH  22  24
ATOM     24  C   UNL     1      -6.409   5.769   3.196  0.00  0.00    +0.034 A 
ATOM     25  C   UNL     1      -7.768   5.966   2.990  0.00  0.00    +0.024 A 
ATOM     26  C   UNL     1      -8.686   5.365   3.828  0.00  0.00    +0.017 A 
ATOM     27  C   UNL     1      -8.253   4.575   4.878  0.00  0.00    +0.018 A 
ATOM     28  C   UNL     1      -6.899   4.381   5.089  0.00  0.00    +0.017 A 
ATOM     29  C   UNL     1      -5.977   4.975   4.251  0.00  0.00    +0.024 A 
ATOM     30 BR   UNL     1      -9.514   3.758   6.027  0.00  0.00    -0.050 Br
ENDBRANCH  22  24
ENDBRANCH  19  20
ENDBRANCH  18  19
ENDBRANCH  16  18
ENDBRANCH   7  16
BRANCH   1  31
ATOM     31  C   UNL     1       1.339   7.537  -0.598  0.00  0.00    +0.038 C 
BRANCH  31  33
ATOM     32  C   UNL     1       2.759   9.590  -0.495  0.00  0.00    +0.004 C 
ATOM     33  C   UNL     1       2.693   8.098  -0.161  0.00  0.00    +0.001 C 
ENDBRANCH  31  33
ENDBRANCH   1  31
TORSDOF 7
