REMARK  Name = ZINC05040159
REMARK  7 active torsions:
REMARK  status: ('A' for Active; 'I' for Inactive)
REMARK    1  A    between atoms: C_1  and  C_2
REMARK    2  A    between atoms: C_11  and  O_13
REMARK    3  A    between atoms: O_13  and  C_14
REMARK    4  A    between atoms: C_14  and  C_15
REMARK    5  A    between atoms: N_17  and  C_18
REMARK    6  A    between atoms: C_23  and  C_28
REMARK    7  A    between atoms: C_25  and  C_27
REMARK                            x       y       z     vdW  Elec       q    Type
REMARK                         _______ _______ _______ _____ _____    ______ ____
ROOT
ATOM      1  O   UNL     1      -2.403   1.001   0.019  0.00  0.00    -0.481 OA
ENDROOT
BRANCH   1  12
ATOM      2  C   UNL     1      -8.804   2.155   0.056  0.00  0.00    +0.045 C 
ATOM      3  C   UNL     1      -7.598   3.060   0.055  0.00  0.00    -0.033 A 
ATOM      4  C   UNL     1      -7.740   4.411   0.063  0.00  0.00    +0.096 A 
ATOM      5  C   UNL     1      -6.596   5.236   0.061  0.00  0.00    +0.337 A 
ATOM      6  O   UNL     1      -6.738   6.446   0.068  0.00  0.00    -0.245 OA
ATOM      7  O   UNL     1      -5.356   4.722   0.053  0.00  0.00    -0.422 OA
ATOM      8  C   UNL     1      -5.146   3.389   0.045  0.00  0.00    +0.143 A 
ATOM      9  C   UNL     1      -6.243   2.506   0.046  0.00  0.00    +0.022 A 
ATOM     10  C   UNL     1      -6.029   1.123   0.037  0.00  0.00    +0.035 A 
ATOM     11  C   UNL     1      -4.755   0.633   0.028  0.00  0.00    +0.083 A 
ATOM     12  C   UNL     1      -3.664   1.503   0.028  0.00  0.00    +0.143 A 
ATOM     13  C   UNL     1      -3.858   2.874   0.042  0.00  0.00    +0.094 A 
ATOM     14 CL   UNL     1      -4.490  -1.082   0.018  0.00  0.00    -0.080 Cl
ENDBRANCH   1  12
BRANCH   1  15
ATOM     15  C   UNL     1      -1.330   1.944   0.019  0.00  0.00    +0.324 C 
BRANCH  15  16
ATOM     16  C   UNL     1      -0.014   1.209   0.009  0.00  0.00    +0.251 C 
ATOM     17  O   UNL     1       0.002  -0.004   0.002  0.00  0.00    -0.272 OA
ATOM     18  N   UNL     1       1.143   1.898   0.001  0.00  0.00    -0.309 N 
ATOM     19  H   UNL     1       1.130   2.868   0.007  0.00  0.00    +0.149 HD
BRANCH  18  20
ATOM     20  C   UNL     1       2.422   1.183  -0.015  0.00  0.00    +0.076 C 
ATOM     21  C   UNL     1       2.792   0.832  -1.457  0.00  0.00    +0.022 C 
ATOM     22  C   UNL     1       4.127   0.085  -1.474  0.00  0.00    +0.002 C 
ATOM     23  C   UNL     1       5.216   0.974  -0.870  0.00  0.00    +0.003 C 
ATOM     24  C   UNL     1       4.846   1.325   0.573  0.00  0.00    -0.009 C 
ATOM     25  C   UNL     1       3.511   2.072   0.589  0.00  0.00    +0.009 C 
ATOM     26  C   UNL     1       3.141   2.423   2.032  0.00  0.00    +0.009 C 
ATOM     27  C   UNL     1       4.723   0.040   1.394  0.00  0.00    +0.008 C 
ENDBRANCH  18  20
ENDBRANCH  15  16
ENDBRANCH   1  15
TORSDOF 4
