REMARK  Name = ZINC01432983
REMARK  7 active torsions:
REMARK  status: ('A' for Active; 'I' for Inactive)
REMARK    1  A    between atoms: C_1  and  C_2
REMARK    2  A    between atoms: C_2  and  O_3
REMARK    3  A    between atoms: O_3  and  C_4
REMARK    4  A    between atoms: C_4  and  C_6
REMARK    5  A    between atoms: C_10  and  N_11
REMARK    6  A    between atoms: C_12  and  C_14
REMARK    7  A    between atoms: C_14  and  N_15
REMARK                            x       y       z     vdW  Elec       q    Type
REMARK                         _______ _______ _______ _____ _____    ______ ____
ROOT
ATOM      1  C   UNL     1      -0.648   1.523  -4.900  0.00  0.00    +0.091 A 
ATOM      2  C   UNL     1      -1.530   2.121  -5.902  0.00  0.00    -0.021 A 
ATOM      3  C   UNL     1      -2.560   2.829  -5.406  0.00  0.00    -0.004 A 
ATOM      4  S   UNL     1      -2.384   2.711  -3.643  0.00  0.00    -0.077 S 
ATOM      5  C   UNL     1      -0.959   1.732  -3.566  0.00  0.00    +0.086 A 
ATOM      6  C   UNL     1      -3.419   3.414  -6.495  0.00  0.00    +0.043 C 
ATOM      7  C   UNL     1      -3.036   2.618  -7.762  0.00  0.00    +0.010 C 
ATOM      8  C   UNL     1      -1.599   2.169  -7.429  0.00  0.00    +0.037 C 
ENDROOT
BRANCH   5   9
ATOM      9  N   UNL     1      -0.288   1.272  -2.443  0.00  0.00    -0.278 N 
ATOM     10  C   UNL     1      -0.742   1.585  -1.213  0.00  0.00    +0.239 C 
ATOM     11  O   UNL     1      -1.736   2.268  -1.088  0.00  0.00    -0.273 OA
ATOM     12  H   UNL     1       0.507   0.726  -2.543  0.00  0.00    +0.155 HD
BRANCH  10  13
ATOM     13  C   UNL     1      -0.013   1.086   0.008  0.00  0.00    +0.239 C 
BRANCH  13  14
ATOM     14  N   UNL     1      -0.698   1.558   1.213  0.00  0.00    -0.262 N 
ATOM     15  C   UNL     1      -1.156   0.785   2.221  0.00  0.00    +0.123 A 
ATOM     16  C   UNL     1      -1.722   1.601   3.142  0.00  0.00    +0.051 A 
ATOM     17  C   UNL     1      -1.613   2.916   2.676  0.00  0.00    +0.148 A 
ATOM     18  N   UNL     1      -1.000   2.891   1.521  0.00  0.00    -0.178 NA
ATOM     19  I   UNL     1      -2.610   0.999   4.941  0.00  0.00    -0.041 I 
ENDBRANCH  13  14
ENDBRANCH  10  13
ENDBRANCH   5   9
BRANCH   1  20
ATOM     20  C   UNL     1       0.519   0.729  -5.292  0.00  0.00    +0.342 C 
ATOM     21  O   UNL     1       0.410  -0.471  -5.458  0.00  0.00    -0.245 OA
BRANCH  20  22
ATOM     22  O   UNL     1       1.714   1.329  -5.470  0.00  0.00    -0.461 OA
BRANCH  22  24
ATOM     23  C   UNL     1       4.088   1.332  -6.011  0.00  0.00    +0.048 C 
ATOM     24  C   UNL     1       2.826   0.480  -5.859  0.00  0.00    +0.229 C 
ENDBRANCH  22  24
ENDBRANCH  20  22
ENDBRANCH   1  20
TORSDOF 6
