REMARK  Name = ZINC36643442
REMARK  12 active torsions:
REMARK  status: ('A' for Active; 'I' for Inactive)
REMARK    1  A    between atoms: C_1  and  C_2
REMARK    2  A    between atoms: N_8  and  S_9
REMARK    3  A    between atoms: S_9  and  C_12
REMARK    4  A    between atoms: C_15  and  C_18
REMARK    5  A    between atoms: N_20  and  C_21
REMARK    6  A    between atoms: C_21  and  C_22
REMARK    7  A    between atoms: C_22  and  C_23
REMARK    8  A    between atoms: C_23  and  N_24
REMARK    9  A    between atoms: N_24  and  C_25
REMARK   10  A    between atoms: N_24  and  C_26
REMARK   11  A    between atoms: C_30  and  O_36
REMARK   12  A    between atoms: O_36  and  C_37
REMARK                            x       y       z     vdW  Elec       q    Type
REMARK                         _______ _______ _______ _____ _____    ______ ____
ROOT
ATOM      1  C   UNL     1      -2.535   0.954   6.816  0.00  0.00    +0.252 C 
ATOM      2  O   UNL     1      -3.439   1.766   6.782  0.00  0.00    -0.270 OA
ATOM      3  N   UNL     1      -2.208   0.359   7.981  0.00  0.00    -0.246 N 
ATOM      4  C   UNL     1      -2.872   0.705   9.146  0.00  0.00    +0.168 A 
ATOM      5  N   UNL     1      -3.840   1.575   9.315  0.00  0.00    -0.221 NA
ATOM      6  C   UNL     1      -4.401   1.812  10.521  0.00  0.00    +0.122 A 
ATOM      7  C   UNL     1      -5.444   2.718  10.838  0.00  0.00    +0.146 A 
ATOM      8  C   UNL     1      -5.900   2.838  12.130  0.00  0.00    +0.048 A 
ATOM      9  C   UNL     1      -5.359   2.083  13.161  0.00  0.00    +0.005 A 
ATOM     10  C   UNL     1      -4.340   1.191  12.885  0.00  0.00    +0.017 A 
ATOM     11  C   UNL     1      -3.877   1.063  11.598  0.00  0.00    +0.044 A 
ATOM     12  S   UNL     1      -2.634   0.074  10.801  0.00  0.00    -0.052 S 
ENDROOT
BRANCH   1  16
ATOM     13  C   UNL     1      -0.409  -0.007   3.268  0.00  0.00    +0.106 A 
ATOM     14  C   UNL     1      -1.784   0.139   3.228  0.00  0.00    +0.029 A 
ATOM     15  C   UNL     1      -2.481   0.451   4.377  0.00  0.00    +0.015 A 
ATOM     16  C   UNL     1      -1.795   0.619   5.582  0.00  0.00    +0.037 A 
ATOM     17  C   UNL     1      -0.408   0.471   5.614  0.00  0.00    +0.015 A 
ATOM     18  C   UNL     1       0.276   0.153   4.459  0.00  0.00    +0.029 A 
BRANCH  13  19
ATOM     19  S   UNL     1       0.473  -0.405   1.795  0.00  0.00    +0.061 S 
ATOM     20  O   UNL     1       1.808   0.045   1.987  0.00  0.00    -0.153 OA
ATOM     21  O   UNL     1      -0.330   0.035   0.709  0.00  0.00    -0.153 OA
BRANCH  19  28
ATOM     22  C   UNL     1      -1.621  -1.852   0.557  0.00  0.00    +0.026 C 
ATOM     23  C   UNL     1      -0.582  -2.818   1.131  0.00  0.00    +0.077 C 
ATOM     24  C   UNL     1      -0.054  -3.726   0.016  0.00  0.00    +0.020 C 
ATOM     25  C   UNL     1       1.081  -4.594   0.565  0.00  0.00    +0.003 C 
ATOM     26  C   UNL     1       2.226  -3.697   1.041  0.00  0.00    +0.017 C 
ATOM     27  C   UNL     1       1.724  -2.788   2.167  0.00  0.00    +0.110 C 
ATOM     28  N   UNL     1       0.540  -2.057   1.696  0.00  0.00    -0.174 NA
ENDBRANCH  19  28
ENDBRANCH  13  19
ENDBRANCH   1  16
BRANCH   7  29
ATOM     29  O   UNL     1      -6.000   3.476   9.856  0.00  0.00    -0.493 OA
ATOM     30  C   UNL     1      -7.048   4.369  10.239  0.00  0.00    +0.277 C 
ENDBRANCH   7  29
BRANCH   3  31
ATOM     31  C   UNL     1      -1.149  -0.653   8.014  0.00  0.00    +0.114 C 
BRANCH  31  32
ATOM     32  C   UNL     1       0.108  -0.055   8.648  0.00  0.00    +0.001 C 
BRANCH  32  33
ATOM     33  C   UNL     1       1.250  -1.071   8.573  0.00  0.00    -0.078 C 
BRANCH  33  34
ATOM     34  N   UNL     1       2.457  -0.497   9.182  0.00  0.00    +0.376 N 
ATOM     35  C   UNL     1       3.518  -1.512   9.218  0.00  0.00    -0.097 C 
ATOM     36  C   UNL     1       2.908   0.653   8.386  0.00  0.00    -0.097 C 
ATOM     37  H   UNL     1       2.249  -0.195  10.121  0.00  0.00    -0.083 HD
ENDBRANCH  33  34
ENDBRANCH  32  33
ENDBRANCH  31  32
ENDBRANCH   3  31
TORSDOF 8
