REMARK  Name = ZINC01245280
REMARK  7 active torsions:
REMARK  status: ('A' for Active; 'I' for Inactive)
REMARK    1  A    between atoms: C_1  and  C_2
REMARK    2  A    between atoms: C_2  and  C_27
REMARK    3  A    between atoms: C_10  and  S_14
REMARK    4  A    between atoms: S_14  and  C_15
REMARK    5  A    between atoms: C_15  and  C_16
REMARK    6  A    between atoms: C_19  and  O_22
REMARK    7  A    between atoms: O_22  and  C_23
REMARK                            x       y       z     vdW  Elec       q    Type
REMARK                         _______ _______ _______ _____ _____    ______ ____
ROOT
ATOM      1  C   UNL     1       0.002  -0.004   0.002  0.00  0.00    +0.041 C 
ATOM      2  C   UNL     1      -0.019   1.526   0.010  0.00  0.00    +0.070 C 
ATOM      3  C   UNL     1      -0.742   2.023   1.263  0.00  0.00    +0.090 C 
ATOM      4  C   UNL     1      -2.221   1.718   1.149  0.00  0.00    +0.052 A 
ATOM      5  C   UNL     1      -2.794   1.414  -0.078  0.00  0.00    +0.000 A 
ATOM      6  C   UNL     1      -4.140   1.153  -0.159  0.00  0.00    +0.022 A 
ATOM      7  C   UNL     1      -4.898   1.200   1.014  0.00  0.00    +0.059 A 
ATOM      8  C   UNL     1      -6.292   0.946   1.026  0.00  0.00    +0.130 A 
ATOM      9  N   UNL     1      -6.933   1.012   2.184  0.00  0.00    -0.207 NA
ATOM     10  C   UNL     1      -6.292   1.309   3.311  0.00  0.00    +0.192 A 
ATOM     11  N   UNL     1      -4.995   1.554   3.355  0.00  0.00    -0.202 NA
ATOM     12  C   UNL     1      -4.255   1.513   2.237  0.00  0.00    +0.166 A 
ATOM     13  N   UNL     1      -2.947   1.757   2.251  0.00  0.00    -0.232 NA
ATOM     14  N   UNL     1      -6.964   0.638  -0.137  0.00  0.00    -0.342 N 
ATOM     15  C   UNL     1      -1.976   1.360  -1.342  0.00  0.00    +0.197 C 
ATOM     16  O   UNL     1      -0.718   2.004  -1.144  0.00  0.00    -0.369 OA
ATOM     17  C   UNL     1       1.415   2.059  -0.000  0.00  0.00    +0.041 C 
ATOM     18  H   UNL     1      -6.482   0.593  -0.978  0.00  0.00    +0.144 HD
ATOM     19  H   UNL     1      -7.918   0.466  -0.115  0.00  0.00    +0.144 HD
ENDROOT
BRANCH  10  20
ATOM     20  S   UNL     1      -7.213   1.379   4.811  0.00  0.00    -0.081 S 
BRANCH  20  21
ATOM     21  C   UNL     1      -8.863   0.977   4.186  0.00  0.00    +0.112 C 
BRANCH  21  22
ATOM     22  C   UNL     1      -9.847   0.978   5.327  0.00  0.00    -0.037 A 
ATOM     23  C   UNL     1     -10.089  -0.187   6.031  0.00  0.00    +0.008 A 
ATOM     24  C   UNL     1     -10.987  -0.187   7.081  0.00  0.00    +0.046 A 
ATOM     25  C   UNL     1     -11.654   0.980   7.422  0.00  0.00    +0.120 A 
ATOM     26  C   UNL     1     -11.414   2.147   6.710  0.00  0.00    +0.046 A 
ATOM     27  C   UNL     1     -10.512   2.143   5.664  0.00  0.00    +0.008 A 
BRANCH  25  28
ATOM     28  O   UNL     1     -12.541   0.981   8.451  0.00  0.00    -0.495 OA
ATOM     29  C   UNL     1     -12.739  -0.256   9.139  0.00  0.00    +0.277 C 
ENDBRANCH  25  28
ENDBRANCH  21  22
ENDBRANCH  20  21
ENDBRANCH  10  20
TORSDOF 4
