REMARK  Name = ZINC55029223
REMARK  10 active torsions:
REMARK  status: ('A' for Active; 'I' for Inactive)
REMARK    1  A    between atoms: C_1  and  C_2
REMARK    2  A    between atoms: C_2  and  C_4
REMARK    3  A    between atoms: C_2  and  N_12
REMARK    4  A    between atoms: N_6  and  C_7
REMARK    5  A    between atoms: C_7  and  C_8
REMARK    6  A    between atoms: C_8  and  C_9
REMARK    7  A    between atoms: C_9  and  O_10
REMARK    8  A    between atoms: O_10  and  C_11
REMARK    9  A    between atoms: C_15  and  N_18
REMARK   10  A    between atoms: N_21  and  C_22
REMARK                            x       y       z     vdW  Elec       q    Type
REMARK                         _______ _______ _______ _____ _____    ______ ____
ROOT
ATOM      1  N   UNL     1       0.007  -0.919  -1.147  0.00  0.00    +0.387 N 
ATOM      2  C   UNL     1      -0.621  -2.189  -0.762  0.00  0.00    -0.076 C 
ATOM      3  C   UNL     1      -0.546  -3.174  -1.930  0.00  0.00    +0.004 C 
ATOM      4  C   UNL     1      -1.282  -2.584  -3.137  0.00  0.00    +0.071 C 
ATOM      5  C   UNL     1      -0.666  -1.226  -3.483  0.00  0.00    +0.004 C 
ATOM      6  C   UNL     1      -0.737  -0.312  -2.257  0.00  0.00    -0.076 C 
ATOM      7  H   UNL     1       0.959  -1.091  -1.435  0.00  0.00    -0.081 HD
ENDROOT
BRANCH   4   8
ATOM      8  N   UNL     1      -1.149  -3.488  -4.282  0.00  0.00    -0.297 N 
ATOM      9  C   UNL     1      -2.074  -3.474  -5.263  0.00  0.00    +0.300 C 
ATOM     10  O   UNL     1      -3.018  -2.711  -5.197  0.00  0.00    -0.253 OA
ATOM     11  N   UNL     1      -1.951  -4.306  -6.316  0.00  0.00    -0.297 N 
ATOM     12  H   UNL     1      -0.396  -4.097  -4.334  0.00  0.00    +0.151 HD
ATOM     13  H   UNL     1      -1.198  -4.915  -6.368  0.00  0.00    +0.151 HD
BRANCH  11  14
ATOM     14  C   UNL     1      -2.956  -4.290  -7.382  0.00  0.00    +0.074 C 
ATOM     15  C   UNL     1      -2.610  -3.196  -8.393  0.00  0.00    +0.022 C 
ATOM     16  C   UNL     1      -3.659  -3.179  -9.506  0.00  0.00    +0.002 C 
ATOM     17  C   UNL     1      -3.677  -4.537 -10.211  0.00  0.00    +0.000 C 
ATOM     18  C   UNL     1      -4.023  -5.632  -9.200  0.00  0.00    +0.002 C 
ATOM     19  C   UNL     1      -2.974  -5.648  -8.086  0.00  0.00    +0.022 C 
ENDBRANCH  11  14
ENDBRANCH   4   8
BRANCH   1  21
ATOM     20  C   UNL     1       0.632   1.329  -0.405  0.00  0.00    -0.004 C 
ATOM     21  C   UNL     1       0.002  -0.004   0.002  0.00  0.00    +0.016 C 
BRANCH  21  22
ATOM     22  C   UNL     1       0.795  -0.611   1.131  0.00  0.00    +0.199 C 
ATOM     23  O   UNL     1       1.695  -1.388   0.890  0.00  0.00    -0.278 OA
ATOM     24  N   UNL     1       0.505  -0.289   2.407  0.00  0.00    -0.317 N 
ATOM     25  H   UNL     1      -0.214   0.333   2.599  0.00  0.00    +0.149 HD
BRANCH  24  26
ATOM     26  C   UNL     1       1.277  -0.878   3.504  0.00  0.00    +0.106 C 
BRANCH  26  27
ATOM     27  C   UNL     1       0.749  -0.351   4.840  0.00  0.00    +0.047 C 
BRANCH  27  28
ATOM     28  C   UNL     1       1.554  -0.967   5.986  0.00  0.00    +0.161 C 
BRANCH  28  29
ATOM     29  O   UNL     1       1.060  -0.474   7.233  0.00  0.00    -0.383 OA
ATOM     30  C   UNL     1       1.748  -0.990   8.375  0.00  0.00    +0.193 C 
ENDBRANCH  28  29
ENDBRANCH  27  28
ENDBRANCH  26  27
ENDBRANCH  24  26
ENDBRANCH  21  22
ENDBRANCH   1  21
TORSDOF 8
