REMARK  Name = ZINC08876758
REMARK  8 active torsions:
REMARK  status: ('A' for Active; 'I' for Inactive)
REMARK    1  A    between atoms: C_1  and  C_2
REMARK    2  A    between atoms: C_2  and  O_3
REMARK    3  A    between atoms: O_3  and  C_4
REMARK    4  A    between atoms: C_4  and  C_6
REMARK    5  A    between atoms: C_9  and  N_12
REMARK    6  A    between atoms: C_13  and  C_15
REMARK    7  A    between atoms: C_26  and  C_34
REMARK    8  A    between atoms: C_28  and  C_33
REMARK                            x       y       z     vdW  Elec       q    Type
REMARK                         _______ _______ _______ _____ _____    ______ ____
ROOT
ATOM      1  C   UNL     1       1.462  -2.933  -1.440  0.00  0.00    +0.076 C 
ATOM      2  C   UNL     1       1.847  -4.399  -1.103  0.00  0.00    -0.003 C 
ATOM      3  C   UNL     1       2.453  -4.248   0.313  0.00  0.00    -0.066 C 
ATOM      4  C   UNL     1       2.246  -5.556   1.094  0.00  0.00    -0.017 C 
ATOM      5  C   UNL     1       1.281  -5.193   2.245  0.00  0.00    -0.020 C 
ATOM      6  C   UNL     1       0.560  -3.933   1.707  0.00  0.00    -0.077 C 
ATOM      7  C   UNL     1       1.024  -2.373  -0.078  0.00  0.00    +0.052 C 
ATOM      8  C   UNL     1       1.436  -0.932   0.064  0.00  0.00    -0.027 A 
ATOM      9  C   UNL     1       2.656  -0.293   0.053  0.00  0.00    +0.008 A 
ATOM     10  C   UNL     1       2.719   1.079   0.214  0.00  0.00    -0.050 A 
ATOM     11  C   UNL     1       1.555   1.807   0.385  0.00  0.00    +0.008 A 
ATOM     12  C   UNL     1       0.331   1.171   0.396  0.00  0.00    -0.029 A 
ATOM     13  C   UNL     1       0.259  -0.211   0.235  0.00  0.00    +0.039 A 
ATOM     14  N   UNL     1      -0.841  -1.071   0.212  0.00  0.00    -0.286 N 
ATOM     15  C   UNL     1      -0.479  -2.355   0.034  0.00  0.00    +0.212 C 
ATOM     16  O   UNL     1      -1.220  -3.314  -0.026  0.00  0.00    -0.277 OA
ATOM     17  C   UNL     1      -0.931   1.974   0.575  0.00  0.00    +0.045 C 
ATOM     18  C   UNL     1       4.053   1.781   0.204  0.00  0.00    +0.044 C 
ATOM     19  H   UNL     1      -1.760  -0.777   0.313  0.00  0.00    +0.155 HD
ATOM     20  N   UNL     1       1.623  -3.237   0.958  0.00  0.00    +0.394 N 
ATOM     21  H   UNL     1       2.190  -2.670   1.599  0.00  0.00    -0.079 HD
ENDROOT
BRANCH   1  23
ATOM     22  N   UNL     1       2.464  -1.124  -2.796  0.00  0.00    -0.285 N 
ATOM     23  C   UNL     1       2.650  -2.175  -1.973  0.00  0.00    +0.220 C 
ATOM     24  O   UNL     1       3.772  -2.509  -1.660  0.00  0.00    -0.275 OA
ATOM     25  H   UNL     1       1.566  -0.813  -2.991  0.00  0.00    +0.155 HD
BRANCH  22  29
ATOM     26  C   UNL     1       5.746   0.786  -4.508  0.00  0.00    +0.059 A 
ATOM     27  C   UNL     1       4.554   0.659  -5.229  0.00  0.00    +0.017 A 
ATOM     28  C   UNL     1       3.472   0.028  -4.660  0.00  0.00    +0.024 A 
ATOM     29  C   UNL     1       3.562  -0.485  -3.369  0.00  0.00    +0.033 A 
ATOM     30  C   UNL     1       4.745  -0.357  -2.648  0.00  0.00    +0.024 A 
ATOM     31  C   UNL     1       5.833   0.269  -3.212  0.00  0.00    +0.017 A 
BRANCH  26  32
ATOM     32  C   UNL     1       6.908   1.462  -5.114  0.00  0.00    +0.339 C 
ATOM     33  O   UNL     1       6.831   1.910  -6.241  0.00  0.00    -0.245 OA
BRANCH  32  34
ATOM     34  O   UNL     1       8.056   1.583  -4.419  0.00  0.00    -0.461 OA
BRANCH  34  36
ATOM     35  C   UNL     1      10.366   2.300  -4.140  0.00  0.00    +0.048 C 
ATOM     36  C   UNL     1       9.158   2.260  -5.078  0.00  0.00    +0.229 C 
ENDBRANCH  34  36
ENDBRANCH  32  34
ENDBRANCH  26  32
ENDBRANCH  22  29
ENDBRANCH   1  23
TORSDOF 5
