REMARK  Name = ZINC40352048
REMARK  12 active torsions:
REMARK  status: ('A' for Active; 'I' for Inactive)
REMARK    1  A    between atoms: C_1  and  O_2
REMARK    2  A    between atoms: O_2  and  C_3
REMARK    3  A    between atoms: C_5  and  C_13
REMARK    4  A    between atoms: C_6  and  O_11
REMARK    5  A    between atoms: C_8  and  S_9
REMARK    6  A    between atoms: S_9  and  C_10
REMARK    7  A    between atoms: O_11  and  C_12
REMARK    8  A    between atoms: C_13  and  C_15
REMARK    9  A    between atoms: C_13  and  O_24
REMARK   10  A    between atoms: C_15  and  O_16
REMARK   11  A    between atoms: O_16  and  C_17
REMARK   12  A    between atoms: C_20  and  N_23
REMARK                            x       y       z     vdW  Elec       q    Type
REMARK                         _______ _______ _______ _____ _____    ______ ____
ROOT
ATOM      1  C   UNL     1       2.462   0.339   4.203  0.00  0.00    +0.185 C 
ENDROOT
BRANCH   1   4
ATOM      2  C   UNL     1       0.627  -0.619   1.043  0.00  0.00    +0.134 A 
ATOM      3  C   UNL     1       1.202   0.137   2.050  0.00  0.00    +0.056 A 
ATOM      4  C   UNL     1       1.836  -0.487   3.109  0.00  0.00    +0.029 A 
ATOM      5  C   UNL     1       1.899  -1.872   3.165  0.00  0.00    +0.127 A 
ATOM      6  C   UNL     1       1.325  -2.634   2.159  0.00  0.00    +0.064 A 
ATOM      7  C   UNL     1       0.683  -2.010   1.099  0.00  0.00    +0.053 A 
BRANCH   2   9
ATOM      8  C   UNL     1      -0.017   1.425   0.010  0.00  0.00    +0.277 C 
ATOM      9  O   UNL     1       0.002  -0.004   0.002  0.00  0.00    -0.494 OA
ENDBRANCH   2   9
BRANCH   7  10
ATOM     10  S   UNL     1      -0.054  -2.976  -0.178  0.00  0.00    -0.125 S 
ATOM     11  C   UNL     1       0.271  -4.688   0.324  0.00  0.00    +0.090 C 
ENDBRANCH   7  10
BRANCH   5  12
ATOM     12  O   UNL     1       2.524  -2.482   4.207  0.00  0.00    -0.495 OA
ATOM     13  C   UNL     1       2.551  -3.911   4.201  0.00  0.00    +0.277 C 
ENDBRANCH   5  12
ENDBRANCH   1   4
BRANCH   1  14
ATOM     14  O   UNL     1       1.813   1.610   4.270  0.00  0.00    -0.384 OA
ATOM     15  H   UNL     1       1.874   2.126   3.454  0.00  0.00    +0.210 HD
ENDBRANCH   1  14
BRANCH   1  16
ATOM     16  C   UNL     1       3.949   0.539   3.905  0.00  0.00    +0.265 C 
BRANCH  16  17
ATOM     17  O   UNL     1       4.566   1.221   4.998  0.00  0.00    -0.489 OA
BRANCH  17  18
ATOM     18  C   UNL     1       5.897   1.480   4.892  0.00  0.00    +0.121 A 
ATOM     19  C   UNL     1       6.591   1.089   3.756  0.00  0.00    +0.047 A 
ATOM     20  C   UNL     1       7.942   1.351   3.647  0.00  0.00    +0.026 A 
ATOM     21  C   UNL     1       8.607   2.006   4.675  0.00  0.00    +0.025 A 
ATOM     22  C   UNL     1       7.912   2.397   5.812  0.00  0.00    +0.026 A 
ATOM     23  C   UNL     1       6.559   2.139   5.917  0.00  0.00    +0.047 A 
BRANCH  21  24
ATOM     24  N   UNL     1       9.977   2.272   4.566  0.00  0.00    -0.358 N 
ATOM     25  H   UNL     1      10.462   1.998   3.772  0.00  0.00    +0.142 HD
ATOM     26  H   UNL     1      10.441   2.729   5.285  0.00  0.00    +0.142 HD
ENDBRANCH  21  24
ENDBRANCH  17  18
ENDBRANCH  16  17
ENDBRANCH   1  16
TORSDOF 9
