REMARK  Name = ZINC51397162
REMARK  5 active torsions:
REMARK  status: ('A' for Active; 'I' for Inactive)
REMARK    1  A    between atoms: C_1  and  C_2
REMARK    2  A    between atoms: C_2  and  O_3
REMARK    3  A    between atoms: O_3  and  C_4
REMARK    4  A    between atoms: C_18  and  C_20
REMARK    5  A    between atoms: C_20  and  N_21
REMARK                            x       y       z     vdW  Elec       q    Type
REMARK                         _______ _______ _______ _____ _____    ______ ____
ROOT
ATOM      1  C   UNL     1      -1.462  -1.924   0.061  0.00  0.00    +0.121 C 
ATOM      2  C   UNL     1      -1.550  -2.368  -1.401  0.00  0.00    +0.050 C 
ATOM      3  C   UNL     1      -1.583  -3.898  -1.466  0.00  0.00    +0.109 C 
ATOM      4  N   UNL     1      -2.683  -4.383  -0.621  0.00  0.00    -0.315 N 
ATOM      5  C   UNL     1      -2.744  -3.944   0.780  0.00  0.00    +0.109 C 
ATOM      6  C   UNL     1      -2.698  -2.413   0.819  0.00  0.00    +0.050 C 
ATOM      7  C   UNL     1      -3.643  -5.237  -1.135  0.00  0.00    +0.129 A 
ATOM      8  C   UNL     1      -3.442  -6.635  -1.099  0.00  0.00    +0.022 A 
ATOM      9  C   UNL     1      -2.285  -7.206  -0.552  0.00  0.00    +0.012 A 
ATOM     10  C   UNL     1      -2.144  -8.562  -0.543  0.00  0.00    +0.001 A 
ATOM     11  C   UNL     1      -3.132  -9.390  -1.070  0.00  0.00    +0.001 A 
ATOM     12  C   UNL     1      -4.269  -8.868  -1.610  0.00  0.00    +0.008 A 
ATOM     13  C   UNL     1      -4.447  -7.478  -1.635  0.00  0.00    -0.013 A 
ATOM     14  C   UNL     1      -5.601  -6.879  -2.178  0.00  0.00    +0.030 A 
ATOM     15  C   UNL     1      -5.703  -5.522  -2.167  0.00  0.00    +0.027 A 
ATOM     16  N   UNL     1      -4.753  -4.750  -1.656  0.00  0.00    -0.238 NA
ENDROOT
BRANCH   1  17
ATOM     17  O   UNL     1      -1.398  -0.498   0.123  0.00  0.00    -0.377 OA
BRANCH  17  19
ATOM     18  C   UNL     1      -0.122   1.554   0.157  0.00  0.00    +0.034 C 
ATOM     19  C   UNL     1      -0.070   0.027   0.085  0.00  0.00    +0.157 C 
ENDBRANCH  17  19
ENDBRANCH   1  17
BRANCH  15  20
ATOM     20  C   UNL     1      -6.936  -4.878  -2.747  0.00  0.00    -0.030 C 
BRANCH  20  21
ATOM     21  N   UNL     1      -7.903  -4.616  -1.673  0.00  0.00    +0.382 N 
ATOM     22  H   UNL     1      -7.489  -3.997  -0.991  0.00  0.00    -0.090 HD
ATOM     23  H   UNL     1      -8.728  -4.184  -2.061  0.00  0.00    -0.090 HD
ATOM     24  H   UNL     1      -8.156  -5.486  -1.228  0.00  0.00    -0.090 HD
ENDBRANCH  20  21
ENDBRANCH  15  20
TORSDOF 4
