REMARK  Name = ZINC44325076
REMARK  9 active torsions:
REMARK  status: ('A' for Active; 'I' for Inactive)
REMARK    1  A    between atoms: C_4  and  N_31
REMARK    2  A    between atoms: C_5  and  C_7
REMARK    3  A    between atoms: C_7  and  CA_8
REMARK    4  A    between atoms: CA_8  and  C_10
REMARK    5  A    between atoms: CA_8  and  N_13
REMARK    6  A    between atoms: C_14  and  O_16
REMARK    7  A    between atoms: O_16  and  C_17
REMARK    8  A    between atoms: C_17  and  C_18
REMARK    9  A    between atoms: C_34  and  O_37
REMARK                            x       y       z     vdW  Elec       q    Type
REMARK                         _______ _______ _______ _____ _____    ______ ____
ROOT
ATOM      1  CA  UNL     1       1.372  -2.703   1.411  0.00  0.00    +0.193 C 
ENDROOT
BRANCH   1   2
ATOM      2  N   UNL     1       0.185  -2.335   2.186  0.00  0.00    -0.267 N 
ATOM      3  C   UNL     1       0.266  -2.215   3.526  0.00  0.00    +0.401 C 
ATOM      4  O   UNL     1       1.323  -2.412   4.091  0.00  0.00    -0.226 OA
ATOM      5  H   UNL     1      -0.659  -2.178   1.735  0.00  0.00    +0.153 HD
BRANCH   3   6
ATOM      6  O   UNL     1      -0.826  -1.877   4.239  0.00  0.00    -0.449 OA
BRANCH   6   7
ATOM      7  C   UNL     1      -0.668  -1.768   5.655  0.00  0.00    +0.246 C 
BRANCH   7   8
ATOM      8  C   UNL     1      -2.005  -1.379   6.289  0.00  0.00    +0.088 C 
ATOM      9  C   UNL     1      -2.989  -2.516   6.165  0.00  0.00    -0.029 A 
ATOM     10  C   UNL     1      -3.526  -3.160   5.070  0.00  0.00    +0.005 A 
ATOM     11  C   UNL     1      -4.427  -4.195   5.249  0.00  0.00    +0.000 A 
ATOM     12  C   UNL     1      -4.792  -4.584   6.525  0.00  0.00    +0.001 A 
ATOM     13  C   UNL     1      -4.260  -3.945   7.625  0.00  0.00    +0.009 A 
ATOM     14  C   UNL     1      -3.350  -2.901   7.453  0.00  0.00    -0.014 A 
ATOM     15  C   UNL     1      -2.636  -2.053   8.440  0.00  0.00    -0.014 A 
ATOM     16  C   UNL     1      -1.828  -1.140   7.768  0.00  0.00    -0.029 A 
ATOM     17  C   UNL     1      -1.061  -0.238   8.475  0.00  0.00    +0.005 A 
ATOM     18  C   UNL     1      -1.091  -0.238   9.858  0.00  0.00    +0.000 A 
ATOM     19  C   UNL     1      -1.889  -1.143  10.535  0.00  0.00    +0.001 A 
ATOM     20  C   UNL     1      -2.660  -2.048   9.836  0.00  0.00    +0.009 A 
ENDBRANCH   7   8
ENDBRANCH   6   7
ENDBRANCH   3   6
ENDBRANCH   1   2
BRANCH   1  21
ATOM     21  C   UNL     1       1.515  -4.203   1.392  0.00  0.00    +0.376 C 
ATOM     22  O   UNL     1       2.622  -4.709   1.314  0.00  0.00    -0.244 OA
ATOM     23  OXT UNL     1       0.524  -4.911   1.455  0.00  0.00    -0.244 OA
ENDBRANCH   1  21
BRANCH   1  24
ATOM     24  C   UNL     1       1.226  -2.187  -0.022  0.00  0.00    +0.071 C 
BRANCH  24  29
ATOM     25  C   UNL     1      -0.017   1.378   0.010  0.00  0.00    +0.000 A 
ATOM     26  C   UNL     1       1.170   2.089   0.002  0.00  0.00    +0.002 A 
ATOM     27  C   UNL     1       2.377   1.420  -0.013  0.00  0.00    +0.023 A 
ATOM     28  C   UNL     1       2.400   0.031  -0.021  0.00  0.00    +0.033 A 
ATOM     29  C   UNL     1       1.207  -0.680  -0.013  0.00  0.00    -0.024 A 
ATOM     30  C   UNL     1       0.002  -0.004   0.002  0.00  0.00    +0.005 A 
BRANCH  28  31
ATOM     31  N   UNL     1       3.620  -0.649  -0.036  0.00  0.00    -0.330 N 
ATOM     32  C   UNL     1       4.264  -1.002  -1.309  0.00  0.00    +0.107 C 
ATOM     33  C   UNL     1       4.562  -2.505  -1.311  0.00  0.00    +0.050 C 
ATOM     34  C   UNL     1       5.385  -2.859  -0.071  0.00  0.00    +0.118 C 
ATOM     35  C   UNL     1       4.581  -2.528   1.189  0.00  0.00    +0.050 C 
ATOM     36  C   UNL     1       4.286  -1.021   1.219  0.00  0.00    +0.107 C 
BRANCH  34  37
ATOM     37  O   UNL     1       5.692  -4.255  -0.086  0.00  0.00    -0.392 OA
ATOM     38  H   UNL     1       6.213  -4.551   0.672  0.00  0.00    +0.210 HD
ENDBRANCH  34  37
ENDBRANCH  28  31
ENDBRANCH  24  29
ENDBRANCH   1  24
TORSDOF 9
