REMARK  Name = ZINC09778571
REMARK  6 active torsions:
REMARK  status: ('A' for Active; 'I' for Inactive)
REMARK    1  A    between atoms: C_1  and  C_2
REMARK    2  A    between atoms: C_10  and  C_13
REMARK    3  A    between atoms: C_22  and  C_32
REMARK    4  A    between atoms: C_23  and  C_24
REMARK    5  A    between atoms: C_24  and  O_26
REMARK    6  A    between atoms: O_26  and  C_27
REMARK                            x       y       z     vdW  Elec       q    Type
REMARK                         _______ _______ _______ _____ _____    ______ ____
ROOT
ATOM      1  C   UNL     1       0.088  -5.156   3.538  0.00  0.00    +0.099 C 
ATOM      2  C   UNL     1      -1.194  -4.911   4.309  0.00  0.00    +0.028 C 
ATOM      3  C   UNL     1      -2.386  -5.131   3.727  0.00  0.00    +0.162 C 
ATOM      4  C   UNL     1      -3.674  -4.893   4.470  0.00  0.00    +0.080 C 
ATOM      5  C   UNL     1      -3.444  -5.123   5.966  0.00  0.00    +0.014 C 
ATOM      6  C   UNL     1      -2.326  -4.192   6.444  0.00  0.00    +0.056 C 
ATOM      7  C   UNL     1      -1.080  -4.455   5.633  0.00  0.00    +0.049 C 
ATOM      8  N   UNL     1       0.098  -4.254   6.177  0.00  0.00    -0.256 NA
ATOM      9  C   UNL     1       1.266  -4.442   5.580  0.00  0.00    +0.049 C 
ATOM     10  C   UNL     1       1.373  -4.877   4.296  0.00  0.00    +0.070 C 
ATOM     11  C   UNL     1       2.526  -4.160   6.356  0.00  0.00    +0.066 C 
ATOM     12  O   UNL     1      -2.429  -5.571   2.454  0.00  0.00    -0.292 OA
ENDROOT
BRANCH   1  22
ATOM     13  C   UNL     1      -0.018   1.503   0.010  0.00  0.00    +0.044 C 
ATOM     14  C   UNL     1       0.002  -0.004   0.002  0.00  0.00    -0.050 A 
ATOM     15  C   UNL     1       0.006  -0.688  -1.205  0.00  0.00    +0.007 A 
ATOM     16  C   UNL     1       0.024  -2.066  -1.234  0.00  0.00    +0.047 A 
ATOM     17  C   UNL     1       0.039  -2.784  -0.043  0.00  0.00    +0.138 A 
ATOM     18  C   UNL     1       0.036  -2.090   1.178  0.00  0.00    +0.064 A 
ATOM     19  C   UNL     1       0.023  -0.696   1.193  0.00  0.00    +0.018 A 
ATOM     20  C   UNL     1       0.052  -2.874   2.428  0.00  0.00    +0.197 A 
ATOM     21  O   UNL     1       0.050  -2.331   3.519  0.00  0.00    -0.287 OA
ATOM     22  C   UNL     1       0.070  -4.289   2.305  0.00  0.00    +0.047 A 
ATOM     23  C   UNL     1       0.072  -4.850   1.083  0.00  0.00    +0.204 A 
ATOM     24  O   UNL     1       0.057  -4.132  -0.045  0.00  0.00    -0.462 OA
ENDBRANCH   1  22
BRANCH  10  25
ATOM     25  C   UNL     1       2.634  -5.063   3.695  0.00  0.00    +0.338 C 
ATOM     26  O   UNL     1       3.649  -4.832   4.325  0.00  0.00    -0.245 OA
BRANCH  25  27
ATOM     27  O   UNL     1       2.715  -5.498   2.419  0.00  0.00    -0.458 OA
BRANCH  27  28
ATOM     28  C   UNL     1       4.025  -5.664   1.873  0.00  0.00    +0.177 C 
ATOM     29  C   UNL     1       4.460  -4.378   1.141  0.00  0.00    +0.044 C 
ATOM     30  C   UNL     1       5.252  -4.889  -0.088  0.00  0.00    +0.004 C 
ATOM     31  C   UNL     1       4.451  -6.144  -0.513  0.00  0.00    +0.004 C 
ATOM     32  C   UNL     1       4.019  -6.787   0.822  0.00  0.00    +0.044 C 
ENDBRANCH  27  28
ENDBRANCH  25  27
ENDBRANCH  10  25
TORSDOF 4
