REMARK  Name = ZINC66059771
REMARK  6 active torsions:
REMARK  status: ('A' for Active; 'I' for Inactive)
REMARK    1  A    between atoms: C_1  and  O_2
REMARK    2  A    between atoms: O_2  and  C_3
REMARK    3  A    between atoms: C_5  and  C_22
REMARK    4  A    between atoms: C_8  and  O_9
REMARK    5  A    between atoms: O_9  and  C_10
REMARK    6  A    between atoms: C_10  and  C_11
REMARK                            x       y       z     vdW  Elec       q    Type
REMARK                         _______ _______ _______ _____ _____    ______ ____
ROOT
ATOM      1  O   UNL     1      -0.105  -2.753  -0.012  0.00  0.00    -0.481 OA
ENDROOT
BRANCH   1   7
ATOM      2  C   UNL     1      -1.201  -0.638   0.010  0.00  0.00    +0.164 A 
ATOM      3  C   UNL     1      -2.370   0.099   0.019  0.00  0.00    +0.068 A 
ATOM      4  C   UNL     1      -3.605  -0.555   0.027  0.00  0.00    +0.057 A 
ATOM      5  C   UNL     1      -3.652  -1.951   0.026  0.00  0.00    +0.042 A 
ATOM      6  C   UNL     1      -2.482  -2.681   0.016  0.00  0.00    +0.087 A 
ATOM      7  C   UNL     1      -1.255  -2.030   0.003  0.00  0.00    +0.181 A 
ATOM      8 CL   UNL     1      -2.543  -4.416   0.014  0.00  0.00    -0.080 Cl
BRANCH   2  10
ATOM      9  C   UNL     1      -0.017   1.425   0.010  0.00  0.00    +0.277 C 
ATOM     10  O   UNL     1       0.002  -0.004   0.002  0.00  0.00    -0.491 OA
ENDBRANCH   2  10
BRANCH   4  11
ATOM     11  C   UNL     1      -4.819   0.204   0.037  0.00  0.00    +0.099 C 
ATOM     12  N   UNL     1      -5.782   0.807   0.045  0.00  0.00    -0.191 NA
ENDBRANCH   4  11
ENDBRANCH   1   7
BRANCH   1  13
ATOM     13  C   UNL     1       0.457  -3.105   1.254  0.00  0.00    +0.286 C 
BRANCH  13  14
ATOM     14  C   UNL     1       1.720  -3.898   1.041  0.00  0.00    +0.097 A 
ATOM     15  C   UNL     1       2.251  -4.227  -0.158  0.00  0.00    +0.119 A 
ATOM     16  N   UNL     1       3.390  -4.944   0.088  0.00  0.00    -0.305 N 
ATOM     17  C   UNL     1       4.314  -5.521  -0.735  0.00  0.00    +0.112 A 
ATOM     18  C   UNL     1       5.370  -6.188  -0.222  0.00  0.00    +0.058 A 
ATOM     19  C   UNL     1       5.532  -6.297   1.169  0.00  0.00    +0.025 A 
ATOM     20  C   UNL     1       4.619  -5.726   2.000  0.00  0.00    +0.048 A 
ATOM     21  C   UNL     1       3.522  -5.033   1.450  0.00  0.00    +0.138 A 
ATOM     22  N   UNL     1       2.504  -4.390   2.003  0.00  0.00    -0.229 NA
ATOM     23 CL   UNL     1       6.533  -6.915  -1.287  0.00  0.00    -0.082 Cl
ENDBRANCH  13  14
ENDBRANCH   1  13
TORSDOF 5
