REMARK  Name = ZINC38600856
REMARK  5 active torsions:
REMARK  status: ('A' for Active; 'I' for Inactive)
REMARK    1  A    between atoms: C_1  and  C_2
REMARK    2  A    between atoms: C_2  and  C_4
REMARK    3  A    between atoms: C_2  and  C_21
REMARK    4  A    between atoms: C_4  and  S_5
REMARK    5  A    between atoms: S_5  and  C_6
REMARK                            x       y       z     vdW  Elec       q    Type
REMARK                         _______ _______ _______ _____ _____    ______ ____
ROOT
ATOM      1  C   UNL     1       3.189  -0.657   2.633  0.00  0.00    +0.182 C 
ATOM      2  N   UNL     1       2.409  -1.334   3.458  0.00  0.00    -0.151 NA
ATOM      3  C   UNL     1       2.854  -1.867   4.595  0.00  0.00    +0.272 C 
ATOM      4  O   UNL     1       2.106  -2.484   5.335  0.00  0.00    -0.268 OA
ATOM      5  C   UNL     1       4.302  -1.686   4.938  0.00  0.00    +0.071 C 
ATOM      6  C   UNL     1       4.968  -2.188   5.991  0.00  0.00    -0.042 C 
ATOM      7  C   UNL     1       4.375  -3.201   6.967  0.00  0.00    +0.033 C 
ATOM      8  C   UNL     1       5.330  -4.402   6.993  0.00  0.00    +0.004 C 
ATOM      9  C   UNL     1       6.755  -3.938   7.288  0.00  0.00    +0.002 C 
ATOM     10  C   UNL     1       7.272  -3.023   6.174  0.00  0.00    +0.019 C 
ATOM     11  C   UNL     1       6.420  -1.751   6.152  0.00  0.00    +0.079 C 
ATOM     12  S   UNL     1       6.714  -0.825   4.598  0.00  0.00    -0.097 S 
ATOM     13  C   UNL     1       5.066  -0.903   3.942  0.00  0.00    +0.112 C 
ATOM     14  N   UNL     1       4.485  -0.448   2.862  0.00  0.00    -0.217 NA
ENDROOT
BRANCH   1  15
ATOM     15  S   UNL     1       2.482  -0.007   1.155  0.00  0.00    -0.088 S 
BRANCH  15  16
ATOM     16  C   UNL     1       0.742  -0.511   1.242  0.00  0.00    +0.084 C 
BRANCH  16  18
ATOM     17  C   UNL     1      -0.019   1.526   0.010  0.00  0.00    +0.012 C 
ATOM     18  C   UNL     1       0.002  -0.004   0.002  0.00  0.00    +0.018 C 
BRANCH  18  19
ATOM     19  C   UNL     1      -1.412  -0.526   0.013  0.00  0.00    -0.031 C 
ATOM     20  C   UNL     1      -1.839  -1.279  -0.970  0.00  0.00    +0.004 C 
ENDBRANCH  18  19
ENDBRANCH  16  18
ENDBRANCH  15  16
ENDBRANCH   1  15
TORSDOF 4
