REMARK  Name = ZINC36545011
REMARK  12 active torsions:
REMARK  status: ('A' for Active; 'I' for Inactive)
REMARK    1  A    between atoms: C_1  and  C_2
REMARK    2  A    between atoms: C_2  and  C_3
REMARK    3  A    between atoms: C_2  and  C_4
REMARK    4  A    between atoms: C_2  and  N_5
REMARK    5  A    between atoms: C_6  and  C_8
REMARK    6  A    between atoms: C_8  and  C_10
REMARK    7  A    between atoms: C_8  and  N_22
REMARK    8  A    between atoms: C_19  and  O_20
REMARK    9  A    between atoms: O_20  and  C_21
REMARK   10  A    between atoms: N_22  and  C_23
REMARK   11  A    between atoms: C_30  and  C_32
REMARK   12  A    between atoms: C_35  and  O_38
REMARK                            x       y       z     vdW  Elec       q    Type
REMARK                         _______ _______ _______ _____ _____    ______ ____
ROOT
ATOM      1  C   UNL     1       2.995  -1.294  -2.687  0.00  0.00    +0.202 C 
ENDROOT
BRANCH   1   2
ATOM      2  C   UNL     1       3.333  -2.406  -3.646  0.00  0.00    +0.031 A 
ATOM      3  C   UNL     1       2.409  -2.796  -4.630  0.00  0.00    -0.009 A 
ATOM      4  C   UNL     1       1.158  -2.165  -4.744  0.00  0.00    +0.009 A 
ATOM      5  C   UNL     1       0.287  -2.568  -5.709  0.00  0.00    +0.001 A 
ATOM      6  C   UNL     1       0.616  -3.599  -6.588  0.00  0.00    +0.001 A 
ATOM      7  C   UNL     1       1.818  -4.232  -6.507  0.00  0.00    +0.008 A 
ATOM      8  C   UNL     1       2.744  -3.843  -5.524  0.00  0.00    -0.017 A 
ATOM      9  C   UNL     1       3.995  -4.475  -5.411  0.00  0.00    +0.012 A 
ATOM     10  C   UNL     1       4.868  -4.074  -4.448  0.00  0.00    +0.046 A 
ATOM     11  C   UNL     1       4.542  -3.038  -3.568  0.00  0.00    +0.126 A 
BRANCH  11  12
ATOM     12  O   UNL     1       5.437  -2.656  -2.620  0.00  0.00    -0.495 OA
ATOM     13  C   UNL     1       6.631  -3.433  -2.506  0.00  0.00    +0.277 C 
ENDBRANCH  11  12
ENDBRANCH   1   2
BRANCH   1  15
ATOM     14  N   UNL     1       1.489  -2.201  -0.947  0.00  0.00    -0.309 N 
ATOM     15  C   UNL     1       2.742  -1.871  -1.318  0.00  0.00    +0.239 C 
ATOM     16  O   UNL     1       3.666  -2.038  -0.550  0.00  0.00    -0.273 OA
ATOM     17  H   UNL     1       0.750  -2.067  -1.561  0.00  0.00    +0.149 HD
BRANCH  14  19
ATOM     18  C   UNL     1       1.693  -1.761   1.450  0.00  0.00    +0.031 C 
ATOM     19  C   UNL     1       1.243  -2.762   0.384  0.00  0.00    +0.026 C 
ATOM     20  C   UNL     1       2.030  -4.064   0.542  0.00  0.00    +0.031 C 
ATOM     21  C   UNL     1      -0.252  -3.046   0.549  0.00  0.00    +0.031 C 
ENDBRANCH  14  19
ENDBRANCH   1  15
BRANCH   1  22
ATOM     22  N   UNL     1       4.114  -0.351  -2.620  0.00  0.00    -0.250 N 
ATOM     23  C   UNL     1       4.562   0.244  -3.743  0.00  0.00    +0.252 C 
ATOM     24  O   UNL     1       3.994   0.053  -4.801  0.00  0.00    -0.270 OA
BRANCH  22  25
ATOM     25  C   UNL     1       4.718  -0.067  -1.390  0.00  0.00    +0.056 A 
ATOM     26  C   UNL     1       5.977  -0.576  -1.099  0.00  0.00    +0.025 A 
ATOM     27  C   UNL     1       6.570  -0.294   0.116  0.00  0.00    +0.002 A 
ATOM     28  C   UNL     1       5.912   0.493   1.043  0.00  0.00    +0.002 A 
ATOM     29  C   UNL     1       4.658   1.001   0.758  0.00  0.00    +0.022 A 
ATOM     30  C   UNL     1       4.061   0.728  -0.459  0.00  0.00    +0.062 A 
ATOM     31 CL   UNL     1       2.490   1.373  -0.820  0.00  0.00    -0.082 Cl
ENDBRANCH  22  25
BRANCH  23  32
ATOM     32  C   UNL     1       5.743   1.128  -3.690  0.00  0.00    +0.037 A 
ATOM     33  C   UNL     1       6.720   1.054  -4.686  0.00  0.00    +0.016 A 
ATOM     34  C   UNL     1       7.820   1.880  -4.633  0.00  0.00    +0.046 A 
ATOM     35  C   UNL     1       7.960   2.787  -3.589  0.00  0.00    +0.117 A 
ATOM     36  C   UNL     1       6.991   2.864  -2.596  0.00  0.00    +0.046 A 
ATOM     37  C   UNL     1       5.885   2.045  -2.645  0.00  0.00    +0.016 A 
BRANCH  35  38
ATOM     38  O   UNL     1       9.045   3.600  -3.540  0.00  0.00    -0.507 OA
ATOM     39  H   UNL     1       8.926   4.444  -3.997  0.00  0.00    +0.292 HD
ENDBRANCH  35  38
ENDBRANCH  23  32
ENDBRANCH   1  22
TORSDOF 8
