REMARK  Name = ZINC08870832
REMARK  7 active torsions:
REMARK  status: ('A' for Active; 'I' for Inactive)
REMARK    1  A    between atoms: C_7  and  N_18
REMARK    2  A    between atoms: C_9  and  S_12
REMARK    3  A    between atoms: C_10  and  O_11
REMARK    4  A    between atoms: S_12  and  C_13
REMARK    5  A    between atoms: N_18  and  S_19
REMARK    6  A    between atoms: S_19  and  C_22
REMARK    7  A    between atoms: C_26  and  N_28
REMARK                            x       y       z     vdW  Elec       q    Type
REMARK                         _______ _______ _______ _____ _____    ______ ____
ROOT
ATOM      1  C   UNL     1      -1.427   1.190   5.609  0.00  0.00    +0.001 A 
ATOM      2  C   UNL     1      -0.590   1.906   6.462  0.00  0.00    +0.001 A 
ATOM      3  C   UNL     1       0.019   3.051   6.048  0.00  0.00    +0.012 A 
ATOM      4  C   UNL     1      -0.198   3.520   4.740  0.00  0.00    +0.026 A 
ATOM      5  C   UNL     1      -1.054   2.793   3.875  0.00  0.00    +0.008 A 
ATOM      6  C   UNL     1      -1.661   1.615   4.337  0.00  0.00    +0.010 A 
ATOM      7  C   UNL     1      -1.270   3.257   2.560  0.00  0.00    +0.057 A 
ATOM      8  C   UNL     1      -0.657   4.414   2.134  0.00  0.00    +0.044 A 
ATOM      9  C   UNL     1       0.182   5.134   2.989  0.00  0.00    +0.058 A 
ATOM     10  C   UNL     1       0.415   4.699   4.280  0.00  0.00    +0.138 A 
ENDROOT
BRANCH  10  11
ATOM     11  O   UNL     1       1.235   5.409   5.102  0.00  0.00    -0.505 OA
ATOM     12  H   UNL     1       0.781   6.085   5.623  0.00  0.00    +0.292 HD
ENDBRANCH  10  11
BRANCH   7  13
ATOM     13  N   UNL     1      -2.107   2.548   1.695  0.00  0.00    -0.216 N 
ATOM     14  H   UNL     1      -3.066   2.686   1.727  0.00  0.00    +0.174 HD
BRANCH  13  15
ATOM     15  S   UNL     1      -1.460   1.472   0.615  0.00  0.00    +0.072 S 
ATOM     16  O   UNL     1      -0.415   2.155  -0.063  0.00  0.00    -0.150 OA
ATOM     17  O   UNL     1      -2.554   0.880  -0.072  0.00  0.00    -0.150 OA
BRANCH  15  18
ATOM     18  C   UNL     1      -0.699   0.188   1.551  0.00  0.00    +0.111 A 
ATOM     19  C   UNL     1       0.629   0.294   1.918  0.00  0.00    +0.030 A 
ATOM     20  C   UNL     1       1.228  -0.715   2.648  0.00  0.00    +0.024 A 
ATOM     21  C   UNL     1       0.498  -1.833   3.011  0.00  0.00    +0.071 A 
ATOM     22  C   UNL     1      -0.831  -1.939   2.644  0.00  0.00    +0.146 A 
ATOM     23  C   UNL     1      -1.429  -0.929   1.914  0.00  0.00    +0.063 A 
ATOM     24 CL   UNL     1       1.250  -3.101   3.928  0.00  0.00    -0.081 Cl
BRANCH  22  25
ATOM     25  N   UNL     1      -1.613  -3.134   3.032  0.00  0.00    +0.058 N 
ATOM     26  O   UNL     1      -2.784  -3.227   2.709  0.00  0.00    -0.126 OA
ATOM     27  O   UNL     1      -1.086  -4.024   3.675  0.00  0.00    -0.126 OA
ENDBRANCH  22  25
ENDBRANCH  15  18
ENDBRANCH  13  15
ENDBRANCH   7  13
BRANCH   9  28
ATOM     28  S   UNL     1       0.952   6.611   2.414  0.00  0.00    -0.060 S 
BRANCH  28  29
ATOM     29  C   UNL     1       2.589   6.019   2.147  0.00  0.00    +0.130 C 
ATOM     30  N   UNL     1       3.047   4.838   2.424  0.00  0.00    -0.269 NA
ATOM     31  C   UNL     1       4.416   4.464   2.153  0.00  0.00    +0.154 C 
ATOM     32  C   UNL     1       5.237   5.612   1.526  0.00  0.00    +0.099 C 
ATOM     33  S   UNL     1       3.956   6.922   1.446  0.00  0.00    -0.097 S 
ENDBRANCH  28  29
ENDBRANCH   9  28
TORSDOF 7
