REMARK  Name = ZINC09562395
REMARK  7 active torsions:
REMARK  status: ('A' for Active; 'I' for Inactive)
REMARK    1  A    between atoms: C_1  and  N_2
REMARK    2  A    between atoms: C_11  and  S_12
REMARK    3  A    between atoms: S_12  and  C_13
REMARK    4  A    between atoms: C_13  and  C_14
REMARK    5  A    between atoms: N_16  and  C_17
REMARK    6  A    between atoms: C_21  and  S_23
REMARK    7  A    between atoms: S_23  and  N_26
REMARK                            x       y       z     vdW  Elec       q    Type
REMARK                         _______ _______ _______ _____ _____    ______ ____
ROOT
ATOM      1  C   UNL     1      -4.630   1.746   0.250  0.00  0.00    +0.173 C 
ENDROOT
BRANCH   1   2
ATOM      2  C   UNL     1      -5.604   1.560  -0.886  0.00  0.00    +0.227 C 
ATOM      3  O   UNL     1      -5.240   1.031  -1.915  0.00  0.00    -0.275 OA
ATOM      4  N   UNL     1      -6.877   1.982  -0.758  0.00  0.00    -0.285 N 
ATOM      5  H   UNL     1      -7.188   2.336   0.090  0.00  0.00    +0.155 HD
BRANCH   4   6
ATOM      6  C   UNL     1      -7.750   1.911  -1.849  0.00  0.00    +0.035 A 
ATOM      7  C   UNL     1      -7.269   2.092  -3.139  0.00  0.00    +0.023 A 
ATOM      8  C   UNL     1      -8.133   2.017  -4.214  0.00  0.00    +0.004 A 
ATOM      9  C   UNL     1      -9.478   1.771  -4.006  0.00  0.00    +0.028 A 
ATOM     10  C   UNL     1      -9.961   1.595  -2.722  0.00  0.00    +0.107 A 
ATOM     11  C   UNL     1      -9.101   1.665  -1.643  0.00  0.00    +0.051 A 
BRANCH  10  12
ATOM     12  S   UNL     1     -11.676   1.283  -2.463  0.00  0.00    +0.056 S 
ATOM     13  O   UNL     1     -12.174   0.724  -3.670  0.00  0.00    -0.153 OA
ATOM     14  O   UNL     1     -11.782   0.615  -1.213  0.00  0.00    -0.153 OA
BRANCH  12  15
ATOM     15  N   UNL     1     -12.419   2.752  -2.279  0.00  0.00    -0.204 NA
ATOM     16  H   UNL     1     -13.342   2.865  -2.552  0.00  0.00    +0.144 HD
ATOM     17  H   UNL     1     -11.930   3.498  -1.898  0.00  0.00    +0.144 HD
ENDBRANCH  12  15
ENDBRANCH  10  12
ENDBRANCH   4   6
ENDBRANCH   1   2
BRANCH   1  18
ATOM     18  S   UNL     1      -3.015   1.081  -0.225  0.00  0.00    -0.078 S 
BRANCH  18  29
ATOM     19  C   UNL     1      -0.154   0.412   0.165  0.00  0.00    +0.154 C 
ATOM     20  N   UNL     1      -0.785   1.068   1.313  0.00  0.00    -0.290 N 
ATOM     21  C   UNL     1      -0.053   1.315   2.415  0.00  0.00    +0.263 A 
ATOM     22  O   UNL     1       1.123   0.997   2.461  0.00  0.00    -0.267 OA
ATOM     23  C   UNL     1      -0.675   1.957   3.533  0.00  0.00    +0.076 A 
ATOM     24  C   UNL     1      -0.076   2.320   4.819  0.00  0.00    -0.023 A 
ATOM     25  C   UNL     1      -0.879   2.923   5.719  0.00  0.00    -0.004 A 
ATOM     26  S   UNL     1      -2.457   3.044   4.921  0.00  0.00    -0.073 S 
ATOM     27  C   UNL     1      -2.033   2.280   3.376  0.00  0.00    +0.117 A 
ATOM     28  N   UNL     1      -2.700   2.008   2.260  0.00  0.00    -0.216 NA
ATOM     29  C   UNL     1      -2.101   1.421   1.243  0.00  0.00    +0.173 A 
ATOM     30  C   UNL     1      -0.510   3.389   7.095  0.00  0.00    +0.043 C 
ATOM     31  C   UNL     1       0.829   2.746   7.481  0.00  0.00    +0.005 C 
ATOM     32  C   UNL     1       1.811   2.919   6.319  0.00  0.00    +0.005 C 
ATOM     33  C   UNL     1       1.387   2.036   5.145  0.00  0.00    +0.037 C 
ENDBRANCH  18  29
ENDBRANCH   1  18
TORSDOF 6
