REMARK  Name = ZINC20832285
REMARK  10 active torsions:
REMARK  status: ('A' for Active; 'I' for Inactive)
REMARK    1  A    between atoms: C_1  and  O_2
REMARK    2  A    between atoms: O_2  and  C_3
REMARK    3  A    between atoms: C_6  and  C_9
REMARK    4  A    between atoms: N_10  and  N_11
REMARK    5  A    between atoms: C_14  and  S_18
REMARK    6  A    between atoms: S_18  and  C_19
REMARK    7  A    between atoms: C_19  and  C_20
REMARK    8  A    between atoms: N_22  and  C_23
REMARK    9  A    between atoms: C_26  and  S_29
REMARK   10  A    between atoms: S_29  and  N_32
REMARK                            x       y       z     vdW  Elec       q    Type
REMARK                         _______ _______ _______ _____ _____    ______ ____
ROOT
ATOM      1  S   UNL     1      -8.248  -9.316   0.049  0.00  0.00    -0.077 S 
ENDROOT
BRANCH   1   5
ATOM      2  N   UNL     1      -6.246  -4.566   0.084  0.00  0.00    -0.204 N 
ATOM      3  C   UNL     1      -6.300  -5.959   0.072  0.00  0.00    +0.255 A 
ATOM      4  N   UNL     1      -7.419  -6.694   0.069  0.00  0.00    -0.187 NA
ATOM      5  C   UNL     1      -7.108  -7.973   0.057  0.00  0.00    +0.186 A 
ATOM      6  N   UNL     1      -5.761  -8.075   0.053  0.00  0.00    -0.252 N 
ATOM      7  H   UNL     1      -5.241  -8.893   0.045  0.00  0.00    +0.191 HD
ATOM      8  N   UNL     1      -5.263  -6.762   0.057  0.00  0.00    -0.134 NA
ATOM      9  H   UNL     1      -7.067  -4.049   0.094  0.00  0.00    +0.177 HD
BRANCH   2  11
ATOM     10  C   UNL     1      -4.957  -2.615   0.091  0.00  0.00    +0.138 C 
ATOM     11  N   UNL     1      -5.007  -3.913   0.080  0.00  0.00    -0.188 NA
BRANCH  10  15
ATOM     12  C   UNL     1      -1.201  -0.636   0.082  0.00  0.00    +0.120 A 
ATOM     13  C   UNL     1      -2.374   0.106   0.096  0.00  0.00    +0.046 A 
ATOM     14  C   UNL     1      -3.596  -0.532   0.099  0.00  0.00    +0.013 A 
ATOM     15  C   UNL     1      -3.652  -1.928   0.087  0.00  0.00    -0.005 A 
ATOM     16  C   UNL     1      -2.469  -2.671   0.073  0.00  0.00    +0.013 A 
ATOM     17  C   UNL     1      -1.252  -2.024   0.064  0.00  0.00    +0.046 A 
BRANCH  12  19
ATOM     18  C   UNL     1      -0.018   1.426   0.098  0.00  0.00    +0.277 C 
ATOM     19  O   UNL     1       0.001  -0.003   0.079  0.00  0.00    -0.495 OA
ENDBRANCH  12  19
ENDBRANCH  10  15
ENDBRANCH   2  11
ENDBRANCH   1   5
BRANCH   1  20
ATOM     20  C   UNL     1      -9.874  -8.512   0.060  0.00  0.00    +0.173 C 
BRANCH  20  21
ATOM     21  C   UNL     1     -10.954  -9.562   0.054  0.00  0.00    +0.227 C 
ATOM     22  O   UNL     1     -10.657 -10.738   0.044  0.00  0.00    -0.275 OA
ATOM     23  N   UNL     1     -12.251  -9.195   0.060  0.00  0.00    -0.285 N 
ATOM     24  H   UNL     1     -12.490  -8.258   0.136  0.00  0.00    +0.155 HD
BRANCH  23  25
ATOM     25  C   UNL     1     -13.253 -10.166  -0.043  0.00  0.00    +0.034 A 
ATOM     26  C   UNL     1     -14.422  -9.889  -0.740  0.00  0.00    +0.025 A 
ATOM     27  C   UNL     1     -15.409 -10.849  -0.840  0.00  0.00    +0.030 A 
ATOM     28  C   UNL     1     -15.236 -12.086  -0.247  0.00  0.00    +0.106 A 
ATOM     29  C   UNL     1     -14.073 -12.365   0.449  0.00  0.00    +0.030 A 
ATOM     30  C   UNL     1     -13.079 -11.411   0.547  0.00  0.00    +0.025 A 
BRANCH  28  31
ATOM     31  S   UNL     1     -16.498 -13.309  -0.376  0.00  0.00    +0.061 S 
ATOM     32  O   UNL     1     -16.325 -14.189   0.726  0.00  0.00    -0.153 OA
ATOM     33  O   UNL     1     -17.714 -12.613  -0.613  0.00  0.00    -0.153 OA
BRANCH  31  34
ATOM     34  N   UNL     1     -16.185 -14.193  -1.741  0.00  0.00    -0.177 NA
ATOM     35  C   UNL     1     -16.684 -13.891  -3.091  0.00  0.00    +0.109 C 
ATOM     36  C   UNL     1     -16.159 -14.996  -4.031  0.00  0.00    +0.018 C 
ATOM     37  C   UNL     1     -15.864 -16.168  -3.059  0.00  0.00    +0.018 C 
ATOM     38  C   UNL     1     -15.354 -15.409  -1.805  0.00  0.00    +0.109 C 
ENDBRANCH  31  34
ENDBRANCH  28  31
ENDBRANCH  23  25
ENDBRANCH  20  21
ENDBRANCH   1  20
TORSDOF 9
