REMARK  Name = ZINC20605143
REMARK  6 active torsions:
REMARK  status: ('A' for Active; 'I' for Inactive)
REMARK    1  A    between atoms: C_1  and  C_2
REMARK    2  A    between atoms: C_2  and  C_3
REMARK    3  A    between atoms: C_3  and  N_4
REMARK    4  A    between atoms: C_7  and  C_9
REMARK    5  A    between atoms: C_10  and  C_20
REMARK    6  A    between atoms: C_12  and  C_14
REMARK                            x       y       z     vdW  Elec       q    Type
REMARK                         _______ _______ _______ _____ _____    ______ ____
ROOT
ATOM      1  N   UNL     1      -1.919  -4.506  -0.005  0.00  0.00    -0.246 N 
ATOM      2  C   UNL     1      -1.880  -3.137   0.002  0.00  0.00    +0.160 A 
ATOM      3  C   UNL     1      -3.220  -2.700   0.017  0.00  0.00    +0.053 A 
ATOM      4  C   UNL     1      -4.032  -3.858   0.019  0.00  0.00    +0.070 A 
ATOM      5  N   UNL     1      -3.260  -4.906   0.006  0.00  0.00    -0.174 NA
ATOM      6  C   UNL     1      -5.539  -3.875   0.033  0.00  0.00    +0.068 C 
ATOM      7  C   UNL     1      -3.493  -1.323   0.028  0.00  0.00    +0.069 A 
ATOM      8  C   UNL     1      -2.441  -0.452   0.024  0.00  0.00    +0.042 A 
ATOM      9  C   UNL     1      -1.131  -0.949   0.008  0.00  0.00    +0.081 A 
ATOM     10  N   UNL     1      -0.891  -2.253  -0.007  0.00  0.00    -0.227 NA
ENDROOT
BRANCH   9  11
ATOM     11  C   UNL     1       0.002  -0.004   0.002  0.00  0.00    +0.039 A 
ATOM     12  C   UNL     1       1.347  -0.269  -0.012  0.00  0.00    +0.019 A 
ATOM     13  C   UNL     1       2.229   0.788  -0.015  0.00  0.00    +0.028 A 
ATOM     14  C   UNL     1       1.742   2.058  -0.004  0.00  0.00    +0.079 A 
ATOM     15  S   UNL     1      -0.022   1.781   0.012  0.00  0.00    -0.075 S 
ATOM     16 CL   UNL     1       2.611   3.561  -0.004  0.00  0.00    -0.076 Cl
ENDBRANCH   9  11
BRANCH   7  17
ATOM     17  C   UNL     1      -4.913  -0.819   0.045  0.00  0.00    +0.418 C 
ATOM     18  F   UNL     1      -4.911   0.581   0.053  0.00  0.00    -0.166 F 
ATOM     19  F   UNL     1      -5.584  -1.277  -1.094  0.00  0.00    -0.166 F 
ATOM     20  F   UNL     1      -5.563  -1.290   1.190  0.00  0.00    -0.166 F 
ENDBRANCH   7  17
BRANCH   1  21
ATOM     21  C   UNL     1      -0.757  -5.398  -0.022  0.00  0.00    +0.145 C 
BRANCH  21  23
ATOM     22  C   UNL     1       0.875  -6.648   1.398  0.00  0.00    +0.005 C 
ATOM     23  C   UNL     1      -0.338  -5.716   1.415  0.00  0.00    +0.020 C 
ENDBRANCH  21  23
ENDBRANCH   1  21
TORSDOF 4
