REMARK  Name = ZINC24122082
REMARK  4 active torsions:
REMARK  status: ('A' for Active; 'I' for Inactive)
REMARK    1  A    between atoms: C_1  and  C_2
REMARK    2  A    between atoms: C_10  and  C_16
REMARK    3  A    between atoms: N_18  and  N_19
REMARK    4  A    between atoms: C_20  and  C_22
REMARK                            x       y       z     vdW  Elec       q    Type
REMARK                         _______ _______ _______ _____ _____    ______ ____
ROOT
ATOM      1  C   UNL     1       1.943  -5.773   0.134  0.00  0.00    +0.008 C 
ATOM      2  C   UNL     1       1.081  -4.535   0.387  0.00  0.00    -0.009 C 
ATOM      3  C   UNL     1      -0.206  -4.630  -0.438  0.00  0.00    +0.009 C 
ATOM      4  C   UNL     1      -1.175  -3.525  -0.004  0.00  0.00    +0.054 C 
ATOM      5  C   UNL     1      -0.434  -2.208  -0.004  0.00  0.00    +0.020 A 
ATOM      6  C   UNL     1       0.908  -2.107  -0.015  0.00  0.00    -0.019 A 
ATOM      7  C   UNL     1       1.237  -0.685  -0.013  0.00  0.00    +0.004 A 
ATOM      8  C   UNL     1       2.428   0.038  -0.021  0.00  0.00    +0.023 A 
ATOM      9  C   UNL     1       2.385   1.428  -0.013  0.00  0.00    +0.039 A 
ATOM     10  C   UNL     1       1.151   2.093   0.002  0.00  0.00    +0.015 A 
ATOM     11  C   UNL     1      -0.017   1.389   0.010  0.00  0.00    +0.027 A 
ATOM     12  C   UNL     1       0.002  -0.004   0.002  0.00  0.00    +0.047 A 
ATOM     13  N   UNL     1      -0.988  -0.958   0.006  0.00  0.00    -0.358 N 
ATOM     14  H   UNL     1      -2.082  -0.841   0.015  0.00  0.00    +0.166 HD
ATOM     15  C   UNL     1       1.857  -3.278  -0.026  0.00  0.00    +0.040 C 
ENDROOT
BRANCH   9  16
ATOM     16  C   UNL     1       3.641   2.205  -0.021  0.00  0.00    +0.260 C 
ATOM     17  O   UNL     1       4.712   1.629  -0.035  0.00  0.00    -0.269 OA
ATOM     18  N   UNL     1       3.600   3.552  -0.014  0.00  0.00    -0.230 N 
ATOM     19  H   UNL     1       2.631   4.073  -0.001  0.00  0.00    +0.173 HD
BRANCH  18  20
ATOM     20  N   UNL     1       4.791   4.289  -0.022  0.00  0.00    -0.229 N 
ATOM     21  C   UNL     1       4.750   5.636  -0.014  0.00  0.00    +0.276 C 
ATOM     22  O   UNL     1       3.679   6.213  -0.000  0.00  0.00    -0.267 OA
ATOM     23  H   UNL     1       5.760   3.768  -0.035  0.00  0.00    +0.173 HD
BRANCH  21  24
ATOM     24  C   UNL     1       5.998   6.408  -0.023  0.00  0.00    +0.104 A 
ATOM     25  C   UNL     1       6.106   7.783  -0.017  0.00  0.00    +0.047 A 
ATOM     26  C   UNL     1       7.471   8.088  -0.028  0.00  0.00    +0.036 A 
ATOM     27  C   UNL     1       8.158   6.920  -0.041  0.00  0.00    +0.098 A 
ATOM     28  N   UNL     1       7.274   5.892  -0.033  0.00  0.00    -0.356 N 
ATOM     29  H   UNL     1       7.426   4.802  -0.032  0.00  0.00    +0.166 HD
ATOM     30 BR   UNL     1       8.224   9.822  -0.027  0.00  0.00    -0.049 Br
ENDBRANCH  21  24
ENDBRANCH  18  20
ENDBRANCH   9  16
TORSDOF 3
