REMARK  Name = ZINC08961413
REMARK  7 active torsions:
REMARK  status: ('A' for Active; 'I' for Inactive)
REMARK    1  A    between atoms: C_1  and  C_2
REMARK    2  A    between atoms: C_2  and  C_3
REMARK    3  A    between atoms: C_2  and  C_4
REMARK    4  A    between atoms: N_6  and  C_7
REMARK    5  A    between atoms: C_10  and  S_13
REMARK    6  A    between atoms: S_13  and  N_16
REMARK    7  A    between atoms: N_16  and  C_17
REMARK                            x       y       z     vdW  Elec       q    Type
REMARK                         _______ _______ _______ _____ _____    ______ ____
ROOT
ATOM      1  N   UNL     1      -0.955   8.657   1.215  0.00  0.00    -0.216 N 
ATOM      2  H   UNL     1      -1.685   9.181   1.580  0.00  0.00    +0.174 HD
ENDROOT
BRANCH   1   3
ATOM      3  C   UNL     1       0.175   8.392   1.998  0.00  0.00    +0.049 A 
ATOM      4  C   UNL     1       1.446   8.535   1.452  0.00  0.00    +0.028 A 
ATOM      5  C   UNL     1       2.565   8.289   2.222  0.00  0.00    +0.049 A 
ATOM      6  C   UNL     1       2.430   7.885   3.543  0.00  0.00    +0.141 A 
ATOM      7  C   UNL     1       1.154   7.718   4.093  0.00  0.00    +0.081 A 
ATOM      8  C   UNL     1       0.026   7.994   3.315  0.00  0.00    +0.041 A 
ATOM      9  C   UNL     1       0.990   7.242   5.473  0.00  0.00    +0.252 C 
ATOM     10  O   UNL     1       0.075   6.472   5.695  0.00  0.00    -0.270 OA
ATOM     11  N   UNL     1       1.761   7.587   6.495  0.00  0.00    -0.278 N 
ATOM     12  C   UNL     1       2.840   8.470   6.452  0.00  0.00    +0.078 A 
ATOM     13  C   UNL     1       3.041   9.339   7.520  0.00  0.00    +0.047 A 
ATOM     14  C   UNL     1       4.129  10.190   7.529  0.00  0.00    +0.043 A 
ATOM     15  C   UNL     1       5.024  10.181   6.474  0.00  0.00    +0.024 A 
ATOM     16  C   UNL     1       4.822   9.332   5.403  0.00  0.00    +0.049 A 
ATOM     17  C   UNL     1       3.723   8.483   5.381  0.00  0.00    +0.150 A 
ATOM     18  O   UNL     1       3.534   7.687   4.300  0.00  0.00    -0.453 OA
ATOM     19 CL   UNL     1       4.374  11.271   8.865  0.00  0.00    -0.083 Cl
ATOM     20  H   UNL     1       1.556   7.186   7.355  0.00  0.00    +0.155 HD
ENDBRANCH   1   3
BRANCH   1  21
ATOM     21  S   UNL     1      -1.044   8.076  -0.333  0.00  0.00    +0.072 S 
ATOM     22  O   UNL     1       0.182   8.415  -0.965  0.00  0.00    -0.150 OA
ATOM     23  O   UNL     1      -2.305   8.485  -0.847  0.00  0.00    -0.150 OA
BRANCH  21  27
ATOM     24  C   UNL     1      -1.159   3.557  -0.063  0.00  0.00    +0.034 A 
ATOM     25  C   UNL     1       0.059   4.218  -0.156  0.00  0.00    +0.025 A 
ATOM     26  C   UNL     1       0.090   5.596  -0.243  0.00  0.00    +0.030 A 
ATOM     27  C   UNL     1      -1.089   6.318  -0.228  0.00  0.00    +0.109 A 
ATOM     28  C   UNL     1      -2.303   5.663  -0.130  0.00  0.00    +0.030 A 
ATOM     29  C   UNL     1      -2.341   4.285  -0.048  0.00  0.00    +0.025 A 
BRANCH  24  32
ATOM     30  C   UNL     1      -2.198   1.476  -0.564  0.00  0.00    +0.220 C 
ATOM     31  O   UNL     1      -3.117   2.073  -1.085  0.00  0.00    -0.275 OA
ATOM     32  N   UNL     1      -1.195   2.161   0.019  0.00  0.00    -0.285 N 
ATOM     33  H   UNL     1      -0.497   1.685   0.497  0.00  0.00    +0.155 HD
BRANCH  30  35
ATOM     34  C   UNL     1      -2.169  -0.541   0.877  0.00  0.00    +0.017 C 
ATOM     35  C   UNL     1      -2.182  -0.031  -0.565  0.00  0.00    +0.069 C 
ATOM     36  C   UNL     1      -3.429  -0.554  -1.280  0.00  0.00    +0.017 C 
ENDBRANCH  30  35
ENDBRANCH  24  32
ENDBRANCH  21  27
ENDBRANCH   1  21
TORSDOF 5
