REMARK  Name = ZINC63425439
REMARK  14 active torsions:
REMARK  status: ('A' for Active; 'I' for Inactive)
REMARK    1  A    between atoms: C_1  and  C_2
REMARK    2  A    between atoms: C_2  and  C_3
REMARK    3  A    between atoms: C_3  and  C_4
REMARK    4  A    between atoms: C_4  and  C_5
REMARK    5  A    between atoms: C_5  and  C_6
REMARK    6  A    between atoms: C_6  and  C_7
REMARK    7  A    between atoms: C_7  and  N_26
REMARK    8  A    between atoms: N_14  and  C_17
REMARK    9  A    between atoms: C_20  and  O_23
REMARK   10  A    between atoms: O_23  and  C_24
REMARK   11  A    between atoms: C_24  and  C_25
REMARK   12  A    between atoms: N_26  and  C_27
REMARK   13  A    between atoms: C_27  and  C_28
REMARK   14  A    between atoms: C_28  and  C_29
REMARK                            x       y       z     vdW  Elec       q    Type
REMARK                         _______ _______ _______ _____ _____    ______ ____
ROOT
ATOM      1  C   UNL     1      -3.893  -5.019   0.097  0.00  0.00    +0.021 C 
ATOM      2  C   UNL     1      -4.729  -5.129  -0.999  0.00  0.00    +0.116 C 
ATOM      3  C   UNL     1      -4.270  -4.776  -2.354  0.00  0.00    +0.258 C 
ATOM      4  O   UNL     1      -3.137  -4.378  -2.547  0.00  0.00    -0.270 OA
ATOM      5  N   UNL     1      -5.141  -4.908  -3.376  0.00  0.00    -0.235 N 
ATOM      6  C   UNL     1      -6.392  -5.346  -3.179  0.00  0.00    +0.320 C 
ATOM      7  O   UNL     1      -7.127  -5.442  -4.142  0.00  0.00    -0.251 OA
ATOM      8  N   UNL     1      -6.876  -5.683  -1.975  0.00  0.00    -0.190 N 
ATOM      9  C   UNL     1      -6.116  -5.608  -0.863  0.00  0.00    +0.265 C 
ATOM     10  O   UNL     1      -6.565  -5.923   0.223  0.00  0.00    -0.269 OA
ATOM     11  H   UNL     1      -4.855  -4.681  -4.275  0.00  0.00    +0.159 HD
ENDROOT
BRANCH   8  12
ATOM     12  C   UNL     1      -8.201  -6.131  -1.870  0.00  0.00    +0.046 A 
ATOM     13  C   UNL     1      -9.138  -5.373  -1.180  0.00  0.00    +0.027 A 
ATOM     14  C   UNL     1     -10.442  -5.814  -1.077  0.00  0.00    +0.047 A 
ATOM     15  C   UNL     1     -10.817  -7.014  -1.663  0.00  0.00    +0.121 A 
ATOM     16  C   UNL     1      -9.882  -7.772  -2.353  0.00  0.00    +0.047 A 
ATOM     17  C   UNL     1      -8.579  -7.329  -2.461  0.00  0.00    +0.027 A 
BRANCH  15  18
ATOM     18  O   UNL     1     -12.102  -7.448  -1.562  0.00  0.00    -0.492 OA
BRANCH  18  19
ATOM     19  C   UNL     1     -12.418  -8.692  -2.190  0.00  0.00    +0.225 C 
ATOM     20  C   UNL     1     -13.898  -9.013  -1.970  0.00  0.00    +0.048 C 
ENDBRANCH  18  19
ENDBRANCH  15  18
ENDBRANCH   8  12
BRANCH   1  21
ATOM     21  N   UNL     1      -4.289  -5.489   1.297  0.00  0.00    -0.346 N 
ATOM     22  H   UNL     1      -5.144  -5.939   1.383  0.00  0.00    +0.146 HD
BRANCH  21  23
ATOM     23  C   UNL     1      -3.430  -5.317   2.471  0.00  0.00    +0.105 C 
BRANCH  23  24
ATOM     24  C   UNL     1      -4.109  -5.935   3.695  0.00  0.00    +0.052 C 
BRANCH  24  25
ATOM     25  C   UNL     1      -3.225  -5.759   4.902  0.00  0.00    -0.040 C 
ATOM     26  C   UNL     1      -3.291  -4.769   5.821  0.00  0.00    -0.001 A 
ATOM     27  C   UNL     1      -4.172  -3.604   5.966  0.00  0.00    +0.010 A 
ATOM     28  C   UNL     1      -3.990  -2.770   7.015  0.00  0.00    +0.001 A 
ATOM     29  C   UNL     1      -2.984  -2.991   7.966  0.00  0.00    +0.002 A 
ATOM     30  C   UNL     1      -2.136  -4.039   7.901  0.00  0.00    +0.026 A 
ATOM     31  C   UNL     1      -2.237  -4.980   6.839  0.00  0.00    +0.043 A 
ATOM     32  N   UNL     1      -1.546  -6.058   6.560  0.00  0.00    -0.380 N 
ATOM     33  C   UNL     1      -2.088  -6.658   5.335  0.00  0.00    +0.144 C 
ATOM     34  H   UNL     1      -0.803  -6.404   7.078  0.00  0.00    +0.160 HD
ENDBRANCH  24  25
ENDBRANCH  23  24
ENDBRANCH  21  23
ENDBRANCH   1  21
BRANCH   1  35
ATOM     35  C   UNL     1      -2.538  -4.375  -0.050  0.00  0.00    +0.051 C 
BRANCH  35  36
ATOM     36  C   UNL     1      -1.510  -5.436  -0.450  0.00  0.00    +0.006 C 
BRANCH  36  37
ATOM     37  C   UNL     1      -0.135  -4.782  -0.599  0.00  0.00    +0.000 C 
BRANCH  37  38
ATOM     38  C   UNL     1       0.893  -5.843  -0.999  0.00  0.00    -0.000 C 
BRANCH  38  40
ATOM     39  C   UNL     1       3.296  -6.249  -1.548  0.00  0.00    +0.004 C 
ATOM     40  C   UNL     1       2.268  -5.189  -1.149  0.00  0.00    -0.003 C 
ENDBRANCH  38  40
ENDBRANCH  37  38
ENDBRANCH  36  37
ENDBRANCH  35  36
ENDBRANCH   1  35
TORSDOF 12
