REMARK  Name = ZINC09209498
REMARK  5 active torsions:
REMARK  status: ('A' for Active; 'I' for Inactive)
REMARK    1  A    between atoms: C_1  and  C_2
REMARK    2  A    between atoms: C_6  and  N_8
REMARK    3  A    between atoms: C_9  and  C_26
REMARK    4  A    between atoms: C_16  and  C_25
REMARK    5  A    between atoms: C_17  and  C_24
REMARK                            x       y       z     vdW  Elec       q    Type
REMARK                         _______ _______ _______ _____ _____    ______ ____
ROOT
ATOM      1  N   UNL     1      -1.617   3.752   7.992  0.00  0.00    -0.238 N 
ATOM      2  C   UNL     1      -0.361   3.354   7.343  0.00  0.00    +0.151 C 
ATOM      3  C   UNL     1      -0.723   2.985   5.929  0.00  0.00    +0.072 A 
ATOM      4  C   UNL     1       0.071   2.514   4.791  0.00  0.00    +0.199 A 
ATOM      5  O   UNL     1       1.275   2.347   4.876  0.00  0.00    -0.287 OA
ATOM      6  C   UNL     1      -0.660   2.252   3.535  0.00  0.00    +0.065 A 
ATOM      7  C   UNL     1      -0.003   1.802   2.391  0.00  0.00    +0.019 A 
ATOM      8  C   UNL     1      -0.718   1.572   1.248  0.00  0.00    -0.047 A 
ATOM      9  C   UNL     1      -2.089   1.789   1.222  0.00  0.00    -0.044 A 
ATOM     10  C   UNL     1      -2.755   2.228   2.345  0.00  0.00    +0.050 A 
ATOM     11  C   UNL     1      -2.048   2.469   3.520  0.00  0.00    +0.140 A 
ATOM     12  O   UNL     1      -2.683   2.904   4.624  0.00  0.00    -0.450 OA
ATOM     13  C   UNL     1      -2.061   3.157   5.792  0.00  0.00    +0.199 A 
ATOM     14  C   UNL     1      -2.604   3.636   7.087  0.00  0.00    +0.288 C 
ATOM     15  O   UNL     1      -3.774   3.888   7.299  0.00  0.00    -0.266 OA
ATOM     16  C   UNL     1      -2.858   1.536  -0.049  0.00  0.00    +0.044 C 
ATOM     17  C   UNL     1      -0.013   1.086   0.008  0.00  0.00    +0.044 C 
ENDROOT
BRANCH   1  23
ATOM     18  C   UNL     1       0.476   4.901  12.142  0.00  0.00    +0.065 C 
ATOM     19  C   UNL     1      -0.777   4.732  11.323  0.00  0.00    +0.040 A 
ATOM     20  C   UNL     1      -2.006   4.994  11.895  0.00  0.00    +0.023 A 
ATOM     21  C   UNL     1      -3.157   4.837  11.135  0.00  0.00    +0.005 A 
ATOM     22  C   UNL     1      -3.029   4.419   9.822  0.00  0.00    +0.044 A 
ATOM     23  C   UNL     1      -1.760   4.173   9.311  0.00  0.00    +0.129 A 
ATOM     24  N   UNL     1      -0.686   4.330  10.070  0.00  0.00    -0.237 NA
ENDBRANCH   1  23
BRANCH   2  25
ATOM     25  C   UNL     1       0.237   2.167   8.053  0.00  0.00    -0.021 A 
ATOM     26  C   UNL     1       1.609   2.063   8.191  0.00  0.00    +0.006 A 
ATOM     27  C   UNL     1       2.158   0.975   8.842  0.00  0.00    +0.002 A 
ATOM     28  C   UNL     1       1.336  -0.011   9.356  0.00  0.00    +0.020 A 
ATOM     29  C   UNL     1      -0.036   0.093   9.219  0.00  0.00    +0.041 A 
ATOM     30  C   UNL     1      -0.586   1.186   8.572  0.00  0.00    +0.025 A 
ATOM     31 CL   UNL     1      -1.070  -1.144   9.864  0.00  0.00    -0.084 Cl
ENDBRANCH   2  25
TORSDOF 2
