REMARK  Name = ZINC12630642
REMARK  13 active torsions:
REMARK  status: ('A' for Active; 'I' for Inactive)
REMARK    1  A    between atoms: C_1  and  C_2
REMARK    2  A    between atoms: C_2  and  O_3
REMARK    3  A    between atoms: O_3  and  C_4
REMARK    4  A    between atoms: C_4  and  C_6
REMARK    5  A    between atoms: C_7  and  C_26
REMARK    6  A    between atoms: C_10  and  N_11
REMARK    7  A    between atoms: C_12  and  C_14
REMARK    8  A    between atoms: C_14  and  N_54
REMARK    9  A    between atoms: C_15  and  N_54
REMARK   10  A    between atoms: C_16  and  C_17
REMARK   11  A    between atoms: C_16  and  N_54
REMARK   12  A    between atoms: C_17  and  O_18
REMARK   13  A    between atoms: O_18  and  C_19
REMARK                            x       y       z     vdW  Elec       q    Type
REMARK                         _______ _______ _______ _____ _____    ______ ____
ROOT
ATOM      1  N   UNL     1      -3.447   7.515  -1.554  0.00  0.00    -0.281 N 
ATOM      2  C   UNL     1      -3.729   8.810  -1.310  0.00  0.00    +0.201 C 
ATOM      3  O   UNL     1      -3.148   9.400  -0.423  0.00  0.00    -0.278 OA
ATOM      4  H   UNL     1      -3.912   7.043  -2.264  0.00  0.00    +0.155 HD
ENDROOT
BRANCH   1   9
ATOM      5  C   UNL     1      -2.073   5.538  -0.895  0.00  0.00    +0.096 A 
ATOM      6  C   UNL     1      -1.050   5.105   0.039  0.00  0.00    +0.012 A 
ATOM      7  C   UNL     1      -0.606   6.031   0.929  0.00  0.00    +0.057 A 
ATOM      8  S   UNL     1      -1.546   7.484   0.512  0.00  0.00    -0.080 S 
ATOM      9  C   UNL     1      -2.495   6.857  -0.793  0.00  0.00    +0.086 A 
BRANCH   6  10
ATOM     10  C   UNL     1      -0.523   3.725   0.027  0.00  0.00    +0.021 A 
ATOM     11  C   UNL     1       0.778   3.298   0.012  0.00  0.00    +0.016 A 
ATOM     12  C   UNL     1       1.031   1.943   0.003  0.00  0.00    +0.008 A 
ATOM     13  C   UNL     1      -0.013   1.076   0.008  0.00  0.00    +0.046 A 
ATOM     14  S   UNL     1      -1.416   2.179   0.019  0.00  0.00    -0.097 S 
ENDBRANCH   6  10
BRANCH   5  15
ATOM     15  C   UNL     1      -2.633   4.630  -1.895  0.00  0.00    +0.342 C 
ATOM     16  O   UNL     1      -3.613   3.960  -1.629  0.00  0.00    -0.245 OA
BRANCH  15  17
ATOM     17  O   UNL     1      -2.062   4.534  -3.114  0.00  0.00    -0.461 OA
BRANCH  17  19
ATOM     18  C   UNL     1      -1.881   3.656  -5.358  0.00  0.00    +0.048 C 
ATOM     19  C   UNL     1      -2.661   3.627  -4.042  0.00  0.00    +0.229 C 
ENDBRANCH  17  19
ENDBRANCH  15  17
ENDBRANCH   5  15
ENDBRANCH   1   9
BRANCH   2  20
ATOM     20  C   UNL     1      -4.765   9.526  -2.138  0.00  0.00    +0.019 C 
BRANCH  20  22
ATOM     21  C   UNL     1      -5.429  10.972  -0.313  0.00  0.00    -0.095 C 
ATOM     22  N   UNL     1      -4.860  10.927  -1.676  0.00  0.00    +0.386 N 
ATOM     23  H   UNL     1      -3.918  11.336  -1.659  0.00  0.00    -0.081 HD
BRANCH  22  24
ATOM     24  C   UNL     1      -5.706  11.707  -2.603  0.00  0.00    -0.037 C 
BRANCH  24  25
ATOM     25  C   UNL     1      -5.606  13.189  -2.233  0.00  0.00    +0.210 C 
BRANCH  25  26
ATOM     26  O   UNL     1      -4.266  13.641  -2.434  0.00  0.00    -0.494 OA
BRANCH  26  27
ATOM     27  C   UNL     1      -4.005  14.944  -2.150  0.00  0.00    +0.120 A 
ATOM     28  C   UNL     1      -5.019  15.772  -1.693  0.00  0.00    +0.047 A 
ATOM     29  C   UNL     1      -4.751  17.095  -1.401  0.00  0.00    +0.023 A 
ATOM     30  C   UNL     1      -3.474  17.597  -1.573  0.00  0.00    +0.041 A 
ATOM     31  C   UNL     1      -2.461  16.774  -2.034  0.00  0.00    +0.023 A 
ATOM     32  C   UNL     1      -2.724  15.449  -2.322  0.00  0.00    +0.047 A 
ATOM     33 CL   UNL     1      -3.140  19.262  -1.210  0.00  0.00    -0.084 Cl
ENDBRANCH  26  27
ENDBRANCH  25  26
ENDBRANCH  24  25
ENDBRANCH  22  24
ENDBRANCH  20  22
ENDBRANCH   2  20
TORSDOF 11
