REMARK  Name = ZINC49739526
REMARK  4 active torsions:
REMARK  status: ('A' for Active; 'I' for Inactive)
REMARK    1  A    between atoms: C_1  and  N_2
REMARK    2  A    between atoms: C_10  and  C_14
REMARK    3  A    between atoms: C_14  and  N_15
REMARK    4  A    between atoms: C_16  and  C_18
REMARK                            x       y       z     vdW  Elec       q    Type
REMARK                         _______ _______ _______ _____ _____    ______ ____
ROOT
ATOM      1  N   UNL     1       1.188  -3.997  -1.780  0.00  0.00    -0.311 N 
ATOM      2  C   UNL     1       1.187  -4.554  -3.008  0.00  0.00    +0.219 C 
ATOM      3  O   UNL     1       1.178  -3.848  -3.994  0.00  0.00    -0.275 OA
ATOM      4  H   UNL     1       1.195  -4.561  -0.992  0.00  0.00    +0.149 HD
ENDROOT
BRANCH   2   5
ATOM      5  C   UNL     1       1.197  -6.054  -3.155  0.00  0.00    +0.048 C 
ATOM      6  C   UNL     1      -0.045  -6.641  -2.482  0.00  0.00    +0.019 C 
ATOM      7  C   UNL     1      -0.035  -8.163  -2.631  0.00  0.00    -0.009 C 
ATOM      8  C   UNL     1      -0.038  -8.530  -4.116  0.00  0.00    +0.007 C 
ATOM      9  C   UNL     1       1.204  -7.943  -4.789  0.00  0.00    -0.009 C 
ATOM     10  C   UNL     1       1.194  -6.421  -4.640  0.00  0.00    +0.019 C 
ATOM     11  C   UNL     1       2.460  -8.512  -4.126  0.00  0.00    +0.007 C 
ATOM     12  C   UNL     1       2.463  -8.145  -2.641  0.00  0.00    -0.009 C 
ATOM     13  C   UNL     1       1.221  -8.732  -1.968  0.00  0.00    +0.007 C 
ATOM     14  C   UNL     1       2.453  -6.622  -2.491  0.00  0.00    +0.019 C 
ENDBRANCH   2   5
BRANCH   1  15
ATOM     15  C   UNL     1       1.178  -2.539  -1.638  0.00  0.00    +0.158 C 
BRANCH  15  25
ATOM     16  C   UNL     1      -0.018   1.461   0.010  0.00  0.00    +0.138 C 
ATOM     17  N   UNL     1       0.002  -0.004   0.002  0.00  0.00    -0.268 N 
ATOM     18  C   UNL     1      -1.197  -0.730   0.004  0.00  0.00    +0.078 A 
ATOM     19  C   UNL     1      -2.407  -0.091  -0.215  0.00  0.00    +0.027 A 
ATOM     20  C   UNL     1      -3.580  -0.823  -0.224  0.00  0.00    +0.002 A 
ATOM     21  C   UNL     1      -3.548  -2.190  -0.014  0.00  0.00    +0.004 A 
ATOM     22  C   UNL     1      -2.344  -2.832   0.210  0.00  0.00    +0.047 A 
ATOM     23  C   UNL     1      -1.166  -2.105   0.225  0.00  0.00    +0.143 A 
ATOM     24  O   UNL     1       0.020  -2.720   0.476  0.00  0.00    -0.476 OA
ATOM     25  C   UNL     1       1.181  -2.172  -0.152  0.00  0.00    +0.276 C 
ATOM     26  C   UNL     1       1.175  -0.671  -0.013  0.00  0.00    +0.262 C 
ATOM     27  O   UNL     1       2.221  -0.066   0.090  0.00  0.00    -0.271 OA
ENDBRANCH  15  25
ENDBRANCH   1  15
TORSDOF 3
