REMARK  Name = ZINC09094834
REMARK  9 active torsions:
REMARK  status: ('A' for Active; 'I' for Inactive)
REMARK    1  A    between atoms: C_1  and  C_2
REMARK    2  A    between atoms: C_4  and  C_29
REMARK    3  A    between atoms: C_5  and  N_9
REMARK    4  A    between atoms: C_6  and  C_8
REMARK    5  A    between atoms: C_10  and  C_12
REMARK    6  A    between atoms: C_12  and  C_14
REMARK    7  A    between atoms: C_12  and  N_15
REMARK    8  A    between atoms: N_15  and  S_16
REMARK    9  A    between atoms: S_16  and  C_19
REMARK                            x       y       z     vdW  Elec       q    Type
REMARK                         _______ _______ _______ _____ _____    ______ ____
ROOT
ATOM      1  C   UNL     1       6.121  -0.894  -0.366  0.00  0.00    +0.159 C 
ATOM      2  C   UNL     1       5.987  -2.065  -1.342  0.00  0.00    +0.035 C 
ENDROOT
BRANCH   1   4
ATOM      3  N   UNL     1       3.691  -0.753   0.074  0.00  0.00    -0.284 N 
ATOM      4  C   UNL     1       4.822  -0.132  -0.316  0.00  0.00    +0.236 C 
ATOM      5  O   UNL     1       4.794   1.040  -0.625  0.00  0.00    -0.274 OA
ATOM      6  H   UNL     1       3.725  -1.670   0.390  0.00  0.00    +0.155 HD
BRANCH   3  11
ATOM      7  C   UNL     1      -1.267   1.996  -0.134  0.00  0.00    +0.044 C 
ATOM      8  C   UNL     1       0.049   1.264  -0.075  0.00  0.00    -0.050 A 
ATOM      9  C   UNL     1       1.101   1.792   0.650  0.00  0.00    +0.008 A 
ATOM     10  C   UNL     1       2.309   1.126   0.702  0.00  0.00    -0.029 A 
ATOM     11  C   UNL     1       2.467  -0.076   0.024  0.00  0.00    +0.039 A 
ATOM     12  C   UNL     1       1.409  -0.604  -0.703  0.00  0.00    -0.029 A 
ATOM     13  C   UNL     1       0.203   0.067  -0.750  0.00  0.00    +0.008 A 
ATOM     14  C   UNL     1       1.576  -1.908  -1.440  0.00  0.00    +0.045 C 
ATOM     15  C   UNL     1       3.455   1.703   1.492  0.00  0.00    +0.045 C 
ENDBRANCH   3  11
ENDBRANCH   1   4
BRANCH   1  16
ATOM     16  N   UNL     1       7.192  -0.003  -0.817  0.00  0.00    -0.178 NA
ATOM     17  H   UNL     1       7.006   0.686  -1.474  0.00  0.00    +0.149 HD
BRANCH  16  18
ATOM     18  S   UNL     1       8.722  -0.172  -0.206  0.00  0.00    +0.059 S 
ATOM     19  O   UNL     1       9.527   0.806  -0.849  0.00  0.00    -0.153 OA
ATOM     20  O   UNL     1       8.589  -0.239   1.208  0.00  0.00    -0.153 OA
BRANCH  18  21
ATOM     21  C   UNL     1       9.322  -1.743  -0.731  0.00  0.00    +0.106 A 
ATOM     22  C   UNL     1       9.104  -2.864   0.070  0.00  0.00    +0.029 A 
ATOM     23  C   UNL     1       9.550  -4.093  -0.309  0.00  0.00    +0.010 A 
ATOM     24  C   UNL     1      10.250  -4.236  -1.519  0.00  0.00    -0.018 A 
ATOM     25  C   UNL     1      10.732  -5.487  -1.940  0.00  0.00    +0.008 A 
ATOM     26  C   UNL     1      11.406  -5.588  -3.118  0.00  0.00    +0.001 A 
ATOM     27  C   UNL     1      11.628  -4.467  -3.915  0.00  0.00    +0.001 A 
ATOM     28  C   UNL     1      11.178  -3.239  -3.539  0.00  0.00    +0.008 A 
ATOM     29  C   UNL     1      10.477  -3.096  -2.330  0.00  0.00    -0.016 A 
ATOM     30  C   UNL     1       9.996  -1.844  -1.908  0.00  0.00    +0.037 A 
ENDBRANCH  18  21
ENDBRANCH  16  18
ENDBRANCH   1  16
TORSDOF 5
