REMARK  Name = ZINC35524975
REMARK  4 active torsions:
REMARK  status: ('A' for Active; 'I' for Inactive)
REMARK    1  A    between atoms: C_1  and  C_2
REMARK    2  A    between atoms: C_11  and  N_18
REMARK    3  A    between atoms: C_13  and  C_15
REMARK    4  A    between atoms: C_24  and  C_26
REMARK                            x       y       z     vdW  Elec       q    Type
REMARK                         _______ _______ _______ _____ _____    ______ ____
ROOT
ATOM      1  C   UNL     1      -6.645  -5.967  -2.411  0.00  0.00    +0.008 C 
ATOM      2  C   UNL     1      -5.161  -6.097  -2.061  0.00  0.00    -0.009 C 
ATOM      3  C   UNL     1      -4.393  -4.899  -2.628  0.00  0.00    +0.008 C 
ATOM      4  C   UNL     1      -2.889  -5.141  -2.502  0.00  0.00    +0.037 C 
ATOM      5  C   UNL     1      -2.565  -5.499  -1.054  0.00  0.00    -0.025 A 
ATOM      6  C   UNL     1      -3.538  -5.928  -0.218  0.00  0.00    -0.004 A 
ATOM      7  S   UNL     1      -2.726  -6.222   1.333  0.00  0.00    -0.073 S 
ATOM      8  C   UNL     1      -1.087  -5.771   0.863  0.00  0.00    +0.114 A 
ATOM      9  C   UNL     1      -1.225  -5.403  -0.499  0.00  0.00    +0.051 A 
ATOM     10  C   UNL     1      -0.044  -4.980  -1.173  0.00  0.00    +0.133 A 
ATOM     11  N   UNL     1       1.071  -4.977  -0.444  0.00  0.00    -0.216 NA
ATOM     12  C   UNL     1       1.123  -5.335   0.823  0.00  0.00    +0.135 A 
ATOM     13  N   UNL     1       0.060  -5.738   1.510  0.00  0.00    -0.224 NA
ATOM     14  C   UNL     1      -4.990  -6.117  -0.536  0.00  0.00    +0.046 C 
ENDROOT
BRANCH  10  15
ATOM     15  N   UNL     1      -0.053  -4.597  -2.502  0.00  0.00    -0.312 N 
ATOM     16  C   UNL     1      -0.205  -3.183  -2.873  0.00  0.00    +0.125 C 
ATOM     17  C   UNL     1       0.974  -2.781  -3.767  0.00  0.00    +0.126 C 
ATOM     18  N   UNL     1       1.116  -3.781  -4.834  0.00  0.00    -0.298 N 
ATOM     19  C   UNL     1       1.268  -5.195  -4.464  0.00  0.00    +0.126 C 
ATOM     20  C   UNL     1       0.095  -5.597  -3.570  0.00  0.00    +0.125 C 
ATOM     21  C   UNL     1       1.107  -3.408  -6.129  0.00  0.00    +0.219 C 
ATOM     22  O   UNL     1       1.100  -2.231  -6.421  0.00  0.00    -0.275 OA
BRANCH  21  23
ATOM     23  C   UNL     1       1.105  -4.453  -7.215  0.00  0.00    +0.075 C 
ATOM     24  C   UNL     1       2.472  -5.138  -7.266  0.00  0.00    +0.013 C 
ATOM     25  C   UNL     1       2.470  -6.199  -8.368  0.00  0.00    +0.001 C 
ATOM     26  C   UNL     1       2.182  -5.535  -9.716  0.00  0.00    +0.000 C 
ATOM     27  C   UNL     1       0.814  -4.850  -9.664  0.00  0.00    +0.001 C 
ATOM     28  C   UNL     1       0.816  -3.789  -8.562  0.00  0.00    +0.013 C 
ENDBRANCH  21  23
ENDBRANCH  10  15
BRANCH  12  29
ATOM     29  C   UNL     1       2.454  -5.284   1.528  0.00  0.00    +0.057 C 
ATOM     30  C   UNL     1       2.535  -5.890   2.930  0.00  0.00    +0.012 C 
ATOM     31  C   UNL     1       2.571  -4.371   2.750  0.00  0.00    +0.012 C 
ENDBRANCH  12  29
TORSDOF 3
