REMARK  Name = ZINC09542660
REMARK  6 active torsions:
REMARK  status: ('A' for Active; 'I' for Inactive)
REMARK    1  A    between atoms: C_1  and  O_2
REMARK    2  A    between atoms: O_2  and  C_3
REMARK    3  A    between atoms: C_7  and  C_10
REMARK    4  A    between atoms: C_8  and  O_9
REMARK    5  A    between atoms: C_13  and  C_25
REMARK    6  A    between atoms: C_15  and  C_17
REMARK                            x       y       z     vdW  Elec       q    Type
REMARK                         _______ _______ _______ _____ _____    ______ ____
ROOT
ATOM      1  C   UNL     1      -2.386  -2.745  -0.851  0.00  0.00    -0.028 C 
ATOM      2  C   UNL     1      -3.215  -1.938  -1.855  0.00  0.00    +0.044 C 
ATOM      3  C   UNL     1      -3.176  -0.482  -1.482  0.00  0.00    +0.040 C 
ATOM      4  N   UNL     1      -2.321   0.008  -0.665  0.00  0.00    -0.299 NA
ATOM      5  C   UNL     1      -1.293  -0.775   0.010  0.00  0.00    +0.081 C 
ATOM      6  N   UNL     1      -1.089  -2.064  -0.668  0.00  0.00    +0.401 N 
ATOM      7  H   UNL     1      -0.658  -1.902  -1.585  0.00  0.00    -0.081 HD
ATOM      8  H   UNL     1      -0.472  -2.654  -0.099  0.00  0.00    -0.081 HD
ENDROOT
BRANCH   5   9
ATOM      9  C   UNL     1       0.002  -0.004   0.002  0.00  0.00    -0.039 A 
ATOM     10  C   UNL     1      -0.017   1.378   0.010  0.00  0.00    +0.006 A 
ATOM     11  C   UNL     1       1.170   2.087   0.002  0.00  0.00    +0.040 A 
ATOM     12  C   UNL     1       2.379   1.411  -0.013  0.00  0.00    +0.137 A 
ATOM     13  C   UNL     1       2.397   0.026  -0.021  0.00  0.00    +0.053 A 
ATOM     14  C   UNL     1       1.208  -0.680  -0.013  0.00  0.00    +0.022 A 
ATOM     15 BR   UNL     1       4.046  -0.898  -0.041  0.00  0.00    -0.047 Br
ATOM     16  F   UNL     1       3.539   2.103  -0.021  0.00  0.00    -0.204 F 
ENDBRANCH   5   9
BRANCH   3  17
ATOM     17  C   UNL     1      -4.171   0.426  -2.086  0.00  0.00    -0.004 A 
ATOM     18  C   UNL     1      -5.116  -0.070  -2.987  0.00  0.00    +0.011 A 
ATOM     19  C   UNL     1      -6.045   0.782  -3.545  0.00  0.00    +0.020 A 
ATOM     20  C   UNL     1      -6.037   2.129  -3.221  0.00  0.00    +0.041 A 
ATOM     21  C   UNL     1      -5.099   2.627  -2.332  0.00  0.00    +0.020 A 
ATOM     22  C   UNL     1      -4.167   1.784  -1.764  0.00  0.00    +0.011 A 
ATOM     23 CL   UNL     1      -7.207   3.196  -3.932  0.00  0.00    -0.084 Cl
ENDBRANCH   3  17
BRANCH   1  28
ATOM     24  C   UNL     1      -2.937  -6.376  -1.766  0.00  0.00    +0.161 A 
ATOM     25  C   UNL     1      -1.727  -6.691  -2.364  0.00  0.00    +0.049 A 
ATOM     26  C   UNL     1      -0.738  -5.732  -2.470  0.00  0.00    +0.004 A 
ATOM     27  C   UNL     1      -0.954  -4.455  -1.986  0.00  0.00    +0.006 A 
ATOM     28  C   UNL     1      -2.156  -4.136  -1.383  0.00  0.00    -0.016 A 
ATOM     29  C   UNL     1      -3.152  -5.093  -1.273  0.00  0.00    +0.160 A 
BRANCH  24  31
ATOM     30  C   UNL     1      -3.620  -8.615  -2.189  0.00  0.00    +0.277 C 
ATOM     31  O   UNL     1      -3.911  -7.319  -1.661  0.00  0.00    -0.491 OA
ENDBRANCH  24  31
BRANCH  29  32
ATOM     32  O   UNL     1      -4.337  -4.779  -0.685  0.00  0.00    -0.503 OA
ATOM     33  H   UNL     1      -5.004  -4.441  -1.299  0.00  0.00    +0.292 HD
ENDBRANCH  29  32
ENDBRANCH   1  28
TORSDOF 5
