REMARK  Name = ZINC23293125
REMARK  5 active torsions:
REMARK  status: ('A' for Active; 'I' for Inactive)
REMARK    1  A    between atoms: C_1  and  C_2
REMARK    2  A    between atoms: C_6  and  C_15
REMARK    3  A    between atoms: N_17  and  N_18
REMARK    4  A    between atoms: C_19  and  C_20
REMARK    5  A    between atoms: C_19  and  C_26
REMARK                            x       y       z     vdW  Elec       q    Type
REMARK                         _______ _______ _______ _____ _____    ______ ____
ROOT
ATOM      1  C   UNL     1      -0.962   1.796   1.304  0.00  0.00    +0.275 C 
ATOM      2  O   UNL     1      -1.276   1.065   2.220  0.00  0.00    -0.270 OA
ATOM      3  N   UNL     1      -1.196   3.121   1.388  0.00  0.00    -0.203 N 
ATOM      4  H   UNL     1      -0.911   3.784   0.558  0.00  0.00    +0.177 HD
ENDROOT
BRANCH   1  10
ATOM      5  C   UNL     1       2.695   3.318  -1.854  0.00  0.00    +0.109 C 
ATOM      6  C   UNL     1       2.510   1.839  -2.070  0.00  0.00    +0.217 C 
ATOM      7  O   UNL     1       3.056   1.290  -3.005  0.00  0.00    -0.276 OA
ATOM      8  N   UNL     1       1.739   1.125  -1.226  0.00  0.00    -0.264 N 
ATOM      9  C   UNL     1       1.129   1.748  -0.039  0.00  0.00    +0.168 C 
ATOM     10  C   UNL     1      -0.309   1.223   0.072  0.00  0.00    +0.278 C 
ATOM     11  O   UNL     1      -0.274  -0.203   0.169  0.00  0.00    -0.476 OA
ATOM     12  C   UNL     1       0.475  -0.880  -0.741  0.00  0.00    +0.143 A 
ATOM     13  C   UNL     1       1.490  -0.241  -1.448  0.00  0.00    +0.078 A 
ATOM     14  C   UNL     1       2.248  -0.945  -2.368  0.00  0.00    +0.027 A 
ATOM     15  C   UNL     1       1.994  -2.287  -2.587  0.00  0.00    +0.002 A 
ATOM     16  C   UNL     1       0.986  -2.924  -1.889  0.00  0.00    +0.004 A 
ATOM     17  C   UNL     1       0.227  -2.226  -0.968  0.00  0.00    +0.047 A 
ENDBRANCH   1  10
BRANCH   3  18
ATOM     18  N   UNL     1      -1.802   3.654   2.533  0.00  0.00    -0.179 NA
ATOM     19  C   UNL     1      -2.114   4.921   2.577  0.00  0.00    +0.096 C 
BRANCH  19  20
ATOM     20  C   UNL     1      -1.706   5.823   1.476  0.00  0.00    +0.002 A 
ATOM     21  C   UNL     1      -0.367   5.899   1.092  0.00  0.00    +0.010 A 
ATOM     22  C   UNL     1       0.005   6.737   0.061  0.00  0.00    +0.001 A 
ATOM     23  C   UNL     1      -0.945   7.508  -0.585  0.00  0.00    +0.000 A 
ATOM     24  C   UNL     1      -2.274   7.441  -0.206  0.00  0.00    +0.001 A 
ATOM     25  C   UNL     1      -2.659   6.603   0.821  0.00  0.00    +0.010 A 
ENDBRANCH  19  20
BRANCH  19  26
ATOM     26  C   UNL     1      -2.874   5.457   3.729  0.00  0.00    +0.002 A 
ATOM     27  C   UNL     1      -3.277   6.793   3.742  0.00  0.00    +0.010 A 
ATOM     28  C   UNL     1      -3.990   7.285   4.816  0.00  0.00    +0.001 A 
ATOM     29  C   UNL     1      -4.296   6.459   5.884  0.00  0.00    +0.000 A 
ATOM     30  C   UNL     1      -3.894   5.136   5.880  0.00  0.00    +0.001 A 
ATOM     31  C   UNL     1      -3.185   4.630   4.809  0.00  0.00    +0.010 A 
ENDBRANCH  19  26
ENDBRANCH   3  18
TORSDOF 4
