REMARK  Name = ZINC11640032
REMARK  3 active torsions:
REMARK  status: ('A' for Active; 'I' for Inactive)
REMARK    1  A    between atoms: C_4  and  N_7
REMARK    2  A    between atoms: N_7  and  C_8
REMARK    3  A    between atoms: C_13  and  C_14
REMARK                            x       y       z     vdW  Elec       q    Type
REMARK                         _______ _______ _______ _____ _____    ______ ____
ROOT
ATOM      1  C   UNL     1       3.702  -2.082  -0.477  0.00  0.00    +0.175 C 
ATOM      2  N   UNL     1       2.666  -2.886  -0.297  0.00  0.00    -0.152 NA
ATOM      3  C   UNL     1       2.804  -4.162  -0.014  0.00  0.00    +0.276 C 
ATOM      4  O   UNL     1       1.840  -4.894   0.149  0.00  0.00    -0.267 OA
ATOM      5  C   UNL     1       4.195  -4.665   0.095  0.00  0.00    +0.080 C 
ATOM      6  C   UNL     1       4.649  -5.912   0.371  0.00  0.00    +0.029 C 
ATOM      7  S   UNL     1       5.105  -3.163  -0.247  0.00  0.00    -0.050 S 
ENDROOT
BRANCH   6   8
ATOM      8  C   UNL     1       6.089  -6.145   0.557  0.00  0.00    -0.006 A 
ATOM      9  C   UNL     1       6.996  -5.075   0.526  0.00  0.00    +0.011 A 
ATOM     10  C   UNL     1       8.339  -5.350   0.707  0.00  0.00    +0.020 A 
ATOM     11  C   UNL     1       8.742  -6.658   0.910  0.00  0.00    +0.111 A 
ATOM     12  N   UNL     1       7.868  -7.646   0.934  0.00  0.00    -0.263 NA
ATOM     13  C   UNL     1       6.578  -7.438   0.773  0.00  0.00    +0.118 A 
ENDBRANCH   6   8
BRANCH   1  14
ATOM     14  N   UNL     1       3.699  -0.744  -0.773  0.00  0.00    -0.192 NA
BRANCH  14  18
ATOM     15  C   UNL     1       0.129   1.399  -0.691  0.00  0.00    +0.000 A 
ATOM     16  C   UNL     1       0.250   0.231   0.040  0.00  0.00    +0.002 A 
ATOM     17  C   UNL     1       1.432  -0.482   0.015  0.00  0.00    +0.025 A 
ATOM     18  C   UNL     1       2.501  -0.025  -0.746  0.00  0.00    +0.056 A 
ATOM     19  C   UNL     1       2.376   1.148  -1.479  0.00  0.00    +0.025 A 
ATOM     20  C   UNL     1       1.191   1.857  -1.449  0.00  0.00    +0.002 A 
ENDBRANCH  14  18
ENDBRANCH   1  14
TORSDOF 3
