REMARK  Name = ZINC24923574
REMARK  9 active torsions:
REMARK  status: ('A' for Active; 'I' for Inactive)
REMARK    1  A    between atoms: C_1  and  C_2
REMARK    2  A    between atoms: C_3  and  C_14
REMARK    3  A    between atoms: C_4  and  C_13
REMARK    4  A    between atoms: C_8  and  C_12
REMARK    5  A    between atoms: N_10  and  C_11
REMARK    6  A    between atoms: C_14  and  C_15
REMARK    7  A    between atoms: C_15  and  C_16
REMARK    8  A    between atoms: C_20  and  C_27
REMARK    9  A    between atoms: C_23  and  C_26
REMARK                            x       y       z     vdW  Elec       q    Type
REMARK                         _______ _______ _______ _____ _____    ______ ____
ROOT
ATOM      1  C   UNL     1       2.653  -0.058  -6.678  0.00  0.00    +0.045 C 
ATOM      2  C   UNL     1       1.898   1.246  -6.689  0.00  0.00    -0.033 A 
ATOM      3  C   UNL     1       1.945   2.096  -5.615  0.00  0.00    -0.022 A 
ATOM      4  C   UNL     1       1.244   3.293  -5.655  0.00  0.00    +0.044 A 
ATOM      5  N   UNL     1       0.526   3.635  -6.703  0.00  0.00    -0.232 NA
ATOM      6  C   UNL     1       0.439   2.850  -7.770  0.00  0.00    +0.159 A 
ATOM      7  C   UNL     1       1.126   1.620  -7.794  0.00  0.00    +0.045 A 
ATOM      8  C   UNL     1       0.829   1.006  -9.084  0.00  0.00    +0.069 A 
ATOM      9  N   UNL     1       0.043   1.815  -9.734  0.00  0.00    -0.174 NA
ATOM     10  N   UNL     1      -0.219   2.954  -8.965  0.00  0.00    -0.249 N 
ATOM     11  C   UNL     1      -1.063   4.079  -9.375  0.00  0.00    +0.174 C 
ATOM     12  C   UNL     1       1.340  -0.324  -9.574  0.00  0.00    +0.068 C 
ATOM     13  C   UNL     1       1.308   4.223  -4.472  0.00  0.00    +0.066 C 
ENDROOT
BRANCH   3  14
ATOM     14  C   UNL     1       2.759   1.736  -4.399  0.00  0.00    +0.046 C 
BRANCH  14  15
ATOM     15  C   UNL     1       1.885   0.960  -3.411  0.00  0.00    +0.100 C 
BRANCH  15  16
ATOM     16  C   UNL     1       2.699   0.600  -2.195  0.00  0.00    +0.216 C 
ATOM     17  O   UNL     1       3.863   0.931  -2.125  0.00  0.00    -0.276 OA
ATOM     18  N   UNL     1       2.132  -0.090  -1.185  0.00  0.00    -0.301 N 
ATOM     19  C   UNL     1       2.913  -0.449   0.007  0.00  0.00    +0.111 C 
ATOM     20  C   UNL     1       2.167   0.045   1.251  0.00  0.00    +0.004 C 
ATOM     21  C   UNL     1       0.742  -0.512   1.242  0.00  0.00    +0.009 C 
ATOM     22  C   UNL     1       0.002  -0.004   0.002  0.00  0.00    +0.004 C 
ATOM     23  C   UNL     1       0.723  -0.499  -1.256  0.00  0.00    +0.111 C 
ATOM     24  C   UNL     1      -0.019   1.526   0.010  0.00  0.00    +0.009 C 
ATOM     25  C   UNL     1       2.896  -0.436   2.507  0.00  0.00    +0.009 C 
ENDBRANCH  15  16
ENDBRANCH  14  15
ENDBRANCH   3  14
TORSDOF 3
