REMARK  Name = ZINC40547750
REMARK  12 active torsions:
REMARK  status: ('A' for Active; 'I' for Inactive)
REMARK    1  A    between atoms: C_1  and  C_2
REMARK    2  A    between atoms: C_2  and  C_3
REMARK    3  A    between atoms: C_3  and  C_4
REMARK    4  A    between atoms: C_4  and  O_5
REMARK    5  A    between atoms: O_5  and  C_6
REMARK    6  A    between atoms: C_9  and  C_15
REMARK    7  A    between atoms: C_11  and  O_12
REMARK    8  A    between atoms: O_12  and  C_13
REMARK    9  A    between atoms: C_13  and  C_14
REMARK   10  A    between atoms: C_18  and  C_34
REMARK   11  A    between atoms: N_25  and  C_26
REMARK   12  A    between atoms: C_39  and  O_40
REMARK                            x       y       z     vdW  Elec       q    Type
REMARK                         _______ _______ _______ _____ _____    ______ ____
ROOT
ATOM      1  C   UNL     1       1.591  -7.742   2.798  0.00  0.00    +0.142 C 
ATOM      2  C   UNL     1       0.511  -8.505   3.514  0.00  0.00    +0.035 A 
ATOM      3  C   UNL     1      -0.234  -8.675   4.687  0.00  0.00    +0.102 A 
ATOM      4  N   UNL     1      -1.075  -9.669   4.479  0.00  0.00    -0.173 NA
ATOM      5  N   UNL     1      -0.935 -10.143   3.292  0.00  0.00    -0.272 N 
ATOM      6  H   UNL     1      -1.450 -10.877   2.922  0.00  0.00    +0.189 HD
ATOM      7  C   UNL     1       0.044  -9.459   2.630  0.00  0.00    +0.126 A 
ATOM      8  C   UNL     1       0.788  -9.333   1.372  0.00  0.00    +0.266 C 
ATOM      9  O   UNL     1       0.615 -10.029   0.390  0.00  0.00    -0.268 OA
ATOM     10  N   UNL     1       1.692  -8.338   1.459  0.00  0.00    -0.280 N 
ENDROOT
BRANCH  10  11
ATOM     11  C   UNL     1       2.615  -7.920   0.401  0.00  0.00    +0.100 C 
ATOM     12  C   UNL     1       3.516  -9.105   0.013  0.00  0.00    +0.047 C 
ATOM     13  C   UNL     1       4.257  -8.738  -1.304  0.00  0.00    +0.168 C 
ATOM     14  S   UNL     1       2.901  -7.908  -2.235  0.00  0.00    -0.029 S 
ATOM     15  O   UNL     1       3.408  -6.723  -2.833  0.00  0.00    -0.174 OA
ATOM     16  O   UNL     1       2.238  -8.870  -3.043  0.00  0.00    -0.174 OA
ATOM     17  C   UNL     1       1.806  -7.449  -0.831  0.00  0.00    +0.188 C 
ENDBRANCH  10  11
BRANCH   1  21
ATOM     18  C   UNL     1       0.530  -3.611   2.498  0.00  0.00    +0.162 A 
ATOM     19  C   UNL     1       1.583  -4.001   3.310  0.00  0.00    +0.050 A 
ATOM     20  C   UNL     1       1.923  -5.338   3.405  0.00  0.00    +0.009 A 
ATOM     21  C   UNL     1       1.216  -6.287   2.691  0.00  0.00    -0.019 A 
ATOM     22  C   UNL     1       0.165  -5.904   1.879  0.00  0.00    +0.055 A 
ATOM     23  C   UNL     1      -0.186  -4.566   1.784  0.00  0.00    +0.162 A 
BRANCH  18  24
ATOM     24  O   UNL     1       0.194  -2.296   2.404  0.00  0.00    -0.488 OA
BRANCH  24  25
ATOM     25  C   UNL     1       0.972  -1.371   3.166  0.00  0.00    +0.229 C 
BRANCH  25  26
ATOM     26  C   UNL     1       0.449   0.048   2.934  0.00  0.00    +0.041 C 
BRANCH  26  28
ATOM     27  C   UNL     1       0.760   2.457   3.517  0.00  0.00    +0.004 C 
ATOM     28  C   UNL     1       1.283   1.038   3.749  0.00  0.00    -0.000 C 
ENDBRANCH  26  28
ENDBRANCH  25  26
ENDBRANCH  24  25
ENDBRANCH  18  24
BRANCH  23  29
ATOM     29  O   UNL     1      -1.223  -4.188   0.990  0.00  0.00    -0.489 OA
BRANCH  29  30
ATOM     30  C   UNL     1      -1.912  -5.224   0.287  0.00  0.00    +0.226 C 
ATOM     31  C   UNL     1      -3.039  -4.611  -0.547  0.00  0.00    +0.048 C 
ENDBRANCH  29  30
ENDBRANCH  23  29
ENDBRANCH   1  21
BRANCH   3  32
ATOM     32  C   UNL     1      -0.100  -7.883   5.935  0.00  0.00    +0.044 A 
ATOM     33  C   UNL     1       0.917  -6.940   6.059  0.00  0.00    +0.014 A 
ATOM     34  C   UNL     1       1.037  -6.206   7.222  0.00  0.00    +0.001 A 
ATOM     35  C   UNL     1       0.149  -6.403   8.265  0.00  0.00    +0.004 A 
ATOM     36  C   UNL     1      -0.863  -7.336   8.152  0.00  0.00    +0.046 A 
ATOM     37  C   UNL     1      -0.999  -8.076   6.988  0.00  0.00    +0.126 A 
BRANCH  37  38
ATOM     38  O   UNL     1      -1.998  -8.989   6.873  0.00  0.00    -0.506 OA
ATOM     39  H   UNL     1      -1.758  -9.875   7.177  0.00  0.00    +0.292 HD
ENDBRANCH  37  38
ENDBRANCH   3  32
TORSDOF 10
