REMARK  Name = ZINC20494514
REMARK  8 active torsions:
REMARK  status: ('A' for Active; 'I' for Inactive)
REMARK    1  A    between atoms: C_4  and  O_31
REMARK    2  A    between atoms: C_5  and  C_7
REMARK    3  A    between atoms: N_8  and  N_9
REMARK    4  A    between atoms: C_12  and  S_15
REMARK    5  A    between atoms: S_15  and  C_16
REMARK    6  A    between atoms: C_16  and  C_17
REMARK    7  A    between atoms: N_19  and  C_20
REMARK    8  A    between atoms: C_21  and  C_29
REMARK                            x       y       z     vdW  Elec       q    Type
REMARK                         _______ _______ _______ _____ _____    ______ ____
ROOT
ATOM      1  N   UNL     1      -1.150   2.163   0.019  0.00  0.00    -0.205 N 
ATOM      2  C   UNL     1      -0.017   1.363   0.009  0.00  0.00    +0.232 A 
ATOM      3  N   UNL     1       0.002  -0.004   0.002  0.00  0.00    -0.186 NA
ATOM      4  C   UNL     1       1.307  -0.408  -0.013  0.00  0.00    +0.211 A 
ATOM      5  N   UNL     1       2.063   0.663  -0.014  0.00  0.00    -0.144 NA
ATOM      6  N   UNL     1       1.225   1.785   0.000  0.00  0.00    -0.245 N 
ATOM      7  H   UNL     1      -2.148   1.702   0.022  0.00  0.00    +0.177 HD
ATOM      8  H   UNL     1       1.439   2.864   0.004  0.00  0.00    +0.192 HD
ENDROOT
BRANCH   1  10
ATOM      9  C   UNL     1      -2.083   4.307   0.036  0.00  0.00    +0.142 C 
ATOM     10  N   UNL     1      -1.022   3.558   0.026  0.00  0.00    -0.187 NA
BRANCH   9  15
ATOM     11  C   UNL     1      -2.955   7.957   0.059  0.00  0.00    +0.001 A 
ATOM     12  C   UNL     1      -1.698   8.537   0.056  0.00  0.00    +0.004 A 
ATOM     13  C   UNL     1      -0.563   7.747   0.046  0.00  0.00    +0.046 A 
ATOM     14  C   UNL     1      -0.678   6.366   0.040  0.00  0.00    +0.125 A 
ATOM     15  C   UNL     1      -1.949   5.775   0.043  0.00  0.00    +0.036 A 
ATOM     16  C   UNL     1      -3.087   6.584   0.047  0.00  0.00    +0.013 A 
BRANCH  14  17
ATOM     17  O   UNL     1       0.436   5.589   0.031  0.00  0.00    -0.506 OA
ATOM     18  H   UNL     1       0.342   4.493   0.026  0.00  0.00    +0.292 HD
ENDBRANCH  14  17
ENDBRANCH   9  15
ENDBRANCH   1  10
BRANCH   4  19
ATOM     19  S   UNL     1       1.874  -2.077  -0.026  0.00  0.00    -0.075 S 
BRANCH  19  20
ATOM     20  C   UNL     1       3.681  -1.926  -0.043  0.00  0.00    +0.173 C 
BRANCH  20  21
ATOM     21  C   UNL     1       4.300  -3.300  -0.056  0.00  0.00    +0.228 C 
ATOM     22  O   UNL     1       3.591  -4.284  -0.053  0.00  0.00    -0.275 OA
ATOM     23  N   UNL     1       5.641  -3.435  -0.069  0.00  0.00    -0.278 N 
ATOM     24  H   UNL     1       6.284  -2.542  -0.071  0.00  0.00    +0.155 HD
BRANCH  23  25
ATOM     25  C   UNL     1       6.211  -4.701  -0.081  0.00  0.00    +0.090 A 
ATOM     26  C   UNL     1       7.555  -5.040  -0.101  0.00  0.00    +0.084 A 
ATOM     27  C   UNL     1       7.892  -6.453  -0.106  0.00  0.00    -0.018 A 
ATOM     28  C   UNL     1       6.836  -7.296  -0.100  0.00  0.00    -0.004 A 
ATOM     29  S   UNL     1       5.415  -6.240  -0.081  0.00  0.00    -0.077 S 
ATOM     30  C   UNL     1       6.875  -8.793  -0.109  0.00  0.00    +0.043 C 
ATOM     31  C   UNL     1       8.291  -9.237  -0.504  0.00  0.00    +0.005 C 
ATOM     32  C   UNL     1       9.306  -8.447   0.327  0.00  0.00    +0.005 C 
ATOM     33  C   UNL     1       9.320  -6.984  -0.122  0.00  0.00    +0.037 C 
BRANCH  26  34
ATOM     34  C   UNL     1       8.575  -4.034  -0.113  0.00  0.00    +0.102 C 
ATOM     35  N   UNL     1       9.383  -3.236  -0.122  0.00  0.00    -0.191 NA
ENDBRANCH  26  34
ENDBRANCH  23  25
ENDBRANCH  20  21
ENDBRANCH  19  20
ENDBRANCH   4  19
TORSDOF 8
