REMARK  Name = ZINC43742745
REMARK  6 active torsions:
REMARK  status: ('A' for Active; 'I' for Inactive)
REMARK    1  A    between atoms: C_1  and  C_2
REMARK    2  A    between atoms: C_7  and  C_29
REMARK    3  A    between atoms: C_18  and  C_20
REMARK    4  A    between atoms: C_20  and  N_21
REMARK    5  A    between atoms: N_21  and  C_22
REMARK    6  A    between atoms: C_22  and  C_23
REMARK                            x       y       z     vdW  Elec       q    Type
REMARK                         _______ _______ _______ _____ _____    ______ ____
ROOT
ATOM      1  C   UNL     1      -0.019   1.526   0.010  0.00  0.00    +0.012 C 
ATOM      2  C   UNL     1       0.002  -0.004   0.002  0.00  0.00    +0.012 C 
ATOM      3  C   UNL     1       0.751  -0.514  -1.240  0.00  0.00    +0.007 C 
ATOM      4  C   UNL     1       0.883  -2.035  -1.196  0.00  0.00    +0.001 C 
ATOM      5  C   UNL     1       1.676  -2.483   0.038  0.00  0.00    +0.011 C 
ATOM      6  C   UNL     1       0.928  -2.018   1.281  0.00  0.00    -0.007 C 
ATOM      7  C   UNL     1       0.766  -0.522   1.211  0.00  0.00    -0.064 C 
ATOM      8  C   UNL     1       1.241   0.286   2.092  0.00  0.00    -0.019 C 
ATOM      9  C   UNL     1       2.109  -0.107   3.252  0.00  0.00    +0.064 C 
ATOM     10  C   UNL     1       2.603  -1.557   3.091  0.00  0.00    +0.185 C 
ATOM     11  C   UNL     1       1.535  -2.477   2.582  0.00  0.00    +0.056 C 
ATOM     12  O   UNL     1       3.698  -1.467   2.177  0.00  0.00    -0.461 OA
ATOM     13  C   UNL     1       4.366  -0.322   2.407  0.00  0.00    +0.309 C 
ATOM     14  O   UNL     1       5.517  -0.113   2.104  0.00  0.00    -0.251 OA
ATOM     15  C   UNL     1       3.443   0.681   3.114  0.00  0.00    +0.091 C 
ATOM     16  C   UNL     1      -0.480  -2.611   1.206  0.00  0.00    +0.016 C 
ENDROOT
BRANCH  15  17
ATOM     17  C   UNL     1       3.994   1.049   4.493  0.00  0.00    -0.067 C 
BRANCH  17  18
ATOM     18  N   UNL     1       5.186   1.892   4.335  0.00  0.00    +0.382 N 
ATOM     19  H   UNL     1       5.889   1.387   3.816  0.00  0.00    -0.085 HD
ATOM     20  H   UNL     1       4.940   2.733   3.836  0.00  0.00    -0.085 HD
BRANCH  18  21
ATOM     21  C   UNL     1       5.715   2.245   5.659  0.00  0.00    -0.047 C 
BRANCH  21  22
ATOM     22  C   UNL     1       6.939   3.110   5.497  0.00  0.00    -0.062 A 
ATOM     23  C   UNL     1       8.201   2.544   5.400  0.00  0.00    +0.021 A 
ATOM     24  C   UNL     1       9.300   3.369   5.252  0.00  0.00    +0.111 A 
ATOM     25  N   UNL     1       9.158   4.679   5.203  0.00  0.00    -0.263 NA
ATOM     26  C   UNL     1       7.974   5.252   5.291  0.00  0.00    +0.111 A 
ATOM     27  C   UNL     1       6.829   4.491   5.434  0.00  0.00    +0.021 A 
ENDBRANCH  21  22
ENDBRANCH  18  21
ENDBRANCH  17  18
ENDBRANCH  15  17
TORSDOF 4
