REMARK  Name = ZINC40691191
REMARK  7 active torsions:
REMARK  status: ('A' for Active; 'I' for Inactive)
REMARK    1  A    between atoms: C_1  and  C_2
REMARK    2  A    between atoms: C_2  and  C_3
REMARK    3  A    between atoms: C_3  and  O_4
REMARK    4  A    between atoms: O_4  and  C_5
REMARK    5  A    between atoms: C_8  and  C_12
REMARK    6  A    between atoms: C_10  and  N_11
REMARK    7  A    between atoms: C_18  and  C_22
REMARK                            x       y       z     vdW  Elec       q    Type
REMARK                         _______ _______ _______ _____ _____    ______ ____
ROOT
ATOM      1  C   UNL     1      -6.383  -4.573   0.040  0.00  0.00    +0.169 A 
ATOM      2  N   UNL     1      -6.616  -5.820  -0.317  0.00  0.00    -0.128 NA
ATOM      3  N   UNL     1      -7.867  -6.092  -0.186  0.00  0.00    -0.128 NA
ATOM      4  C   UNL     1      -8.511  -5.027   0.266  0.00  0.00    +0.180 A 
ATOM      5  N   UNL     1      -7.579  -4.031   0.427  0.00  0.00    -0.281 N 
ATOM      6  C   UNL     1      -7.950  -2.804   0.891  0.00  0.00    +0.107 A 
ATOM      7  C   UNL     1      -9.238  -2.549   1.201  0.00  0.00    +0.073 A 
ATOM      8  C   UNL     1     -10.216  -3.547   1.050  0.00  0.00    +0.037 A 
ATOM      9  C   UNL     1      -9.861  -4.775   0.580  0.00  0.00    +0.086 A 
ATOM     10 CL   UNL     1     -11.054  -6.021   0.390  0.00  0.00    -0.080 Cl
ENDROOT
BRANCH   1  14
ATOM     11  C   UNL     1      -2.617  -2.596   0.013  0.00  0.00    +0.141 A 
ATOM     12  C   UNL     1      -3.789  -1.856   0.025  0.00  0.00    +0.048 A 
ATOM     13  C   UNL     1      -5.013  -2.494   0.033  0.00  0.00    +0.015 A 
ATOM     14  C   UNL     1      -5.073  -3.889   0.030  0.00  0.00    +0.022 A 
ATOM     15  C   UNL     1      -3.894  -4.636   0.018  0.00  0.00    +0.038 A 
ATOM     16  C   UNL     1      -2.670  -3.990   0.004  0.00  0.00    +0.068 A 
BRANCH  16  17
ATOM     17  N   UNL     1      -1.485  -4.735  -0.014  0.00  0.00    -0.355 N 
ATOM     18  H   UNL     1      -0.627  -4.282  -0.020  0.00  0.00    +0.142 HD
ATOM     19  H   UNL     1      -1.522  -5.704  -0.020  0.00  0.00    +0.142 HD
ENDBRANCH  16  17
BRANCH  11  20
ATOM     20  O   UNL     1      -1.414  -1.962   0.005  0.00  0.00    -0.490 OA
BRANCH  20  21
ATOM     21  C   UNL     1      -1.433  -0.534   0.015  0.00  0.00    +0.229 C 
BRANCH  21  23
ATOM     22  C   UNL     1      -0.019   1.526   0.015  0.00  0.00    +0.007 C 
ATOM     23  C   UNL     1       0.002  -0.004   0.004  0.00  0.00    +0.038 C 
ENDBRANCH  21  23
ENDBRANCH  20  21
ENDBRANCH  11  20
ENDBRANCH   1  14
BRANCH   7  24
ATOM     24  C   UNL     1      -9.631  -1.187   1.713  0.00  0.00    +0.419 C 
ATOM     25  F   UNL     1     -10.079  -0.400   0.647  0.00  0.00    -0.166 F 
ATOM     26  F   UNL     1     -10.655  -1.321   2.657  0.00  0.00    -0.166 F 
ATOM     27  F   UNL     1      -8.523  -0.576   2.310  0.00  0.00    -0.166 F 
ENDBRANCH   7  24
TORSDOF 6
