REMARK  Name = ZINC16427892
REMARK  6 active torsions:
REMARK  status: ('A' for Active; 'I' for Inactive)
REMARK    1  A    between atoms: C_3  and  S_27
REMARK    2  A    between atoms: C_6  and  N_7
REMARK    3  A    between atoms: N_7  and  N_8
REMARK    4  A    between atoms: C_9  and  C_10
REMARK    5  A    between atoms: C_12  and  C_17
REMARK    6  A    between atoms: C_15  and  O_16
REMARK                            x       y       z     vdW  Elec       q    Type
REMARK                         _______ _______ _______ _____ _____    ______ ____
ROOT
ATOM      1  C   UNL     1      -2.267  -4.260   0.002  0.00  0.00    +0.036 A 
ATOM      2  C   UNL     1      -3.463  -4.981   0.004  0.00  0.00    +0.017 A 
ATOM      3  C   UNL     1      -3.436  -6.359  -0.004  0.00  0.00    -0.040 A 
ATOM      4  C   UNL     1      -2.227  -7.033  -0.015  0.00  0.00    +0.008 A 
ATOM      5  C   UNL     1      -1.035  -6.332  -0.017  0.00  0.00    +0.046 A 
ATOM      6  C   UNL     1      -1.045  -4.947  -0.014  0.00  0.00    +0.125 A 
ENDROOT
BRANCH   3   7
ATOM      7  C   UNL     1      -4.727  -7.136  -0.001  0.00  0.00    -0.003 C 
ATOM      8  C   UNL     1      -5.543  -6.773  -1.244  0.00  0.00    +0.015 C 
ATOM      9  C   UNL     1      -6.854  -7.562  -1.241  0.00  0.00    -0.010 C 
ATOM     10  C   UNL     1      -6.548  -9.061  -1.251  0.00  0.00    +0.007 C 
ATOM     11  C   UNL     1      -5.732  -9.423  -0.009  0.00  0.00    -0.010 C 
ATOM     12  C   UNL     1      -4.421  -8.635  -0.012  0.00  0.00    +0.015 C 
ATOM     13  C   UNL     1      -6.534  -9.075   1.247  0.00  0.00    +0.007 C 
ATOM     14  C   UNL     1      -6.840  -7.576   1.257  0.00  0.00    -0.010 C 
ATOM     15  C   UNL     1      -7.656  -7.214   0.015  0.00  0.00    +0.007 C 
ATOM     16  C   UNL     1      -5.529  -6.788   1.254  0.00  0.00    +0.015 C 
ENDBRANCH   3   7
BRANCH   1  18
ATOM     17  N   UNL     1      -1.175  -2.120   0.002  0.00  0.00    -0.190 NA
ATOM     18  C   UNL     1      -2.289  -2.787   0.010  0.00  0.00    +0.141 C 
BRANCH  17  19
ATOM     19  N   UNL     1      -1.196  -0.720   0.010  0.00  0.00    -0.238 N 
ATOM     20  H   UNL     1      -2.043  -0.247   0.021  0.00  0.00    +0.174 HD
BRANCH  19  26
ATOM     21  C   UNL     1      -0.017   1.386   0.010  0.00  0.00    +0.026 A 
ATOM     22  C   UNL     1       1.171   2.091   0.002  0.00  0.00    +0.031 A 
ATOM     23  C   UNL     1       2.377   1.415  -0.013  0.00  0.00    +0.120 A 
ATOM     24  C   UNL     1       2.400   0.033  -0.021  0.00  0.00    +0.031 A 
ATOM     25  C   UNL     1       1.217  -0.679  -0.014  0.00  0.00    +0.026 A 
ATOM     26  C   UNL     1       0.002  -0.004   0.002  0.00  0.00    +0.048 A 
BRANCH  23  27
ATOM     27  S   UNL     1       3.890   2.319  -0.023  0.00  0.00    +0.140 S 
ATOM     28  O   UNL     1       4.864   1.505  -0.732  0.00  0.00    -0.140 OA
ATOM     29  O   UNL     1       3.628   3.575  -0.709  0.00  0.00    -0.140 OA
ATOM     30  O   UNL     1       4.266   2.529   1.367  0.00  0.00    -0.043 OA
ENDBRANCH  23  27
ENDBRANCH  19  26
ENDBRANCH  17  19
ENDBRANCH   1  18
BRANCH   6  31
ATOM     31  O   UNL     1       0.125  -4.256  -0.022  0.00  0.00    -0.506 OA
ATOM     32  H   UNL     1       0.472  -4.061   0.859  0.00  0.00    +0.292 HD
ENDBRANCH   6  31
TORSDOF 6
