REMARK  Name = ZINC38081498
REMARK  5 active torsions:
REMARK  status: ('A' for Active; 'I' for Inactive)
REMARK    1  A    between atoms: C_3  and  O_11
REMARK    2  A    between atoms: C_4  and  N_8
REMARK    3  A    between atoms: O_11  and  C_12
REMARK    4  A    between atoms: C_17  and  C_18
REMARK    5  A    between atoms: C_18  and  N_19
REMARK                            x       y       z     vdW  Elec       q    Type
REMARK                         _______ _______ _______ _____ _____    ______ ____
ROOT
ATOM      1  C   UNL     1       3.380   3.453  -0.005  0.00  0.00    +0.131 A 
ATOM      2  C   UNL     1       2.104   3.993   0.075  0.00  0.00    +0.061 A 
ATOM      3  C   UNL     1       1.935   5.364   0.092  0.00  0.00    +0.021 A 
ATOM      4  C   UNL     1       3.038   6.199   0.028  0.00  0.00    +0.016 A 
ATOM      5  C   UNL     1       4.309   5.662  -0.052  0.00  0.00    +0.006 A 
ATOM      6  C   UNL     1       4.483   4.292  -0.063  0.00  0.00    -0.023 A 
ATOM      7 BR   UNL     1       0.197   6.101   0.201  0.00  0.00    -0.050 Br
ENDROOT
BRANCH   1   8
ATOM      8  O   UNL     1       3.549   2.105  -0.021  0.00  0.00    -0.453 OA
BRANCH   8  11
ATOM      9  C   UNL     1       3.967   1.551   3.551  0.00  0.00    +0.024 A 
ATOM     10  C   UNL     1       3.731   2.192   2.349  0.00  0.00    +0.050 A 
ATOM     11  C   UNL     1       3.781   1.477   1.162  0.00  0.00    +0.159 A 
ATOM     12  C   UNL     1       4.068   0.119   1.183  0.00  0.00    +0.170 A 
ATOM     13  C   UNL     1       4.304  -0.517   2.386  0.00  0.00    +0.056 A 
ATOM     14  C   UNL     1       4.253   0.198   3.570  0.00  0.00    +0.043 A 
ATOM     15 CL   UNL     1       4.551  -0.604   5.080  0.00  0.00    -0.083 Cl
BRANCH  12  16
ATOM     16  N   UNL     1       4.121  -0.646  -0.083  0.00  0.00    +0.060 N 
ATOM     17  O   UNL     1       4.372  -1.829  -0.064  0.00  0.00    -0.126 OA
ATOM     18  O   UNL     1       3.915  -0.089  -1.136  0.00  0.00    -0.126 OA
ENDBRANCH  12  16
ENDBRANCH   8  11
ENDBRANCH   1   8
BRANCH   6  19
ATOM     19  C   UNL     1       5.870   3.709  -0.144  0.00  0.00    -0.047 C 
BRANCH  19  20
ATOM     20  N   UNL     1       6.151   3.304  -1.528  0.00  0.00    +0.381 N 
ATOM     21  H   UNL     1       7.080   2.914  -1.583  0.00  0.00    -0.090 HD
ATOM     22  H   UNL     1       5.478   2.612  -1.820  0.00  0.00    -0.090 HD
ATOM     23  H   UNL     1       6.089   4.109  -2.133  0.00  0.00    -0.090 HD
ENDBRANCH  19  20
ENDBRANCH   6  19
TORSDOF 5
