REMARK  Name = ZINC19326854
REMARK  9 active torsions:
REMARK  status: ('A' for Active; 'I' for Inactive)
REMARK    1  A    between atoms: C_1  and  O_2
REMARK    2  A    between atoms: O_2  and  C_3
REMARK    3  A    between atoms: C_6  and  C_9
REMARK    4  A    between atoms: N_10  and  C_22
REMARK    5  A    between atoms: N_13  and  C_14
REMARK    6  A    between atoms: C_14  and  C_15
REMARK    7  A    between atoms: C_20  and  O_21
REMARK    8  A    between atoms: C_22  and  C_23
REMARK    9  A    between atoms: C_28  and  O_29
REMARK                            x       y       z     vdW  Elec       q    Type
REMARK                         _______ _______ _______ _____ _____    ______ ____
ROOT
ATOM      1  C   UNL     1       2.664  -2.518   4.286  0.00  0.00    -0.099 C 
ATOM      2  N   UNL     1       3.889  -1.799   4.695  0.00  0.00    +0.376 N 
ATOM      3  C   UNL     1       4.836  -2.872   5.101  0.00  0.00    -0.099 C 
ATOM      4  C   UNL     1       4.519  -3.991   4.078  0.00  0.00    -0.099 C 
ATOM      5  N   UNL     1       3.052  -3.887   3.894  0.00  0.00    +0.376 N 
ATOM      6  H   UNL     1       4.265  -1.274   3.920  0.00  0.00    -0.083 HD
ATOM      7  H   UNL     1       2.583  -4.559   4.483  0.00  0.00    -0.083 HD
ENDROOT
BRANCH   1  11
ATOM      8  C   UNL     1       0.853  -0.522   0.970  0.00  0.00    +0.120 A 
ATOM      9  C   UNL     1       0.078  -0.920   2.049  0.00  0.00    +0.046 A 
ATOM     10  C   UNL     1       0.665  -1.566   3.120  0.00  0.00    +0.004 A 
ATOM     11  C   UNL     1       2.025  -1.815   3.117  0.00  0.00    -0.077 A 
ATOM     12  C   UNL     1       2.801  -1.418   2.043  0.00  0.00    +0.004 A 
ATOM     13  C   UNL     1       2.217  -0.778   0.967  0.00  0.00    +0.046 A 
BRANCH   8  15
ATOM     14  C   UNL     1      -1.131   0.343  -0.013  0.00  0.00    +0.277 C 
ATOM     15  O   UNL     1       0.277   0.113  -0.085  0.00  0.00    -0.495 OA
ENDBRANCH   8  15
ENDBRANCH   1  11
BRANCH   5  16
ATOM     16  C   UNL     1       2.706  -4.121   2.486  0.00  0.00    -0.041 C 
BRANCH  16  17
ATOM     17  C   UNL     1       2.960  -5.566   2.140  0.00  0.00    -0.023 A 
ATOM     18  C   UNL     1       4.117  -5.924   1.476  0.00  0.00    +0.005 A 
ATOM     19  C   UNL     1       4.351  -7.249   1.158  0.00  0.00    +0.000 A 
ATOM     20  C   UNL     1       3.428  -8.219   1.503  0.00  0.00    +0.004 A 
ATOM     21  C   UNL     1       2.269  -7.865   2.167  0.00  0.00    +0.045 A 
ATOM     22  C   UNL     1       2.035  -6.537   2.493  0.00  0.00    +0.118 A 
BRANCH  22  23
ATOM     23  O   UNL     1       0.899  -6.188   3.151  0.00  0.00    -0.507 OA
ATOM     24  H   UNL     1       0.157  -5.974   2.569  0.00  0.00    +0.292 HD
ENDBRANCH  22  23
ENDBRANCH  16  17
ENDBRANCH   5  16
BRANCH   2  25
ATOM     25  C   UNL     1       3.607  -0.909   5.830  0.00  0.00    -0.041 C 
BRANCH  25  26
ATOM     26  C   UNL     1       4.835  -0.098   6.150  0.00  0.00    -0.023 A 
ATOM     27  C   UNL     1       5.659  -0.472   7.195  0.00  0.00    +0.005 A 
ATOM     28  C   UNL     1       6.785   0.272   7.489  0.00  0.00    +0.000 A 
ATOM     29  C   UNL     1       7.092   1.393   6.740  0.00  0.00    +0.004 A 
ATOM     30  C   UNL     1       6.272   1.772   5.695  0.00  0.00    +0.045 A 
ATOM     31  C   UNL     1       5.143   1.023   5.394  0.00  0.00    +0.118 A 
BRANCH  31  32
ATOM     32  O   UNL     1       4.338   1.391   4.362  0.00  0.00    -0.507 OA
ATOM     33  H   UNL     1       3.630   1.999   4.614  0.00  0.00    +0.292 HD
ENDBRANCH  31  32
ENDBRANCH  25  26
ENDBRANCH   2  25
TORSDOF 8
