REMARK  Name = ZINC13502555
REMARK  8 active torsions:
REMARK  status: ('A' for Active; 'I' for Inactive)
REMARK    1  A    between atoms: C_1  and  C_2
REMARK    2  A    between atoms: C_8  and  C_10
REMARK    3  A    between atoms: C_10  and  S_11
REMARK    4  A    between atoms: S_11  and  C_12
REMARK    5  A    between atoms: C_17  and  C_30
REMARK    6  A    between atoms: C_25  and  C_29
REMARK    7  A    between atoms: C_30  and  C_31
REMARK    8  A    between atoms: C_30  and  C_32
REMARK                            x       y       z     vdW  Elec       q    Type
REMARK                         _______ _______ _______ _____ _____    ______ ____
ROOT
ATOM      1  C   UNL     1       0.094   1.115  -2.811  0.00  0.00    +0.198 A 
ATOM      2  N   UNL     1       1.192   0.399  -2.726  0.00  0.00    -0.122 NA
ATOM      3  N   UNL     1       1.605   0.075  -3.902  0.00  0.00    -0.128 NA
ATOM      4  C   UNL     1       0.799   0.574  -4.805  0.00  0.00    +0.173 A 
ATOM      5  N   UNL     1      -0.196   1.257  -4.139  0.00  0.00    -0.257 N 
ATOM      6  C   UNL     1      -1.188   1.887  -4.833  0.00  0.00    +0.121 A 
ATOM      7  N   UNL     1      -1.227   1.864  -6.135  0.00  0.00    -0.226 NA
ATOM      8  C   UNL     1      -0.311   1.231  -6.863  0.00  0.00    +0.114 A 
ATOM      9  C   UNL     1       0.764   0.542  -6.284  0.00  0.00    +0.056 A 
ATOM     10  C   UNL     1       1.670  -0.091  -7.172  0.00  0.00    -0.024 A 
ATOM     11  C   UNL     1       1.428   0.019  -8.499  0.00  0.00    -0.004 A 
ATOM     12  S   UNL     1      -0.050   0.993  -8.604  0.00  0.00    -0.073 S 
ATOM     13  C   UNL     1       2.234  -0.555  -9.622  0.00  0.00    +0.046 C 
ATOM     14  C   UNL     1       3.597  -0.991  -9.066  0.00  0.00    -0.009 C 
ATOM     15  C   UNL     1       3.370  -1.797  -7.784  0.00  0.00    +0.008 C 
ATOM     16  C   UNL     1       2.880  -0.874  -6.668  0.00  0.00    +0.037 C 
ATOM     17  C   UNL     1       4.320  -1.857 -10.100  0.00  0.00    +0.008 C 
ENDROOT
BRANCH   6  18
ATOM     18  C   UNL     1      -2.262   2.626  -4.076  0.00  0.00    +0.049 C 
ATOM     19  C   UNL     1      -2.138   4.126  -4.348  0.00  0.00    +0.015 C 
ATOM     20  C   UNL     1      -3.637   2.136  -4.535  0.00  0.00    +0.015 C 
ENDBRANCH   6  18
BRANCH   1  21
ATOM     21  S   UNL     1      -0.830   1.776  -1.463  0.00  0.00    -0.076 S 
BRANCH  21  22
ATOM     22  C   UNL     1       0.083   1.228   0.005  0.00  0.00    +0.173 C 
BRANCH  22  30
ATOM     23  C   UNL     1      -2.048   2.914   7.393  0.00  0.00    +0.075 C 
ATOM     24  C   UNL     1      -1.692   2.625   5.957  0.00  0.00    +0.101 A 
ATOM     25  N   UNL     1      -2.301   2.985   4.845  0.00  0.00    -0.145 NA
ATOM     26  N   UNL     1      -1.843   2.640   3.720  0.00  0.00    -0.126 NA
ATOM     27  C   UNL     1      -0.747   1.911   3.606  0.00  0.00    +0.188 A 
ATOM     28  S   UNL     1      -0.327   1.688   5.279  0.00  0.00    -0.036 S 
ATOM     29  N   UNL     1      -0.107   1.446   2.462  0.00  0.00    -0.263 N 
ATOM     30  C   UNL     1      -0.610   1.732   1.245  0.00  0.00    +0.229 C 
ATOM     31  O   UNL     1      -1.620   2.397   1.147  0.00  0.00    -0.275 OA
ATOM     32  H   UNL     1       0.701   0.914   2.540  0.00  0.00    +0.157 HD
ENDBRANCH  22  30
ENDBRANCH  21  22
ENDBRANCH   1  21
TORSDOF 4
