REMARK  Name = ZINC04872263
REMARK  8 active torsions:
REMARK  status: ('A' for Active; 'I' for Inactive)
REMARK    1  A    between atoms: C_1  and  C_2
REMARK    2  A    between atoms: C_8  and  N_10
REMARK    3  A    between atoms: C_11  and  C_13
REMARK    4  A    between atoms: C_13  and  C_15
REMARK    5  A    between atoms: C_13  and  N_25
REMARK    6  A    between atoms: C_15  and  C_16
REMARK    7  A    between atoms: C_26  and  C_28
REMARK    8  A    between atoms: C_31  and  C_34
REMARK                            x       y       z     vdW  Elec       q    Type
REMARK                         _______ _______ _______ _____ _____    ______ ____
ROOT
ATOM      1  C   UNL     1       4.209   0.649   2.377  0.00  0.00    +0.163 C 
ENDROOT
BRANCH   1   3
ATOM      2  N   UNL     1       2.116  -0.004   1.231  0.00  0.00    -0.311 N 
ATOM      3  C   UNL     1       2.795   0.128   2.388  0.00  0.00    +0.234 C 
ATOM      4  O   UNL     1       2.268  -0.174   3.438  0.00  0.00    -0.274 OA
ATOM      5  H   UNL     1       2.538   0.237   0.392  0.00  0.00    +0.149 HD
BRANCH   2  12
ATOM      6  C   UNL     1      -0.019   1.526   0.010  0.00  0.00    +0.009 C 
ATOM      7  C   UNL     1       0.002  -0.004   0.002  0.00  0.00    +0.006 C 
ATOM      8  C   UNL     1       0.718  -0.497  -1.257  0.00  0.00    +0.005 C 
ATOM      9  C   UNL     1       0.739  -2.027  -1.265  0.00  0.00    +0.000 C 
ATOM     10  C   UNL     1       1.479  -2.534  -0.026  0.00  0.00    +0.002 C 
ATOM     11  C   UNL     1       0.763  -2.041   1.233  0.00  0.00    +0.022 C 
ATOM     12  C   UNL     1       0.742  -0.511   1.242  0.00  0.00    +0.076 C 
ENDBRANCH   2  12
ENDBRANCH   1   3
BRANCH   1  13
ATOM     13  N   UNL     1       4.722   0.698   3.749  0.00  0.00    -0.303 N 
ATOM     14  C   UNL     1       4.469   1.770   4.525  0.00  0.00    +0.217 C 
ATOM     15  O   UNL     1       3.817   2.695   4.088  0.00  0.00    -0.275 OA
ATOM     16  H   UNL     1       5.243  -0.042   4.098  0.00  0.00    +0.149 HD
BRANCH  14  17
ATOM     17  C   UNL     1       4.997   1.821   5.936  0.00  0.00    +0.075 C 
ATOM     18  C   UNL     1       4.430   0.645   6.734  0.00  0.00    +0.013 C 
ATOM     19  C   UNL     1       4.966   0.696   8.167  0.00  0.00    +0.004 C 
ATOM     20  C   UNL     1       4.541   2.010   8.824  0.00  0.00    -0.014 C 
ATOM     21  C   UNL     1       5.107   3.186   8.025  0.00  0.00    +0.004 C 
ATOM     22  C   UNL     1       4.572   3.135   6.593  0.00  0.00    +0.013 C 
ATOM     23  C   UNL     1       5.077   2.061  10.256  0.00  0.00    +0.007 C 
ENDBRANCH  14  17
ENDBRANCH   1  13
BRANCH   1  24
ATOM     24  C   UNL     1       5.088  -0.278   1.537  0.00  0.00    +0.069 C 
BRANCH  24  25
ATOM     25  C   UNL     1       6.472   0.307   1.424  0.00  0.00    -0.020 A 
ATOM     26  C   UNL     1       7.565   0.152   2.387  0.00  0.00    +0.003 A 
ATOM     27  C   UNL     1       7.697  -0.516   3.606  0.00  0.00    +0.010 A 
ATOM     28  C   UNL     1       8.884  -0.468   4.281  0.00  0.00    +0.001 A 
ATOM     29  C   UNL     1       9.961   0.240   3.765  0.00  0.00    +0.002 A 
ATOM     30  C   UNL     1       9.852   0.906   2.563  0.00  0.00    +0.026 A 
ATOM     31  C   UNL     1       8.654   0.871   1.859  0.00  0.00    +0.047 A 
ATOM     32  N   UNL     1       8.239   1.417   0.665  0.00  0.00    -0.360 N 
ATOM     33  C   UNL     1       6.939   1.066   0.420  0.00  0.00    +0.087 A 
ATOM     34  H   UNL     1       8.787   1.965   0.083  0.00  0.00    +0.165 HD
ENDBRANCH  24  25
ENDBRANCH   1  24
TORSDOF 6
