REMARK  Name = ZINC37616122
REMARK  3 active torsions:
REMARK  status: ('A' for Active; 'I' for Inactive)
REMARK    1  A    between atoms: C_6  and  N_7
REMARK    2  A    between atoms: C_13  and  C_15
REMARK    3  A    between atoms: C_15  and  N_20
REMARK                            x       y       z     vdW  Elec       q    Type
REMARK                         _______ _______ _______ _____ _____    ______ ____
ROOT
ATOM      1  N   UNL     1      -1.248  -0.845   0.443  0.00  0.00    -0.327 N 
ATOM      2  C   UNL     1      -2.515  -0.102   0.417  0.00  0.00    +0.124 C 
ATOM      3  C   UNL     1      -3.271  -0.467  -0.867  0.00  0.00    +0.126 C 
ATOM      4  N   UNL     1      -3.305  -1.931  -0.991  0.00  0.00    -0.300 N 
ATOM      5  C   UNL     1      -2.038  -2.674  -0.965  0.00  0.00    +0.126 C 
ATOM      6  C   UNL     1      -1.281  -2.308   0.313  0.00  0.00    +0.124 C 
ATOM      7  C   UNL     1      -4.479  -2.581  -1.126  0.00  0.00    +0.204 C 
ATOM      8  O   UNL     1      -5.512  -1.954  -1.220  0.00  0.00    -0.277 OA
ENDROOT
BRANCH   1  14
ATOM      9  C   UNL     1       1.151  -0.889   0.714  0.00  0.00    +0.024 A 
ATOM     10  C   UNL     1       2.351  -0.220   0.851  0.00  0.00    +0.022 A 
ATOM     11  C   UNL     1       2.377   1.163   0.859  0.00  0.00    +0.041 A 
ATOM     12  C   UNL     1       1.201   1.881   0.729  0.00  0.00    +0.022 A 
ATOM     13  C   UNL     1      -0.002   1.218   0.591  0.00  0.00    +0.024 A 
ATOM     14  C   UNL     1      -0.031  -0.171   0.583  0.00  0.00    +0.030 A 
ATOM     15 CL   UNL     1       3.888   2.000   1.033  0.00  0.00    -0.084 Cl
ENDBRANCH   1  14
BRANCH   7  16
ATOM     16  C   UNL     1      -4.506  -4.088  -1.160  0.00  0.00    +0.007 C 
ATOM     17  C   UNL     1      -5.966  -4.603  -1.176  0.00  0.00    -0.004 C 
ATOM     18  C   UNL     1      -6.374  -4.521   0.316  0.00  0.00    -0.001 C 
ATOM     19  C   UNL     1      -5.102  -4.943   1.080  0.00  0.00    -0.001 C 
ATOM     20  C   UNL     1      -3.914  -4.668   0.141  0.00  0.00    -0.004 C 
BRANCH  16  21
ATOM     21  N   UNL     1      -3.768  -4.588  -2.328  0.00  0.00    +0.388 N 
ATOM     22  H   UNL     1      -2.842  -4.189  -2.336  0.00  0.00    -0.089 HD
ATOM     23  H   UNL     1      -3.702  -5.593  -2.278  0.00  0.00    -0.089 HD
ATOM     24  H   UNL     1      -4.256  -4.324  -3.171  0.00  0.00    -0.089 HD
ENDBRANCH  16  21
ENDBRANCH   7  16
TORSDOF 3
