REMARK  Name = ZINC39668002
REMARK  14 active torsions:
REMARK  status: ('A' for Active; 'I' for Inactive)
REMARK    1  A    between atoms: C_1  and  C_2
REMARK    2  A    between atoms: C_2  and  O_3
REMARK    3  A    between atoms: O_3  and  C_4
REMARK    4  A    between atoms: C_4  and  C_6
REMARK    5  A    between atoms: C_8  and  N_18
REMARK    6  A    between atoms: C_12  and  C_13
REMARK    7  A    between atoms: C_19  and  C_21
REMARK    8  A    between atoms: C_21  and  S_22
REMARK    9  A    between atoms: S_22  and  C_23
REMARK   10  A    between atoms: C_27  and  C_31
REMARK   11  A    between atoms: C_28  and  C_30
REMARK   12  A    between atoms: C_31  and  C_32
REMARK   13  A    between atoms: C_32  and  C_33
REMARK   14  A    between atoms: C_33  and  O_35
REMARK                            x       y       z     vdW  Elec       q    Type
REMARK                         _______ _______ _______ _____ _____    ______ ____
ROOT
ATOM      1  N   UNL     1       2.748  -4.498   2.964  0.00  0.00    -0.301 N 
ATOM      2  C   UNL     1       2.678  -5.569   3.779  0.00  0.00    +0.224 C 
ATOM      3  O   UNL     1       1.602  -6.061   4.043  0.00  0.00    -0.275 OA
ATOM      4  H   UNL     1       3.608  -4.104   2.752  0.00  0.00    +0.150 HD
ENDROOT
BRANCH   1   6
ATOM      5  C   UNL     1       1.516  -2.381   2.500  0.00  0.00    +0.162 C 
ATOM      6  C   UNL     1       1.522  -3.928   2.398  0.00  0.00    +0.153 C 
ATOM      7  S   UNL     1       0.057  -4.296   3.450  0.00  0.00    -0.109 S 
ATOM      8  C   UNL     1       0.013  -2.780   4.389  0.00  0.00    +0.050 C 
ATOM      9  C   UNL     1       0.825  -1.933   3.747  0.00  0.00    +0.017 C 
BRANCH   9  10
ATOM     10  C   UNL     1       1.034  -0.575   4.265  0.00  0.00    +0.132 A 
ATOM     11  C   UNL     1       1.636  -0.252   5.445  0.00  0.00    +0.049 A 
ATOM     12  C   UNL     1       1.621   1.155   5.536  0.00  0.00    +0.042 A 
ATOM     13  C   UNL     1       1.019   1.617   4.423  0.00  0.00    +0.195 A 
ATOM     14  O   UNL     1       0.670   0.570   3.654  0.00  0.00    -0.463 OA
ENDBRANCH   9  10
BRANCH   5  15
ATOM     15  C   UNL     1       0.801  -1.808   1.304  0.00  0.00    +0.317 C 
ATOM     16  O   UNL     1       0.324  -2.546   0.475  0.00  0.00    -0.250 OA
BRANCH  15  17
ATOM     17  O   UNL     1       0.693  -0.477   1.160  0.00  0.00    -0.464 OA
BRANCH  17  19
ATOM     18  C   UNL     1      -0.019   1.526   0.010  0.00  0.00    +0.048 C 
ATOM     19  C   UNL     1       0.002  -0.004   0.002  0.00  0.00    +0.229 C 
ENDBRANCH  17  19
ENDBRANCH  15  17
ENDBRANCH   5  15
ENDBRANCH   1   6
BRANCH   2  20
ATOM     20  C   UNL     1       3.938  -6.155   4.362  0.00  0.00    +0.173 C 
BRANCH  20  21
ATOM     21  S   UNL     1       3.517  -7.576   5.408  0.00  0.00    -0.078 S 
BRANCH  21  22
ATOM     22  C   UNL     1       5.075  -8.142   6.006  0.00  0.00    +0.170 A 
ATOM     23  N   UNL     1       5.122  -9.222   6.834  0.00  0.00    -0.302 N 
ATOM     24  C   UNL     1       6.312  -9.661   7.295  0.00  0.00    +0.256 A 
ATOM     25  O   UNL     1       6.372 -10.628   8.037  0.00  0.00    -0.267 OA
ATOM     26  C   UNL     1       7.480  -8.984   6.905  0.00  0.00    +0.038 A 
ATOM     27  C   UNL     1       7.372  -7.906   6.074  0.00  0.00    +0.049 A 
ATOM     28  N   UNL     1       6.176  -7.514   5.641  0.00  0.00    -0.228 NA
ATOM     29  C   UNL     1       8.609  -7.163   5.641  0.00  0.00    +0.066 C 
ATOM     30  H   UNL     1       4.303  -9.675   7.090  0.00  0.00    +0.171 HD
BRANCH  26  31
ATOM     31  C   UNL     1       8.830  -9.439   7.397  0.00  0.00    +0.053 C 
BRANCH  31  32
ATOM     32  C   UNL     1       9.109  -8.818   8.767  0.00  0.00    +0.125 C 
BRANCH  32  33
ATOM     33  C   UNL     1      10.459  -9.273   9.259  0.00  0.00    +0.305 C 
ATOM     34  O   UNL     1      11.129 -10.018   8.583  0.00  0.00    -0.251 OA
BRANCH  33  35
ATOM     35  O   UNL     1      10.918  -8.852  10.448  0.00  0.00    -0.481 OA
ATOM     36  H   UNL     1      11.791  -9.197  10.677  0.00  0.00    +0.295 HD
ENDBRANCH  33  35
ENDBRANCH  32  33
ENDBRANCH  31  32
ENDBRANCH  26  31
ENDBRANCH  21  22
ENDBRANCH  20  21
ENDBRANCH   2  20
TORSDOF 12
