REMARK  Name = ZINC01443202
REMARK  9 active torsions:
REMARK  status: ('A' for Active; 'I' for Inactive)
REMARK    1  A    between atoms: C_1  and  C_2
REMARK    2  A    between atoms: C_5  and  N_29
REMARK    3  A    between atoms: C_7  and  N_8
REMARK    4  A    between atoms: C_9  and  C_11
REMARK    5  A    between atoms: C_11  and  S_12
REMARK    6  A    between atoms: S_12  and  C_13
REMARK    7  A    between atoms: C_15  and  C_28
REMARK    8  A    between atoms: C_16  and  C_20
REMARK    9  A    between atoms: C_20  and  C_21
REMARK                            x       y       z     vdW  Elec       q    Type
REMARK                         _______ _______ _______ _____ _____    ______ ____
ROOT
ATOM      1  C   UNL     1      -0.385  -0.118   7.687  0.00  0.00    +0.170 A 
ATOM      2  N   UNL     1      -0.398   1.194   7.553  0.00  0.00    -0.228 NA
ATOM      3  C   UNL     1      -0.492   1.996   8.611  0.00  0.00    +0.050 A 
ATOM      4  C   UNL     1      -0.578   1.468   9.867  0.00  0.00    +0.042 A 
ATOM      5  C   UNL     1      -0.565   0.070  10.018  0.00  0.00    +0.256 A 
ATOM      6  N   UNL     1      -0.473  -0.702   8.914  0.00  0.00    -0.302 N 
ATOM      7  O   UNL     1      -0.639  -0.436  11.126  0.00  0.00    -0.267 OA
ATOM      8  C   UNL     1      -0.504   3.491   8.422  0.00  0.00    +0.066 C 
ATOM      9  H   UNL     1      -0.466  -1.669   8.995  0.00  0.00    +0.171 HD
ENDROOT
BRANCH   1  10
ATOM     10  S   UNL     1      -0.260  -1.133   6.252  0.00  0.00    -0.078 S 
BRANCH  10  11
ATOM     11  C   UNL     1      -0.169   0.052   4.882  0.00  0.00    +0.173 C 
BRANCH  11  13
ATOM     12  N   UNL     1       0.025  -0.015   2.417  0.00  0.00    -0.285 N 
ATOM     13  C   UNL     1      -0.057  -0.694   3.578  0.00  0.00    +0.227 C 
ATOM     14  O   UNL     1      -0.040  -1.907   3.573  0.00  0.00    -0.275 OA
ATOM     15  H   UNL     1       0.077   0.954   2.425  0.00  0.00    +0.155 HD
BRANCH  12  22
ATOM     16  C   UNL     1      -1.265   1.183   0.181  0.00  0.00    +0.045 C 
ATOM     17  C   UNL     1      -0.584  -0.158   0.084  0.00  0.00    -0.029 A 
ATOM     18  C   UNL     1      -0.569  -0.841  -1.117  0.00  0.00    +0.007 A 
ATOM     19  C   UNL     1       0.056  -2.071  -1.206  0.00  0.00    +0.033 A 
ATOM     20  C   UNL     1       0.667  -2.622  -0.095  0.00  0.00    +0.128 A 
ATOM     21  C   UNL     1       0.656  -1.944   1.109  0.00  0.00    +0.056 A 
ATOM     22  C   UNL     1       0.034  -0.706   1.201  0.00  0.00    +0.038 A 
BRANCH  20  23
ATOM     23  N   UNL     1       1.334  -3.940  -0.195  0.00  0.00    +0.056 N 
ATOM     24  O   UNL     1       1.344  -4.534  -1.248  0.00  0.00    -0.126 OA
ATOM     25  O   UNL     1       1.868  -4.422   0.776  0.00  0.00    -0.126 OA
ENDBRANCH  20  23
ENDBRANCH  12  22
ENDBRANCH  11  13
ENDBRANCH  10  11
ENDBRANCH   1  10
BRANCH   4  26
ATOM     26  C   UNL     1      -0.683   2.367  11.071  0.00  0.00    +0.077 C 
BRANCH  26  27
ATOM     27  C   UNL     1      -2.134   2.544  11.440  0.00  0.00    -0.043 A 
ATOM     28  C   UNL     1      -2.867   3.576  10.885  0.00  0.00    +0.007 A 
ATOM     29  C   UNL     1      -4.197   3.739  11.223  0.00  0.00    +0.038 A 
ATOM     30  C   UNL     1      -4.796   2.868  12.117  0.00  0.00    +0.123 A 
ATOM     31  C   UNL     1      -4.060   1.834  12.672  0.00  0.00    +0.038 A 
ATOM     32  C   UNL     1      -2.732   1.670  12.329  0.00  0.00    +0.007 A 
ATOM     33  F   UNL     1      -6.096   3.026  12.448  0.00  0.00    -0.205 F 
ENDBRANCH  26  27
ENDBRANCH   4  26
TORSDOF 7
