REMARK  Name = ZINC09130721
REMARK  6 active torsions:
REMARK  status: ('A' for Active; 'I' for Inactive)
REMARK    1  A    between atoms: C_1  and  C_2
REMARK    2  A    between atoms: C_2  and  N_3
REMARK    3  A    between atoms: N_3  and  C_4
REMARK    4  A    between atoms: C_6  and  N_21
REMARK    5  A    between atoms: C_7  and  N_20
REMARK    6  A    between atoms: N_24  and  C_27
REMARK                            x       y       z     vdW  Elec       q    Type
REMARK                         _______ _______ _______ _____ _____    ______ ____
ROOT
ATOM      1  C   UNL     1       3.672   2.160  -0.613  0.00  0.00    +0.041 A 
ATOM      2  C   UNL     1       4.818   1.476  -1.018  0.00  0.00    +0.048 A 
ATOM      3  C   UNL     1       4.842   0.095  -1.031  0.00  0.00    +0.053 A 
ATOM      4  C   UNL     1       3.708  -0.641  -0.634  0.00  0.00    +0.058 A 
ATOM      5  C   UNL     1       2.556   0.031  -0.227  0.00  0.00    +0.057 A 
ATOM      6  C   UNL     1       2.535   1.446  -0.215  0.00  0.00    +0.056 A 
ATOM      7  C   UNL     1       1.322   2.152   0.213  0.00  0.00    +0.196 C 
ATOM      8  O   UNL     1       1.359   3.341   0.467  0.00  0.00    -0.287 OA
ATOM      9  C   UNL     1       0.053   1.401   0.332  0.00  0.00    +0.033 A 
ATOM     10  C   UNL     1      -1.160   2.074   0.448  0.00  0.00    +0.012 A 
ATOM     11  C   UNL     1      -2.336   1.356   0.562  0.00  0.00    +0.001 A 
ATOM     12  C   UNL     1      -2.318  -0.028   0.551  0.00  0.00    +0.001 A 
ATOM     13  C   UNL     1      -1.122  -0.713   0.432  0.00  0.00    +0.012 A 
ATOM     14  C   UNL     1       0.071  -0.005   0.322  0.00  0.00    +0.033 A 
ATOM     15  C   UNL     1       1.360  -0.719   0.192  0.00  0.00    +0.196 C 
ATOM     16  O   UNL     1       1.431  -1.910   0.428  0.00  0.00    -0.287 OA
ENDROOT
BRANCH   3  17
ATOM     17  N   UNL     1       5.992  -0.572  -1.438  0.00  0.00    -0.332 N 
ATOM     18  C   UNL     1       7.111  -0.297  -0.526  0.00  0.00    +0.086 C 
ATOM     19  C   UNL     1       8.332  -1.110  -0.961  0.00  0.00    -0.059 C 
ATOM     20  N   UNL     1       8.684  -0.758  -2.344  0.00  0.00    +0.384 N 
ATOM     21  C   UNL     1       7.565  -1.034  -3.256  0.00  0.00    -0.059 C 
ATOM     22  C   UNL     1       6.344  -0.220  -2.820  0.00  0.00    +0.086 C 
ATOM     23  H   UNL     1       8.892   0.322  -2.377  0.00  0.00    -0.081 HD
BRANCH  20  24
ATOM     24  C   UNL     1       9.899  -1.463  -2.773  0.00  0.00    -0.068 C 
ATOM     25  C   UNL     1       9.677  -2.973  -2.667  0.00  0.00    -0.015 C 
ATOM     26  C   UNL     1      10.942  -3.708  -3.114  0.00  0.00    -0.002 C 
ATOM     27  C   UNL     1      12.113  -3.300  -2.217  0.00  0.00    -0.000 C 
ATOM     28  C   UNL     1      12.335  -1.790  -2.323  0.00  0.00    -0.002 C 
ATOM     29  C   UNL     1      11.070  -1.056  -1.876  0.00  0.00    -0.015 C 
ENDBRANCH  20  24
ENDBRANCH   3  17
BRANCH   4  30
ATOM     30  N   UNL     1       3.737  -2.027  -0.649  0.00  0.00    -0.356 N 
ATOM     31  H   UNL     1       2.851  -2.599  -0.338  0.00  0.00    +0.142 HD
ATOM     32  H   UNL     1       4.647  -2.554  -0.971  0.00  0.00    +0.142 HD
ENDBRANCH   4  30
BRANCH   1  33
ATOM     33  N   UNL     1       3.659   3.547  -0.604  0.00  0.00    -0.343 N 
ATOM     34  H   UNL     1       2.725   4.086  -0.386  0.00  0.00    +0.146 HD
BRANCH  33  36
ATOM     35  C   UNL     1       4.601   5.794  -0.810  0.00  0.00    +0.024 C 
ATOM     36  C   UNL     1       4.888   4.293  -0.883  0.00  0.00    +0.098 C 
ENDBRANCH  33  36
ENDBRANCH   1  33
TORSDOF 5
