REMARK  Name = ZINC08695689
REMARK  12 active torsions:
REMARK  status: ('A' for Active; 'I' for Inactive)
REMARK    1  A    between atoms: C_1  and  N_2
REMARK    2  A    between atoms: N_2  and  C_3
REMARK    3  A    between atoms: N_2  and  C_4
REMARK    4  A    between atoms: C_7  and  N_10
REMARK    5  A    between atoms: C_11  and  C_13
REMARK    6  A    between atoms: C_13  and  C_15
REMARK    7  A    between atoms: C_13  and  N_20
REMARK    8  A    between atoms: N_20  and  C_21
REMARK    9  A    between atoms: C_21  and  C_22
REMARK   10  A    between atoms: C_24  and  C_27
REMARK   11  A    between atoms: C_33  and  C_35
REMARK   12  A    between atoms: C_35  and  N_36
REMARK                            x       y       z     vdW  Elec       q    Type
REMARK                         _______ _______ _______ _____ _____    ______ ____
ROOT
ATOM      1  N   UNL     1      -5.165   3.399  -1.713  0.00  0.00    -0.278 N 
ATOM      2  C   UNL     1      -3.826   3.538  -1.644  0.00  0.00    +0.238 C 
ATOM      3  O   UNL     1      -3.174   3.647  -2.661  0.00  0.00    -0.274 OA
ENDROOT
BRANCH   1   4
ATOM      4  C   UNL     1      -5.833   3.380  -3.017  0.00  0.00    +0.199 C 
BRANCH   4   5
ATOM      5  C   UNL     1      -5.305   2.230  -3.835  0.00  0.00    +0.019 A 
ATOM      6  C   UNL     1      -5.980   1.380  -4.647  0.00  0.00    +0.013 A 
ATOM      7  C   UNL     1      -5.280   0.389  -5.310  0.00  0.00    +0.008 A 
ATOM      8  C   UNL     1      -3.942   0.289  -5.119  0.00  0.00    +0.045 A 
ATOM      9  S   UNL     1      -3.631   1.629  -3.980  0.00  0.00    -0.099 S 
ENDBRANCH   4   5
BRANCH   4  11
ATOM     10  N   UNL     1      -6.082   4.884  -4.965  0.00  0.00    -0.284 N 
ATOM     11  C   UNL     1      -5.564   4.675  -3.738  0.00  0.00    +0.243 C 
ATOM     12  O   UNL     1      -4.880   5.530  -3.215  0.00  0.00    -0.273 OA
ATOM     13  H   UNL     1      -6.563   4.172  -5.415  0.00  0.00    +0.155 HD
BRANCH  10  17
ATOM     14  C   UNL     1      -5.614   8.588  -6.824  0.00  0.00    +0.029 A 
ATOM     15  C   UNL     1      -5.642   7.427  -7.586  0.00  0.00    +0.025 A 
ATOM     16  C   UNL     1      -5.797   6.201  -6.970  0.00  0.00    +0.025 A 
ATOM     17  C   UNL     1      -5.925   6.128  -5.590  0.00  0.00    +0.034 A 
ATOM     18  C   UNL     1      -5.902   7.290  -4.829  0.00  0.00    +0.025 A 
ATOM     19  C   UNL     1      -5.742   8.515  -5.443  0.00  0.00    +0.025 A 
BRANCH  14  21
ATOM     20  C   UNL     1      -5.321   9.906  -8.905  0.00  0.00    +0.129 C 
ATOM     21  N   UNL     1      -5.457   9.830  -7.448  0.00  0.00    -0.336 N 
ATOM     22  C   UNL     1      -5.427  11.055  -6.645  0.00  0.00    +0.129 C 
ENDBRANCH  14  21
ENDBRANCH  10  17
ENDBRANCH   4  11
ENDBRANCH   1   4
BRANCH   1  23
ATOM     23  C   UNL     1      -5.952   3.267  -0.484  0.00  0.00    +0.171 C 
BRANCH  23  24
ATOM     24  C   UNL     1      -6.370   4.634  -0.007  0.00  0.00    +0.096 A 
ATOM     25  N   UNL     1      -7.454   5.310  -0.302  0.00  0.00    -0.242 NA
ATOM     26  C   UNL     1      -7.678   6.512   0.205  0.00  0.00    +0.078 A 
ATOM     27  C   UNL     1      -6.740   7.035   1.053  0.00  0.00    +0.075 A 
ATOM     28  S   UNL     1      -5.543   5.707   1.078  0.00  0.00    -0.078 S 
BRANCH  26  29
ATOM     29  C   UNL     1      -8.908   7.269  -0.136  0.00  0.00    +0.001 A 
ATOM     30  C   UNL     1      -9.896   6.681  -0.923  0.00  0.00    +0.010 A 
ATOM     31  C   UNL     1     -11.040   7.388  -1.233  0.00  0.00    +0.001 A 
ATOM     32  C   UNL     1     -11.201   8.682  -0.773  0.00  0.00    +0.000 A 
ATOM     33  C   UNL     1     -10.222   9.273   0.004  0.00  0.00    +0.001 A 
ATOM     34  C   UNL     1      -9.076   8.574   0.325  0.00  0.00    +0.010 A 
ENDBRANCH  26  29
ENDBRANCH  23  24
ENDBRANCH   1  23
BRANCH   2  35
ATOM     35  C   UNL     1      -3.138   3.558  -0.303  0.00  0.00    +0.241 C 
BRANCH  35  36
ATOM     36  N   UNL     1      -1.695   3.718  -0.497  0.00  0.00    -0.235 N 
ATOM     37  C   UNL     1      -0.769   2.713  -0.648  0.00  0.00    +0.090 A 
ATOM     38  C   UNL     1      -0.845   1.325  -0.677  0.00  0.00    +0.029 A 
ATOM     39  C   UNL     1       0.292   0.585  -0.846  0.00  0.00    +0.002 A 
ATOM     40  C   UNL     1       1.524   1.208  -0.999  0.00  0.00    +0.002 A 
ATOM     41  C   UNL     1       1.625   2.569  -0.980  0.00  0.00    +0.032 A 
ATOM     42  C   UNL     1       0.475   3.350  -0.803  0.00  0.00    +0.113 A 
ATOM     43  N   UNL     1       0.264   4.680  -0.741  0.00  0.00    -0.129 NA
ATOM     44  N   UNL     1      -0.986   4.926  -0.564  0.00  0.00    -0.064 NA
ENDBRANCH  35  36
ENDBRANCH   2  35
TORSDOF 10
