REMARK  Name = ZINC22905279
REMARK  10 active torsions:
REMARK  status: ('A' for Active; 'I' for Inactive)
REMARK    1  A    between atoms: C_1  and  C_2
REMARK    2  A    between atoms: C_2  and  C_3
REMARK    3  A    between atoms: C_3  and  N_4
REMARK    4  A    between atoms: C_10  and  N_21
REMARK    5  A    between atoms: C_11  and  C_12
REMARK    6  A    between atoms: C_22  and  C_24
REMARK    7  A    between atoms: C_24  and  C_25
REMARK    8  A    between atoms: C_28  and  O_31
REMARK    9  A    between atoms: O_31  and  C_32
REMARK   10  A    between atoms: C_32  and  C_33
REMARK                            x       y       z     vdW  Elec       q    Type
REMARK                         _______ _______ _______ _____ _____    ______ ____
ROOT
ATOM      1  N   UNL     1       0.385  -7.023  -1.274  0.00  0.00    -0.297 NA
ATOM      2  C   UNL     1       1.672  -6.723  -1.917  0.00  0.00    +0.089 C 
ATOM      3  C   UNL     1       1.581  -5.401  -2.684  0.00  0.00    +0.052 C 
ATOM      4  C   UNL     1       1.031  -4.337  -1.738  0.00  0.00    -0.023 A 
ATOM      5  C   UNL     1       0.393  -4.711  -0.603  0.00  0.00    +0.009 A 
ATOM      6  S   UNL     1      -0.057  -3.190   0.182  0.00  0.00    -0.076 S 
ATOM      7  C   UNL     1       0.604  -2.055  -1.026  0.00  0.00    +0.082 A 
ATOM      8  C   UNL     1       1.147  -2.912  -1.971  0.00  0.00    +0.039 A 
ATOM      9  C   UNL     1       0.145  -6.111  -0.139  0.00  0.00    +0.127 C 
ENDROOT
BRANCH   8  10
ATOM     10  C   UNL     1       1.819  -2.389  -3.172  0.00  0.00    +0.112 A 
ATOM     11  N   UNL     1       2.389  -3.056  -4.156  0.00  0.00    -0.239 NA
ATOM     12  C   UNL     1       2.970  -2.439  -5.206  0.00  0.00    +0.079 A 
ATOM     13  C   UNL     1       3.607  -3.031  -6.322  0.00  0.00    +0.029 A 
ATOM     14  C   UNL     1       4.156  -2.254  -7.308  0.00  0.00    +0.002 A 
ATOM     15  C   UNL     1       4.108  -0.868  -7.250  0.00  0.00    +0.001 A 
ATOM     16  C   UNL     1       3.492  -0.256  -6.174  0.00  0.00    +0.017 A 
ATOM     17  C   UNL     1       2.940  -1.026  -5.181  0.00  0.00    +0.040 A 
ATOM     18  S   UNL     1       2.078  -0.691  -3.663  0.00  0.00    -0.067 S 
ENDBRANCH   8  10
BRANCH   7  19
ATOM     19  N   UNL     1       0.585  -0.664  -1.018  0.00  0.00    -0.279 N 
ATOM     20  C   UNL     1       0.002  -0.004   0.002  0.00  0.00    +0.222 C 
ATOM     21  O   UNL     1      -0.506  -0.623   0.913  0.00  0.00    -0.275 OA
ATOM     22  H   UNL     1       1.046  -0.104  -1.845  0.00  0.00    +0.155 HD
BRANCH  20  23
ATOM     23  C   UNL     1      -0.018   1.503   0.010  0.00  0.00    +0.131 C 
BRANCH  23  24
ATOM     24  C   UNL     1      -0.724   1.989   1.250  0.00  0.00    -0.038 A 
ATOM     25  C   UNL     1      -2.089   2.206   1.227  0.00  0.00    +0.007 A 
ATOM     26  C   UNL     1      -2.739   2.646   2.364  0.00  0.00    +0.046 A 
ATOM     27  C   UNL     1      -2.019   2.881   3.526  0.00  0.00    +0.121 A 
ATOM     28  C   UNL     1      -0.648   2.668   3.545  0.00  0.00    +0.046 A 
ATOM     29  C   UNL     1      -0.004   2.222   2.407  0.00  0.00    +0.007 A 
BRANCH  27  30
ATOM     30  O   UNL     1      -2.655   3.319   4.644  0.00  0.00    -0.492 OA
BRANCH  30  31
ATOM     31  C   UNL     1      -4.067   3.516   4.552  0.00  0.00    +0.225 C 
ATOM     32  C   UNL     1      -4.603   4.007   5.899  0.00  0.00    +0.048 C 
ENDBRANCH  30  31
ENDBRANCH  27  30
ENDBRANCH  23  24
ENDBRANCH  20  23
ENDBRANCH   7  19
BRANCH   1  33
ATOM     33  C   UNL     1       0.326  -8.426  -0.843  0.00  0.00    +0.084 C 
BRANCH  33  35
ATOM     34  C   UNL     1      -0.969 -10.101   0.484  0.00  0.00    +0.005 C 
ATOM     35  C   UNL     1      -0.909  -8.639   0.035  0.00  0.00    +0.012 C 
ENDBRANCH  33  35
ENDBRANCH   1  33
TORSDOF 8
