REMARK  Name = ZINC41630473
REMARK  10 active torsions:
REMARK  status: ('A' for Active; 'I' for Inactive)
REMARK    1  A    between atoms: C_1  and  C_2
REMARK    2  A    between atoms: C_2  and  C_4
REMARK    3  A    between atoms: C_2  and  S_17
REMARK    4  A    between atoms: N_6  and  C_7
REMARK    5  A    between atoms: C_9  and  O_15
REMARK    6  A    between atoms: C_12  and  O_13
REMARK    7  A    between atoms: O_13  and  C_14
REMARK    8  A    between atoms: O_15  and  C_16
REMARK    9  A    between atoms: S_17  and  C_18
REMARK   10  A    between atoms: C_24  and  N_26
REMARK                            x       y       z     vdW  Elec       q    Type
REMARK                         _______ _______ _______ _____ _____    ______ ____
ROOT
ATOM      1  C   UNL     1      -0.038   1.543   0.012  0.00  0.00    +0.029 C 
ATOM      2  C   UNL     1      -0.005   0.014   0.005  0.00  0.00    +0.137 C 
ENDROOT
BRANCH   2   3
ATOM      3  C   UNL     1      -1.415  -0.519   0.014  0.00  0.00    +0.230 C 
ATOM      4  O   UNL     1      -1.941  -0.824   1.063  0.00  0.00    -0.274 OA
ATOM      5  N   UNL     1      -2.090  -0.657  -1.144  0.00  0.00    -0.282 N 
ATOM      6  H   UNL     1      -1.694  -0.353  -1.976  0.00  0.00    +0.155 HD
BRANCH   5   7
ATOM      7  C   UNL     1      -3.365  -1.239  -1.147  0.00  0.00    +0.079 A 
ATOM      8  C   UNL     1      -4.225  -1.033  -0.079  0.00  0.00    +0.072 A 
ATOM      9  C   UNL     1      -5.485  -1.610  -0.084  0.00  0.00    +0.122 A 
ATOM     10  C   UNL     1      -5.886  -2.394  -1.156  0.00  0.00    +0.049 A 
ATOM     11  C   UNL     1      -5.030  -2.601  -2.222  0.00  0.00    +0.051 A 
ATOM     12  C   UNL     1      -3.772  -2.022  -2.225  0.00  0.00    +0.141 A 
BRANCH  12  13
ATOM     13  O   UNL     1      -2.933  -2.222  -3.277  0.00  0.00    -0.493 OA
ATOM     14  C   UNL     1      -3.417  -3.035  -4.347  0.00  0.00    +0.277 C 
ENDBRANCH  12  13
BRANCH   9  15
ATOM     15  O   UNL     1      -6.329  -1.409   0.963  0.00  0.00    -0.495 OA
ATOM     16  C   UNL     1      -7.612  -2.034   0.892  0.00  0.00    +0.277 C 
ENDBRANCH   9  15
ENDBRANCH   5   7
ENDBRANCH   2   3
BRANCH   2  17
ATOM     17  S   UNL     1       0.875  -0.579   1.476  0.00  0.00    -0.075 S 
BRANCH  17  18
ATOM     18  C   UNL     1       2.524  -0.003   1.248  0.00  0.00    +0.171 A 
ATOM     19  N   UNL     1       3.466  -0.286   2.190  0.00  0.00    -0.302 N 
ATOM     20  H   UNL     1       3.226  -0.800   2.976  0.00  0.00    +0.171 HD
ATOM     21  C   UNL     1       4.735   0.147   2.031  0.00  0.00    +0.254 A 
ATOM     22  O   UNL     1       5.586  -0.102   2.870  0.00  0.00    -0.268 OA
ATOM     23  C   UNL     1       5.058   0.886   0.889  0.00  0.00    +0.113 A 
ATOM     24  C   UNL     1       4.061   1.148  -0.041  0.00  0.00    +0.124 A 
ATOM     25  N   UNL     1       2.822   0.688   0.167  0.00  0.00    -0.209 NA
BRANCH  24  26
ATOM     26  N   UNL     1       4.349   1.875  -1.179  0.00  0.00    -0.343 N 
ATOM     27  H   UNL     1       5.249   2.204  -1.330  0.00  0.00    +0.144 HD
ATOM     28  H   UNL     1       3.651   2.057  -1.827  0.00  0.00    +0.144 HD
ENDBRANCH  24  26
ENDBRANCH  17  18
ENDBRANCH   2  17
TORSDOF 7
