REMARK  Name = ZINC39543781
REMARK  12 active torsions:
REMARK  status: ('A' for Active; 'I' for Inactive)
REMARK    1  A    between atoms: C_1  and  C_2
REMARK    2  A    between atoms: C_4  and  C_10
REMARK    3  A    between atoms: C_6  and  C_9
REMARK    4  A    between atoms: C_7  and  O_8
REMARK    5  A    between atoms: C_10  and  N_11
REMARK    6  A    between atoms: N_14  and  C_21
REMARK    7  A    between atoms: C_15  and  C_18
REMARK    8  A    between atoms: C_18  and  C_19
REMARK    9  A    between atoms: C_19  and  O_20
REMARK   10  A    between atoms: N_24  and  C_27
REMARK   11  A    between atoms: C_27  and  C_28
REMARK   12  A    between atoms: C_27  and  C_29
REMARK                            x       y       z     vdW  Elec       q    Type
REMARK                         _______ _______ _______ _____ _____    ______ ____
ROOT
ATOM      1  N   UNL     1       1.334  -3.186  -3.105  0.00  0.00    -0.295 NA
ATOM      2  C   UNL     1       1.932  -1.877  -3.402  0.00  0.00    +0.100 C 
ATOM      3  C   UNL     1       3.433  -2.049  -3.650  0.00  0.00    +0.100 C 
ATOM      4  N   UNL     1       3.638  -2.983  -4.766  0.00  0.00    -0.294 NA
ATOM      5  C   UNL     1       3.040  -4.293  -4.469  0.00  0.00    +0.073 C 
ATOM      6  C   UNL     1       1.540  -4.121  -4.220  0.00  0.00    +0.103 C 
ENDROOT
BRANCH   4   7
ATOM      7  C   UNL     1       5.066  -3.117  -5.084  0.00  0.00    +0.054 C 
ATOM      8  C   UNL     1       5.832  -3.549  -3.831  0.00  0.00    +0.000 C 
ATOM      9  C   UNL     1       7.328  -3.608  -4.149  0.00  0.00    -0.077 C 
ATOM     10  N   UNL     1       7.794  -2.284  -4.578  0.00  0.00    +0.381 N 
ATOM     11  C   UNL     1       7.115  -1.895  -5.819  0.00  0.00    -0.077 C 
ATOM     12  C   UNL     1       5.612  -1.769  -5.565  0.00  0.00    +0.000 C 
ATOM     13  H   UNL     1       7.590  -1.608  -3.857  0.00  0.00    -0.081 HD
BRANCH  10  14
ATOM     14  C   UNL     1       9.244  -2.328  -4.807  0.00  0.00    -0.075 C 
ATOM     15  C   UNL     1       9.732  -0.948  -5.254  0.00  0.00    -0.014 C 
ATOM     16  C   UNL     1       9.954  -2.725  -3.511  0.00  0.00    -0.014 C 
ENDBRANCH  10  14
ENDBRANCH   4   7
BRANCH   1  17
ATOM     17  C   UNL     1      -0.093  -3.053  -2.787  0.00  0.00    +0.119 C 
BRANCH  17  21
ATOM     18  C   UNL     1      -0.632   1.292  -0.364  0.00  0.00    +0.047 C 
ATOM     19  C   UNL     1      -0.509  -0.210  -0.338  0.00  0.00    -0.008 A 
ATOM     20  C   UNL     1      -0.364  -0.911  -1.519  0.00  0.00    +0.011 A 
ATOM     21  C   UNL     1      -0.251  -2.289  -1.497  0.00  0.00    -0.033 A 
ATOM     22  C   UNL     1      -0.283  -2.968  -0.292  0.00  0.00    +0.011 A 
ATOM     23  C   UNL     1      -0.427  -2.271   0.891  0.00  0.00    -0.008 A 
ATOM     24  C   UNL     1      -0.535  -0.888   0.872  0.00  0.00    +0.123 A 
ATOM     25  C   UNL     1      -0.462  -3.011   2.203  0.00  0.00    +0.047 C 
BRANCH  24  26
ATOM     26  O   UNL     1      -0.672  -0.199   2.035  0.00  0.00    -0.506 OA
ATOM     27  H   UNL     1      -1.590  -0.072   2.312  0.00  0.00    +0.292 HD
ENDBRANCH  24  26
ENDBRANCH  17  21
ENDBRANCH   1  17
BRANCH   5  28
ATOM     28  C   UNL     1       3.257  -5.234  -5.655  0.00  0.00    +0.048 C 
BRANCH  28  29
ATOM     29  C   UNL     1       2.700  -6.618  -5.317  0.00  0.00    +0.157 C 
BRANCH  29  30
ATOM     30  O   UNL     1       2.996  -7.524  -6.382  0.00  0.00    -0.395 OA
ATOM     31  H   UNL     1       2.671  -8.423  -6.235  0.00  0.00    +0.209 HD
ENDBRANCH  29  30
ENDBRANCH  28  29
ENDBRANCH   5  28
TORSDOF 8
