REMARK  Name = ZINC43024791
REMARK  5 active torsions:
REMARK  status: ('A' for Active; 'I' for Inactive)
REMARK    1  A    between atoms: C_3  and  C_8
REMARK    2  A    between atoms: C_8  and  C_10
REMARK    3  A    between atoms: C_8  and  S_12
REMARK    4  A    between atoms: C_10  and  N_11
REMARK    5  A    between atoms: S_12  and  C_13
REMARK                            x       y       z     vdW  Elec       q    Type
REMARK                         _______ _______ _______ _____ _____    ______ ____
ROOT
ATOM      1  C   UNL     1       3.709   2.133   0.002  0.00  0.00    +0.067 C 
ENDROOT
BRANCH   1   4
ATOM      2  C   UNL     1       0.148   0.906  -0.262  0.00  0.00    +0.001 A 
ATOM      3  C   UNL     1       1.241   1.745  -0.141  0.00  0.00    +0.005 A 
ATOM      4  C   UNL     1       2.519   1.218  -0.130  0.00  0.00    -0.035 A 
ATOM      5  C   UNL     1       2.705  -0.147  -0.240  0.00  0.00    +0.020 A 
ATOM      6  C   UNL     1       1.613  -0.986  -0.360  0.00  0.00    +0.018 A 
ATOM      7  C   UNL     1       0.334  -0.459  -0.371  0.00  0.00    +0.015 A 
ATOM      8 BR   UNL     1       1.867  -2.854  -0.512  0.00  0.00    -0.050 Br
ENDBRANCH   1   4
BRANCH   1   9
ATOM      9  C   UNL     1       4.608   1.980  -1.227  0.00  0.00    -0.067 C 
BRANCH   9  10
ATOM     10  N   UNL     1       5.698   2.963  -1.161  0.00  0.00    +0.379 N 
ATOM     11  H   UNL     1       5.311   3.889  -1.057  0.00  0.00    -0.090 HD
ATOM     12  H   UNL     1       6.290   2.756  -0.371  0.00  0.00    -0.090 HD
ATOM     13  H   UNL     1       6.242   2.919  -2.010  0.00  0.00    -0.090 HD
ENDBRANCH   9  10
ENDBRANCH   1   9
BRANCH   1  14
ATOM     14  S   UNL     1       4.645   1.698   1.494  0.00  0.00    -0.082 S 
BRANCH  14  15
ATOM     15  C   UNL     1       3.572   2.149   2.817  0.00  0.00    +0.169 A 
ATOM     16  N   UNL     1       2.438   2.768   2.550  0.00  0.00    -0.232 NA
ATOM     17  C   UNL     1       1.600   3.125   3.519  0.00  0.00    +0.119 A 
ATOM     18  C   UNL     1       1.903   2.854   4.822  0.00  0.00    +0.090 A 
ATOM     19  C   UNL     1       3.110   2.195   5.116  0.00  0.00    +0.252 A 
ATOM     20  N   UNL     1       3.925   1.848   4.097  0.00  0.00    -0.302 N 
ATOM     21  O   UNL     1       3.413   1.938   6.270  0.00  0.00    -0.268 OA
ATOM     22  H   UNL     1       4.761   1.389   4.277  0.00  0.00    +0.171 HD
ENDBRANCH  14  15
ENDBRANCH   1  14
TORSDOF 5
