REMARK  Name = ZINC08969422
REMARK  9 active torsions:
REMARK  status: ('A' for Active; 'I' for Inactive)
REMARK    1  A    between atoms: C_1  and  C_2
REMARK    2  A    between atoms: C_2  and  C_3
REMARK    3  A    between atoms: C_8  and  N_9
REMARK    4  A    between atoms: C_10  and  C_12
REMARK    5  A    between atoms: C_12  and  S_13
REMARK    6  A    between atoms: S_13  and  C_14
REMARK    7  A    between atoms: C_17  and  C_20
REMARK    8  A    between atoms: N_18  and  N_19
REMARK    9  A    between atoms: C_22  and  C_26
REMARK                            x       y       z     vdW  Elec       q    Type
REMARK                         _______ _______ _______ _____ _____    ______ ____
ROOT
ATOM      1  C   UNL     1       7.468  -0.242   2.430  0.00  0.00    +0.209 A 
ATOM      2  N   UNL     1       6.868   0.177   3.522  0.00  0.00    -0.120 NA
ATOM      3  N   UNL     1       7.725   0.327   4.468  0.00  0.00    -0.125 NA
ATOM      4  C   UNL     1       8.927   0.013   4.037  0.00  0.00    +0.199 A 
ATOM      5  N   UNL     1       8.797  -0.367   2.720  0.00  0.00    -0.223 N 
ENDROOT
BRANCH   4   6
ATOM      6  C   UNL     1      10.176   0.053   4.818  0.00  0.00    +0.104 A 
ATOM      7  C   UNL     1      10.364   0.683   6.031  0.00  0.00    +0.055 A 
ATOM      8  C   UNL     1      11.688   0.473   6.415  0.00  0.00    +0.060 A 
ATOM      9  N   UNL     1      12.283  -0.243   5.496  0.00  0.00    -0.179 NA
ATOM     10  N   UNL     1      11.363  -0.530   4.481  0.00  0.00    -0.274 N 
ATOM     11  H   UNL     1      11.538  -1.049   3.680  0.00  0.00    +0.189 HD
ATOM     12  C   UNL     1      12.326   0.987   7.680  0.00  0.00    +0.067 C 
ENDBRANCH   4   6
BRANCH   5  13
ATOM     13  N   UNL     1       9.790  -0.780   1.878  0.00  0.00    -0.295 N 
ATOM     14  H   UNL     1      10.196   0.003   1.386  0.00  0.00    +0.163 HD
ATOM     15  H   UNL     1      10.497  -1.298   2.379  0.00  0.00    +0.163 HD
ENDBRANCH   5  13
BRANCH   1  16
ATOM     16  S   UNL     1       6.699  -0.586   0.882  0.00  0.00    -0.075 S 
BRANCH  16  17
ATOM     17  C   UNL     1       4.947  -0.219   1.171  0.00  0.00    +0.173 C 
BRANCH  17  19
ATOM     18  N   UNL     1       2.833  -0.268  -0.113  0.00  0.00    -0.285 N 
ATOM     19  C   UNL     1       4.165  -0.474  -0.091  0.00  0.00    +0.227 C 
ATOM     20  O   UNL     1       4.734  -0.865  -1.088  0.00  0.00    -0.275 OA
ATOM     21  H   UNL     1       2.388   0.106   0.663  0.00  0.00    +0.155 HD
BRANCH  18  27
ATOM     22  C   UNL     1       0.800  -1.084  -1.129  0.00  0.00    -0.026 A 
ATOM     23  C   UNL     1       0.070  -1.399  -2.258  0.00  0.00    +0.005 A 
ATOM     24  C   UNL     1       0.627  -1.234  -3.513  0.00  0.00    +0.000 A 
ATOM     25  C   UNL     1       1.917  -0.751  -3.641  0.00  0.00    +0.002 A 
ATOM     26  C   UNL     1       2.652  -0.433  -2.516  0.00  0.00    +0.023 A 
ATOM     27  C   UNL     1       2.093  -0.594  -1.255  0.00  0.00    +0.037 A 
BRANCH  22  29
ATOM     28  C   UNL     1      -0.422   0.058   0.702  0.00  0.00    +0.009 C 
ATOM     29  C   UNL     1       0.191  -1.265   0.238  0.00  0.00    +0.033 C 
ENDBRANCH  22  29
ENDBRANCH  18  27
ENDBRANCH  17  19
ENDBRANCH  16  17
ENDBRANCH   1  16
TORSDOF 7
