REMARK  Name = ZINC63514153
REMARK  8 active torsions:
REMARK  status: ('A' for Active; 'I' for Inactive)
REMARK    1  A    between atoms: C_1  and  C_2
REMARK    2  A    between atoms: C_4  and  C_13
REMARK    3  A    between atoms: C_13  and  C_14
REMARK    4  A    between atoms: C_14  and  N_15
REMARK    5  A    between atoms: N_15  and  S_16
REMARK    6  A    between atoms: S_16  and  C_19
REMARK    7  A    between atoms: C_22  and  O_26
REMARK    8  A    between atoms: O_26  and  C_27
REMARK                            x       y       z     vdW  Elec       q    Type
REMARK                         _______ _______ _______ _____ _____    ______ ____
ROOT
ATOM      1  N   UNL     1       0.967  -0.227  -5.231  0.00  0.00    -0.190 NA
ATOM      2  H   UNL     1       1.133   0.559  -5.775  0.00  0.00    +0.148 HD
ENDROOT
BRANCH   1   3
ATOM      3  S   UNL     1       0.190  -1.536  -5.883  0.00  0.00    +0.060 S 
ATOM      4  O   UNL     1      -0.077  -1.215  -7.241  0.00  0.00    -0.153 OA
ATOM      5  O   UNL     1       0.938  -2.683  -5.503  0.00  0.00    -0.153 OA
BRANCH   3   6
ATOM      6  C   UNL     1      -1.373  -1.666  -5.080  0.00  0.00    +0.125 A 
ATOM      7  C   UNL     1      -2.524  -1.283  -5.744  0.00  0.00    +0.053 A 
ATOM      8  C   UNL     1      -3.752  -1.384  -5.116  0.00  0.00    +0.084 A 
ATOM      9  C   UNL     1      -3.828  -1.871  -3.818  0.00  0.00    +0.140 A 
ATOM     10  C   UNL     1      -2.673  -2.255  -3.154  0.00  0.00    +0.069 A 
ATOM     11  C   UNL     1      -1.448  -2.156  -3.788  0.00  0.00    +0.071 A 
ATOM     12 CL   UNL     1      -0.001  -2.642  -2.961  0.00  0.00    -0.081 Cl
ATOM     13 CL   UNL     1      -5.196  -0.902  -5.950  0.00  0.00    -0.080 Cl
BRANCH   9  14
ATOM     14  O   UNL     1      -5.034  -1.971  -3.199  0.00  0.00    -0.494 OA
ATOM     15  C   UNL     1      -5.038  -2.480  -1.863  0.00  0.00    +0.277 C 
ENDBRANCH   9  14
ENDBRANCH   3   6
ENDBRANCH   1   3
BRANCH   1  16
ATOM     16  C   UNL     1       1.406  -0.256  -3.834  0.00  0.00    +0.110 C 
BRANCH  16  17
ATOM     17  C   UNL     1       0.345   0.407  -2.953  0.00  0.00    +0.050 C 
BRANCH  17  20
ATOM     18  C   UNL     1      -0.005   2.658  -0.646  0.00  0.00    +0.035 C 
ATOM     19  C   UNL     1       0.169   1.164  -0.365  0.00  0.00    +0.103 C 
ATOM     20  C   UNL     1       0.850   0.489  -1.535  0.00  0.00    -0.037 C 
ATOM     21  C   UNL     1       2.003  -0.026  -1.051  0.00  0.00    +0.000 A 
ATOM     22  C   UNL     1       3.090  -0.788  -1.676  0.00  0.00    +0.025 A 
ATOM     23  C   UNL     1       4.140  -1.176  -0.916  0.00  0.00    +0.019 A 
ATOM     24  C   UNL     1       4.215  -0.869   0.451  0.00  0.00    +0.017 A 
ATOM     25  C   UNL     1       3.254  -0.173   1.095  0.00  0.00    +0.027 A 
ATOM     26  C   UNL     1       2.105   0.285   0.393  0.00  0.00    +0.043 A 
ATOM     27  N   UNL     1       1.055   0.966   0.787  0.00  0.00    -0.378 N 
ATOM     28 BR   UNL     1       5.544  -2.158  -1.717  0.00  0.00    -0.050 Br
ATOM     29  H   UNL     1       0.891   1.285   1.688  0.00  0.00    +0.160 HD
ENDBRANCH  17  20
ENDBRANCH  16  17
ENDBRANCH   1  16
TORSDOF 6
