REMARK  Name = ZINC03849802
REMARK  13 active torsions:
REMARK  status: ('A' for Active; 'I' for Inactive)
REMARK    1  A    between atoms: C_1  and  C_2
REMARK    2  A    between atoms: C_2  and  O_3
REMARK    3  A    between atoms: O_3  and  C_4
REMARK    4  A    between atoms: C_4  and  C_6
REMARK    5  A    between atoms: C_6  and  C_7
REMARK    6  A    between atoms: C_6  and  C_8
REMARK    7  A    between atoms: C_6  and  C_9
REMARK    8  A    between atoms: C_9  and  O_41
REMARK    9  A    between atoms: C_12  and  C_40
REMARK   10  A    between atoms: C_24  and  C_39
REMARK   11  A    between atoms: C_29  and  O_31
REMARK   12  A    between atoms: O_31  and  C_32
REMARK   13  A    between atoms: C_32  and  C_33
REMARK                            x       y       z     vdW  Elec       q    Type
REMARK                         _______ _______ _______ _____ _____    ______ ____
ROOT
ATOM      1  C   UNL     1       2.689   4.033  -0.002  0.00  0.00    +0.082 C 
ATOM      2  C   UNL     1       2.749   5.562   0.006  0.00  0.00    +0.036 C 
ATOM      3  C   UNL     1       4.210   6.016  -0.006  0.00  0.00    +0.010 C 
ATOM      4  C   UNL     1       4.924   5.471   1.232  0.00  0.00    -0.026 C 
ATOM      5  C   UNL     1       4.863   3.942   1.226  0.00  0.00    -0.002 C 
ATOM      6  C   UNL     1       3.402   3.489   1.238  0.00  0.00    +0.040 C 
ATOM      7  C   UNL     1       5.576   3.400   2.467  0.00  0.00    +0.004 C 
ATOM      8  C   UNL     1       7.038   3.850   2.451  0.00  0.00    +0.004 C 
ATOM      9  C   UNL     1       7.103   5.379   2.453  0.00  0.00    -0.004 C 
ATOM     10  C   UNL     1       6.386   5.923   1.218  0.00  0.00    -0.001 C 
ATOM     11  C   UNL     1       6.442   7.454   1.261  0.00  0.00    +0.005 C 
ATOM     12  C   UNL     1       7.902   7.890   1.176  0.00  0.00    +0.010 C 
ATOM     13  C   UNL     1       8.695   7.370   2.377  0.00  0.00    -0.003 C 
ATOM     14  C   UNL     1       8.537   5.846   2.515  0.00  0.00    +0.001 C 
ATOM     15  C   UNL     1       9.391   5.290   1.361  0.00  0.00    +0.007 C 
ATOM     16  C   UNL     1      10.628   6.217   1.350  0.00  0.00    +0.032 C 
ATOM     17  C   UNL     1      10.198   7.534   2.022  0.00  0.00    +0.125 C 
ATOM     18  C   UNL     1       8.330   8.101   3.671  0.00  0.00    +0.014 C 
ATOM     19  C   UNL     1       4.237   6.003   2.492  0.00  0.00    +0.012 C 
ENDROOT
BRANCH   1  20
ATOM     20  C   UNL     1       1.228   3.579   0.010  0.00  0.00    +0.091 C 
ATOM     21  C   UNL     1       0.516   4.123  -1.230  0.00  0.00    +0.025 C 
ATOM     22  C   UNL     1       0.539   4.110   1.268  0.00  0.00    +0.025 C 
BRANCH  20  23
ATOM     23  C   UNL     1       1.170   2.073   0.002  0.00  0.00    +0.316 C 
ATOM     24  O   UNL     1       2.192   1.429  -0.011  0.00  0.00    -0.250 OA
BRANCH  23  25
ATOM     25  O   UNL     1      -0.018   1.448   0.010  0.00  0.00    -0.464 OA
BRANCH  25  27
ATOM     26  C   UNL     1      -1.433  -0.534   0.013  0.00  0.00    +0.048 C 
ATOM     27  C   UNL     1       0.002  -0.004   0.002  0.00  0.00    +0.229 C 
ENDBRANCH  25  27
ENDBRANCH  23  25
ENDBRANCH  20  23
ENDBRANCH   1  20
BRANCH   1  28
ATOM     28  O   UNL     1       3.333   3.537  -1.178  0.00  0.00    -0.387 OA
ATOM     29  H   UNL     1       4.264   3.787  -1.251  0.00  0.00    +0.210 HD
ENDBRANCH   1  28
BRANCH  17  30
ATOM     30  O   UNL     1      10.962   7.751   3.210  0.00  0.00    -0.371 OA
BRANCH  30  31
ATOM     31  C   UNL     1      12.152   8.515   3.004  0.00  0.00    +0.195 C 
BRANCH  31  32
ATOM     32  C   UNL     1      12.875   8.682   4.316  0.00  0.00    -0.022 A 
ATOM     33  C   UNL     1      12.599   9.770   5.123  0.00  0.00    +0.006 A 
ATOM     34  C   UNL     1      13.260   9.920   6.329  0.00  0.00    +0.000 A 
ATOM     35  C   UNL     1      14.202   8.989   6.721  0.00  0.00    +0.000 A 
ATOM     36  C   UNL     1      14.481   7.904   5.912  0.00  0.00    +0.000 A 
ATOM     37  C   UNL     1      13.818   7.751   4.708  0.00  0.00    +0.006 A 
ENDBRANCH  31  32
ENDBRANCH  30  31
ENDBRANCH  17  30
TORSDOF 8
