REMARK  Name = ZINC20617563
REMARK  6 active torsions:
REMARK  status: ('A' for Active; 'I' for Inactive)
REMARK    1  A    between atoms: C_1  and  C_2
REMARK    2  A    between atoms: C_6  and  C_17
REMARK    3  A    between atoms: N_8  and  C_9
REMARK    4  A    between atoms: N_19  and  C_20
REMARK    5  A    between atoms: C_27  and  C_30
REMARK    6  A    between atoms: C_30  and  O_31
REMARK                            x       y       z     vdW  Elec       q    Type
REMARK                         _______ _______ _______ _____ _____    ______ ____
ROOT
ATOM      1  C   UNL     1       0.636  10.407   1.101  0.00  0.00    +0.069 C 
ATOM      2  C   UNL     1       1.972   9.772   0.811  0.00  0.00    +0.081 A 
ATOM      3  C   UNL     1       2.073   8.392   0.711  0.00  0.00    +0.159 A 
ATOM      4  C   UNL     1       3.331   7.823   0.436  0.00  0.00    +0.027 A 
ATOM      5  C   UNL     1       3.459   6.369   0.321  0.00  0.00    +0.030 A 
ATOM      6  C   UNL     1       2.295   5.639   0.224  0.00  0.00    +0.098 A 
ATOM      7  C   UNL     1       1.023   6.389   0.235  0.00  0.00    +0.212 A 
ATOM      8  N   UNL     1      -0.051   5.907  -0.351  0.00  0.00    -0.325 N 
ATOM      9  O   UNL     1       0.995   7.590   0.873  0.00  0.00    -0.437 OA
ATOM     10  C   UNL     1       4.432   8.674   0.279  0.00  0.00    +0.007 A 
ATOM     11  C   UNL     1       4.234  10.034   0.398  0.00  0.00    +0.117 A 
ATOM     12  N   UNL     1       3.038  10.531   0.654  0.00  0.00    -0.256 NA
ATOM     13  H   UNL     1       0.010   4.973  -0.928  0.00  0.00    +0.169 HD
ENDROOT
BRANCH   8  14
ATOM     14  C   UNL     1      -1.244   6.567  -0.242  0.00  0.00    +0.043 A 
ATOM     15  C   UNL     1      -2.071   6.344   0.863  0.00  0.00    +0.026 A 
ATOM     16  C   UNL     1      -3.271   7.016   0.969  0.00  0.00    +0.003 A 
ATOM     17  C   UNL     1      -3.662   7.901  -0.020  0.00  0.00    +0.020 A 
ATOM     18  C   UNL     1      -2.850   8.124  -1.120  0.00  0.00    +0.043 A 
ATOM     19  C   UNL     1      -1.644   7.462  -1.236  0.00  0.00    +0.045 A 
ATOM     20 CL   UNL     1      -3.350   9.237  -2.354  0.00  0.00    -0.083 Cl
ENDBRANCH   8  14
BRANCH   6  21
ATOM     21  C   UNL     1       2.318   4.170   0.106  0.00  0.00    +0.253 C 
ATOM     22  O   UNL     1       3.380   3.577   0.094  0.00  0.00    -0.270 OA
ATOM     23  N   UNL     1       1.162   3.483   0.012  0.00  0.00    -0.281 N 
ATOM     24  H   UNL     1       0.205   4.022  -0.052  0.00  0.00    +0.155 HD
BRANCH  23  25
ATOM     25  C   UNL     1       1.179   2.084  -0.003  0.00  0.00    +0.034 A 
ATOM     26  C   UNL     1       0.155   1.369   0.605  0.00  0.00    +0.024 A 
ATOM     27  C   UNL     1       0.174  -0.012   0.588  0.00  0.00    +0.017 A 
ATOM     28  C   UNL     1       1.212  -0.683  -0.035  0.00  0.00    +0.018 A 
ATOM     29  C   UNL     1       2.232   0.027  -0.642  0.00  0.00    +0.017 A 
ATOM     30  C   UNL     1       2.219   1.408  -0.628  0.00  0.00    +0.024 A 
ATOM     31 BR   UNL     1       1.234  -2.574  -0.057  0.00  0.00    -0.050 Br
ENDBRANCH  23  25
ENDBRANCH   6  21
BRANCH  10  32
ATOM     32  C   UNL     1       5.801   8.117  -0.013  0.00  0.00    +0.193 C 
BRANCH  32  33
ATOM     33  O   UNL     1       6.738   9.191  -0.126  0.00  0.00    -0.390 OA
ATOM     34  H   UNL     1       7.796   8.978  -0.339  0.00  0.00    +0.210 HD
ENDBRANCH  32  33
ENDBRANCH  10  32
TORSDOF 5
