REMARK  Name = ZINC41569793
REMARK  6 active torsions:
REMARK  status: ('A' for Active; 'I' for Inactive)
REMARK    1  A    between atoms: C_1  and  C_2
REMARK    2  A    between atoms: C_2  and  C_3
REMARK    3  A    between atoms: C_5  and  N_21
REMARK    4  A    between atoms: C_10  and  C_12
REMARK    5  A    between atoms: C_12  and  O_13
REMARK    6  A    between atoms: O_13  and  C_14
REMARK                            x       y       z     vdW  Elec       q    Type
REMARK                         _______ _______ _______ _____ _____    ______ ____
ROOT
ATOM      1  C   UNL     1       0.707  -0.490  -1.238  0.00  0.00    -0.044 A 
ATOM      2  C   UNL     1      -0.018  -0.718  -2.398  0.00  0.00    +0.030 A 
ATOM      3  C   UNL     1       0.617  -1.164  -3.545  0.00  0.00    +0.070 A 
ATOM      4  C   UNL     1       1.992  -1.385  -3.532  0.00  0.00    +0.176 A 
ATOM      5  C   UNL     1       2.724  -1.155  -2.359  0.00  0.00    +0.112 A 
ATOM      6  C   UNL     1       2.068  -0.700  -1.212  0.00  0.00    +0.035 A 
ATOM      7  N   UNL     1       4.020  -1.453  -2.646  0.00  0.00    -0.210 NA
ATOM      8  C   UNL     1       4.097  -1.836  -3.885  0.00  0.00    +0.235 A 
ATOM      9  O   UNL     1       2.883  -1.808  -4.457  0.00  0.00    -0.434 OA
ENDROOT
BRANCH   3  10
ATOM     10  N   UNL     1      -0.119  -1.393  -4.711  0.00  0.00    -0.355 N 
ATOM     11  H   UNL     1      -1.077  -1.238  -4.718  0.00  0.00    +0.142 HD
ATOM     12  H   UNL     1       0.327  -1.706  -5.513  0.00  0.00    +0.142 HD
ENDBRANCH   3  10
BRANCH   1  14
ATOM     13  C   UNL     1      -0.019   1.526   0.010  0.00  0.00    +0.009 C 
ATOM     14  C   UNL     1       0.002  -0.004   0.002  0.00  0.00    +0.032 C 
ENDBRANCH   1  14
BRANCH   8  15
ATOM     15  C   UNL     1       5.368  -2.251  -4.581  0.00  0.00    +0.324 C 
BRANCH  15  16
ATOM     16  O   UNL     1       5.561  -3.658  -4.420  0.00  0.00    -0.483 OA
BRANCH  16  17
ATOM     17  C   UNL     1       6.669  -4.198  -4.992  0.00  0.00    +0.121 A 
ATOM     18  C   UNL     1       7.556  -3.389  -5.689  0.00  0.00    +0.047 A 
ATOM     19  C   UNL     1       8.682  -3.940  -6.269  0.00  0.00    +0.023 A 
ATOM     20  C   UNL     1       8.926  -5.297  -6.157  0.00  0.00    +0.041 A 
ATOM     21  C   UNL     1       8.043  -6.106  -5.463  0.00  0.00    +0.023 A 
ATOM     22  C   UNL     1       6.919  -5.558  -4.875  0.00  0.00    +0.047 A 
ATOM     23 CL   UNL     1      10.341  -5.987  -6.888  0.00  0.00    -0.084 Cl
ENDBRANCH  16  17
ENDBRANCH  15  16
ENDBRANCH   8  15
TORSDOF 5
