REMARK  Name = ZINC58970798
REMARK  8 active torsions:
REMARK  status: ('A' for Active; 'I' for Inactive)
REMARK    1  A    between atoms: C_1  and  C_2
REMARK    2  A    between atoms: C_2  and  C_4
REMARK    3  A    between atoms: C_2  and  N_12
REMARK    4  A    between atoms: C_4  and  C_5
REMARK    5  A    between atoms: C_13  and  C_15
REMARK    6  A    between atoms: C_15  and  C_16
REMARK    7  A    between atoms: C_16  and  C_17
REMARK    8  A    between atoms: C_17  and  C_18
REMARK                            x       y       z     vdW  Elec       q    Type
REMARK                         _______ _______ _______ _____ _____    ______ ____
ROOT
ATOM      1  N   UNL     1       0.688  -0.476  -1.203  0.00  0.00    -0.312 N 
ATOM      2  C   UNL     1       0.006  -0.608  -2.358  0.00  0.00    +0.213 C 
ATOM      3  O   UNL     1      -1.175  -0.336  -2.400  0.00  0.00    -0.276 OA
ATOM      4  H   UNL     1       1.632  -0.695  -1.170  0.00  0.00    +0.149 HD
ENDROOT
BRANCH   1   6
ATOM      5  C   UNL     1      -0.019   1.526   0.010  0.00  0.00    +0.028 C 
ATOM      6  C   UNL     1       0.002  -0.004   0.002  0.00  0.00    +0.074 C 
BRANCH   6   7
ATOM      7  C   UNL     1       0.742  -0.511   1.242  0.00  0.00    +0.057 C 
BRANCH   7   8
ATOM      8  C   UNL     1       0.657  -2.014   1.298  0.00  0.00    -0.046 A 
ATOM      9  C   UNL     1      -0.396  -2.623   1.955  0.00  0.00    +0.005 A 
ATOM     10  C   UNL     1      -0.475  -4.002   2.007  0.00  0.00    +0.015 A 
ATOM     11  C   UNL     1       0.500  -4.773   1.400  0.00  0.00    +0.018 A 
ATOM     12  C   UNL     1       1.553  -4.164   0.742  0.00  0.00    +0.015 A 
ATOM     13  C   UNL     1       1.628  -2.785   0.687  0.00  0.00    +0.005 A 
ATOM     14 BR   UNL     1       0.393  -6.660   1.471  0.00  0.00    -0.050 Br
ENDBRANCH   7   8
ENDBRANCH   6   7
ENDBRANCH   1   6
BRANCH   2  15
ATOM     15  C   UNL     1       0.712  -1.094  -3.598  0.00  0.00    +0.096 C 
BRANCH  15  16
ATOM     16  C   UNL     1      -0.282  -1.153  -4.761  0.00  0.00    +0.014 C 
BRANCH  16  17
ATOM     17  C   UNL     1       0.434  -1.646  -6.019  0.00  0.00    +0.038 C 
BRANCH  17  18
ATOM     18  C   UNL     1      -0.544  -1.704  -7.164  0.00  0.00    -0.022 A 
ATOM     19  C   UNL     1      -1.242  -2.778  -7.564  0.00  0.00    +0.087 A 
ATOM     20  N   UNL     1      -2.029  -2.451  -8.635  0.00  0.00    -0.360 N 
ATOM     21  H   UNL     1      -2.623  -3.063  -9.098  0.00  0.00    +0.165 HD
ATOM     22  C   UNL     1      -1.852  -1.124  -8.958  0.00  0.00    +0.047 A 
ATOM     23  C   UNL     1      -0.919  -0.596  -8.047  0.00  0.00    +0.003 A 
ATOM     24  C   UNL     1      -0.546   0.746  -8.131  0.00  0.00    +0.010 A 
ATOM     25  C   UNL     1      -1.093   1.543  -9.097  0.00  0.00    +0.001 A 
ATOM     26  C   UNL     1      -2.017   1.028  -9.996  0.00  0.00    +0.002 A 
ATOM     27  C   UNL     1      -2.392  -0.297  -9.937  0.00  0.00    +0.026 A 
ENDBRANCH  17  18
ENDBRANCH  16  17
ENDBRANCH  15  16
ENDBRANCH   2  15
TORSDOF 7
