REMARK  Name = ZINC51571252
REMARK  8 active torsions:
REMARK  status: ('A' for Active; 'I' for Inactive)
REMARK    1  A    between atoms: C_1  and  C_2
REMARK    2  A    between atoms: C_2  and  N_3
REMARK    3  A    between atoms: N_3  and  C_4
REMARK    4  A    between atoms: C_4  and  C_5
REMARK    5  A    between atoms: C_8  and  O_11
REMARK    6  A    between atoms: O_11  and  C_12
REMARK    7  A    between atoms: C_14  and  C_20
REMARK    8  A    between atoms: C_16  and  C_18
REMARK                            x       y       z     vdW  Elec       q    Type
REMARK                         _______ _______ _______ _____ _____    ______ ____
ROOT
ATOM      1  C   UNL     1       1.425  -2.322  -2.495  0.00  0.00    -0.045 A 
ATOM      2  C   UNL     1       0.707  -2.593  -3.652  0.00  0.00    +0.028 A 
ATOM      3  C   UNL     1       1.391  -3.076  -4.755  0.00  0.00    +0.103 A 
ATOM      4  C   UNL     1       2.765  -3.272  -4.666  0.00  0.00    +0.239 A 
ATOM      5  N   UNL     1       3.412  -3.003  -3.545  0.00  0.00    -0.220 NA
ATOM      6  C   UNL     1       2.788  -2.536  -2.480  0.00  0.00    +0.116 A 
ATOM      7 CL   UNL     1       0.545  -3.433  -6.229  0.00  0.00    -0.078 Cl
ENDROOT
BRANCH   1   8
ATOM      8  C   UNL     1       0.723  -1.794  -1.270  0.00  0.00    -0.045 C 
BRANCH   8   9
ATOM      9  N   UNL     1       0.703  -0.326  -1.312  0.00  0.00    +0.382 N 
ATOM     10  H   UNL     1       0.213  -0.019  -2.139  0.00  0.00    -0.085 HD
ATOM     11  H   UNL     1       1.650   0.023  -1.334  0.00  0.00    -0.085 HD
BRANCH   9  13
ATOM     12  C   UNL     1      -0.002   1.718  -0.161  0.00  0.00    -0.017 C 
ATOM     13  C   UNL     1       0.019   0.189  -0.118  0.00  0.00    -0.086 C 
ENDBRANCH   9  13
ENDBRANCH   8   9
ENDBRANCH   1   8
BRANCH   4  14
ATOM     14  O   UNL     1       3.447  -3.745  -5.739  0.00  0.00    -0.437 OA
BRANCH  14  15
ATOM     15  C   UNL     1       4.801  -3.829  -5.648  0.00  0.00    +0.131 A 
ATOM     16  C   UNL     1       5.386  -4.865  -4.934  0.00  0.00    +0.051 A 
ATOM     17  C   UNL     1       6.762  -4.948  -4.842  0.00  0.00    -0.028 A 
ATOM     18  C   UNL     1       7.556  -4.000  -5.462  0.00  0.00    +0.047 A 
ATOM     19  C   UNL     1       6.974  -2.967  -6.176  0.00  0.00    -0.028 A 
ATOM     20  C   UNL     1       5.599  -2.883  -6.274  0.00  0.00    +0.051 A 
ATOM     21  C   UNL     1       7.842  -1.935  -6.850  0.00  0.00    +0.045 C 
ATOM     22 CL   UNL     1       9.285  -4.107  -5.345  0.00  0.00    -0.083 Cl
ATOM     23  C   UNL     1       7.398  -6.072  -4.066  0.00  0.00    +0.045 C 
ENDBRANCH  14  15
ENDBRANCH   4  14
TORSDOF 5
