REMARK  Name = ZINC39460927
REMARK  7 active torsions:
REMARK  status: ('A' for Active; 'I' for Inactive)
REMARK    1  A    between atoms: C_10  and  C_11
REMARK    2  A    between atoms: C_13  and  C_17
REMARK    3  A    between atoms: C_17  and  N_18
REMARK    4  A    between atoms: N_18  and  C_19
REMARK    5  A    between atoms: C_19  and  C_20
REMARK    6  A    between atoms: C_20  and  C_22
REMARK    7  A    between atoms: C_20  and  N_28
REMARK                            x       y       z     vdW  Elec       q    Type
REMARK                         _______ _______ _______ _____ _____    ______ ____
ROOT
ATOM      1  C   UNL     1       4.548   1.289   2.591  0.00  0.00    -0.047 C 
ENDROOT
BRANCH   1   3
ATOM      2  C   UNL     1       4.927  -0.002   0.227  0.00  0.00    +0.155 C 
ATOM      3  C   UNL     1       5.294   0.378   1.651  0.00  0.00    -0.039 C 
ATOM      4  C   UNL     1       6.431  -0.284   1.876  0.00  0.00    +0.132 C 
ATOM      5  N   UNL     1       6.793  -1.002   0.790  0.00  0.00    -0.186 NA
ATOM      6  N   UNL     1       6.020  -0.905  -0.172  0.00  0.00    -0.298 N 
ATOM      7  H   UNL     1       6.114  -1.343  -1.032  0.00  0.00    +0.183 HD
BRANCH   2  17
ATOM      8  C   UNL     1       0.016   1.405  -0.097  0.00  0.00    +0.001 A 
ATOM      9  C   UNL     1       1.231   2.087  -0.065  0.00  0.00    +0.001 A 
ATOM     10  C   UNL     1       2.410   1.413   0.029  0.00  0.00    +0.009 A 
ATOM     11  C   UNL     1       2.406   0.009   0.094  0.00  0.00    -0.012 A 
ATOM     12  C   UNL     1       1.170  -0.684   0.062  0.00  0.00    -0.018 A 
ATOM     13  C   UNL     1      -0.027   0.046  -0.036  0.00  0.00    +0.008 A 
ATOM     14  C   UNL     1       1.166  -2.087   0.128  0.00  0.00    +0.008 A 
ATOM     15  C   UNL     1       2.345  -2.761   0.221  0.00  0.00    +0.001 A 
ATOM     16  C   UNL     1       3.560  -2.079   0.254  0.00  0.00    +0.006 A 
ATOM     17  C   UNL     1       3.603  -0.720   0.192  0.00  0.00    -0.012 A 
ENDBRANCH   2  17
ENDBRANCH   1   3
BRANCH   1  18
ATOM     18  N   UNL     1       4.942   2.682   2.338  0.00  0.00    +0.383 N 
ATOM     19  H   UNL     1       5.935   2.783   2.489  0.00  0.00    -0.085 HD
ATOM     20  H   UNL     1       4.720   2.927   1.385  0.00  0.00    -0.085 HD
BRANCH  18  21
ATOM     21  C   UNL     1       4.215   3.570   3.255  0.00  0.00    -0.057 C 
BRANCH  21  22
ATOM     22  C   UNL     1       4.626   5.020   2.992  0.00  0.00    +0.089 C 
BRANCH  22  23
ATOM     23  C   UNL     1       3.975   5.920   4.011  0.00  0.00    +0.057 A 
ATOM     24  C   UNL     1       2.696   6.394   3.785  0.00  0.00    +0.025 A 
ATOM     25  C   UNL     1       2.106   7.220   4.729  0.00  0.00    +0.003 A 
ATOM     26  C   UNL     1       2.827   7.540   5.869  0.00  0.00    +0.020 A 
ATOM     27  C   UNL     1       4.101   7.029   6.026  0.00  0.00    +0.111 A 
ATOM     28  N   UNL     1       4.629   6.241   5.109  0.00  0.00    -0.258 NA
ENDBRANCH  22  23
BRANCH  22  29
ATOM     29  N   UNL     1       6.087   5.142   3.094  0.00  0.00    -0.291 NA
ATOM     30  C   UNL     1       6.577   4.558   4.351  0.00  0.00    +0.113 C 
ATOM     31  C   UNL     1       8.105   4.652   4.389  0.00  0.00    +0.175 C 
ATOM     32  O   UNL     1       8.497   6.019   4.237  0.00  0.00    -0.377 OA
ATOM     33  C   UNL     1       8.037   6.619   3.023  0.00  0.00    +0.175 C 
ATOM     34  C   UNL     1       6.508   6.545   2.971  0.00  0.00    +0.113 C 
ENDBRANCH  22  29
ENDBRANCH  21  22
ENDBRANCH  18  21
ENDBRANCH   1  18
TORSDOF 7
