REMARK  Name = ZINC38971339
REMARK  4 active torsions:
REMARK  status: ('A' for Active; 'I' for Inactive)
REMARK    1  A    between atoms: N_7  and  S_8
REMARK    2  A    between atoms: S_8  and  C_11
REMARK    3  A    between atoms: C_20  and  N_25
REMARK    4  A    between atoms: N_25  and  C_26
REMARK                            x       y       z     vdW  Elec       q    Type
REMARK                         _______ _______ _______ _____ _____    ______ ____
ROOT
ATOM      1  C   UNL     1       0.573   1.430  -0.702  0.00  0.00    +0.002 A 
ATOM      2  C   UNL     1       1.793   2.108  -0.541  0.00  0.00    +0.002 A 
ATOM      3  C   UNL     1       2.960   1.468  -0.314  0.00  0.00    +0.030 A 
ATOM      4  C   UNL     1       2.996   0.053  -0.227  0.00  0.00    +0.089 A 
ATOM      5  N   UNL     1       4.137  -0.566  -0.005  0.00  0.00    -0.226 NA
ATOM      6  C   UNL     1       4.206  -1.904   0.083  0.00  0.00    +0.192 C 
ATOM      7  N   UNL     1       5.345  -2.493   0.304  0.00  0.00    -0.110 NA
ATOM      8  C   UNL     1       2.941  -2.717  -0.078  0.00  0.00    +0.237 C 
ATOM      9  N   UNL     1       1.685  -1.991  -0.325  0.00  0.00    -0.359 N 
ATOM     10  C   UNL     1       1.722  -0.689  -0.393  0.00  0.00    +0.063 A 
ATOM     11  C   UNL     1       0.495   0.083  -0.637  0.00  0.00    +0.027 A 
ATOM     12  H   UNL     1       0.849  -2.470  -0.434  0.00  0.00    +0.162 HD
ENDROOT
BRANCH   7  13
ATOM     13  S   UNL     1       6.723  -1.591   0.478  0.00  0.00    +0.103 S 
ATOM     14  O   UNL     1       6.970  -0.979  -0.780  0.00  0.00    -0.146 OA
ATOM     15  O   UNL     1       6.567  -0.839   1.674  0.00  0.00    -0.146 OA
BRANCH  13  16
ATOM     16  C   UNL     1       8.049  -2.716   0.760  0.00  0.00    +0.141 A 
ATOM     17  C   UNL     1       9.049  -2.823  -0.146  0.00  0.00    +0.031 A 
ATOM     18  C   UNL     1      10.115  -3.702   0.044  0.00  0.00    +0.004 A 
ATOM     19  C   UNL     1      10.195  -4.488   1.144  0.00  0.00    +0.031 A 
ATOM     20  C   UNL     1       9.182  -4.429   2.138  0.00  0.00    +0.102 A 
ATOM     21  C   UNL     1       8.070  -3.506   1.942  0.00  0.00    +0.127 A 
ATOM     22  N   UNL     1       7.184  -3.532   2.938  0.00  0.00    -0.189 NA
ATOM     23  S   UNL     1       7.743  -4.616   3.988  0.00  0.00    +0.117 S 
ATOM     24  N   UNL     1       9.094  -5.121   3.275  0.00  0.00    -0.191 NA
ENDBRANCH  13  16
ENDBRANCH   7  13
BRANCH   8  25
ATOM     25  N   UNL     1       2.764  -3.514   1.139  0.00  0.00    -0.318 N 
ATOM     26  H   UNL     1       2.909  -3.110   2.009  0.00  0.00    +0.148 HD
BRANCH  25  27
ATOM     27  C   UNL     1       2.387  -4.855   1.046  0.00  0.00    +0.030 A 
ATOM     28  C   UNL     1       2.034  -5.396  -0.184  0.00  0.00    +0.023 A 
ATOM     29  C   UNL     1       1.662  -6.723  -0.274  0.00  0.00    +0.003 A 
ATOM     30  C   UNL     1       1.640  -7.514   0.860  0.00  0.00    +0.020 A 
ATOM     31  C   UNL     1       1.991  -6.979   2.087  0.00  0.00    +0.043 A 
ATOM     32  C   UNL     1       2.370  -5.653   2.182  0.00  0.00    +0.043 A 
ATOM     33 CL   UNL     1       1.961  -7.977   3.508  0.00  0.00    -0.083 Cl
ENDBRANCH  25  27
ENDBRANCH   8  25
TORSDOF 4
