REMARK  Name = ZINC46876527
REMARK  7 active torsions:
REMARK  status: ('A' for Active; 'I' for Inactive)
REMARK    1  A    between atoms: C_1  and  C_2
REMARK    2  A    between atoms: C_2  and  C_4
REMARK    3  A    between atoms: C_2  and  O_22
REMARK    4  A    between atoms: N_6  and  N_7
REMARK    5  A    between atoms: N_10  and  C_11
REMARK    6  A    between atoms: C_11  and  C_12
REMARK    7  A    between atoms: O_22  and  C_23
REMARK                            x       y       z     vdW  Elec       q    Type
REMARK                         _______ _______ _______ _____ _____    ______ ____
ROOT
ATOM      1  N   UNL     1       2.616  -1.144   2.606  0.00  0.00    -0.218 N 
ATOM      2  C   UNL     1       3.953  -1.089   2.764  0.00  0.00    +0.316 C 
ATOM      3  O   UNL     1       4.460  -1.495   3.792  0.00  0.00    -0.251 OA
ATOM      4  N   UNL     1       4.728  -0.583   1.784  0.00  0.00    -0.295 N 
ATOM      5  H   UNL     1       2.058  -1.508   3.311  0.00  0.00    +0.174 HD
ATOM      6  H   UNL     1       4.323  -0.259   0.965  0.00  0.00    +0.150 HD
ENDROOT
BRANCH   1   9
ATOM      7  C   UNL     1       0.694  -0.732   1.263  0.00  0.00    +0.270 C 
ATOM      8  O   UNL     1      -0.004  -1.187   2.145  0.00  0.00    -0.270 OA
ATOM      9  N   UNL     1       2.031  -0.676   1.422  0.00  0.00    -0.230 N 
ATOM     10  H   UNL     1       2.588  -0.312   0.716  0.00  0.00    +0.173 HD
BRANCH   7  12
ATOM     11  C   UNL     1       0.291   1.280  -0.130  0.00  0.00    +0.062 C 
ATOM     12  C   UNL     1       0.064  -0.228  -0.010  0.00  0.00    +0.257 C 
BRANCH  12  13
ATOM     13  O   UNL     1      -1.339  -0.499   0.012  0.00  0.00    -0.477 OA
BRANCH  13  14
ATOM     14  C   UNL     1      -1.966  -0.607  -1.189  0.00  0.00    +0.157 A 
ATOM     15  C   UNL     1      -1.272  -0.344  -2.361  0.00  0.00    +0.048 A 
ATOM     16  C   UNL     1      -1.912  -0.454  -3.581  0.00  0.00    +0.004 A 
ATOM     17  C   UNL     1      -3.242  -0.826  -3.635  0.00  0.00    +0.003 A 
ATOM     18  C   UNL     1      -3.937  -1.089  -2.470  0.00  0.00    +0.042 A 
ATOM     19  C   UNL     1      -3.301  -0.987  -1.246  0.00  0.00    +0.165 A 
ATOM     20  F   UNL     1      -3.978  -1.249  -0.107  0.00  0.00    -0.202 F 
ENDBRANCH  13  14
ENDBRANCH  12  13
ENDBRANCH   7  12
ENDBRANCH   1   9
BRANCH   4  21
ATOM     21  C   UNL     1       6.181  -0.523   1.957  0.00  0.00    +0.150 C 
BRANCH  21  22
ATOM     22  C   UNL     1       6.818   0.088   0.707  0.00  0.00    +0.195 C 
ATOM     23  C   UNL     1       8.360   0.108   0.832  0.00  0.00    +0.085 C 
ATOM     24  C   UNL     1       8.793  -0.181  -0.592  0.00  0.00    -0.002 A 
ATOM     25  C   UNL     1      10.002  -0.038  -1.238  0.00  0.00    +0.007 A 
ATOM     26  C   UNL     1      10.116  -0.380  -2.574  0.00  0.00    +0.000 A 
ATOM     27  C   UNL     1       9.014  -0.864  -3.255  0.00  0.00    +0.004 A 
ATOM     28  C   UNL     1       7.804  -1.010  -2.610  0.00  0.00    +0.046 A 
ATOM     29  C   UNL     1       7.681  -0.672  -1.264  0.00  0.00    +0.124 A 
ATOM     30  O   UNL     1       6.598  -0.751  -0.439  0.00  0.00    -0.487 OA
ENDBRANCH  21  22
ENDBRANCH   4  21
TORSDOF 6
