REMARK  Name = ZINC41286270
REMARK  7 active torsions:
REMARK  status: ('A' for Active; 'I' for Inactive)
REMARK    1  A    between atoms: C_1  and  C_2
REMARK    2  A    between atoms: C_8  and  N_10
REMARK    3  A    between atoms: C_11  and  C_13
REMARK    4  A    between atoms: C_13  and  C_14
REMARK    5  A    between atoms: C_14  and  N_15
REMARK    6  A    between atoms: C_23  and  C_26
REMARK    7  A    between atoms: C_23  and  C_27
REMARK                            x       y       z     vdW  Elec       q    Type
REMARK                         _______ _______ _______ _____ _____    ______ ____
ROOT
ATOM      1  N   UNL     1       0.340   1.110   7.209  0.00  0.00    -0.264 N 
ATOM      2  C   UNL     1       0.276   2.480   7.501  0.00  0.00    +0.080 A 
ATOM      3  C   UNL     1       0.564   3.424   6.529  0.00  0.00    +0.047 A 
ATOM      4  C   UNL     1       0.496   4.772   6.838  0.00  0.00    +0.043 A 
ATOM      5  C   UNL     1       0.142   5.176   8.113  0.00  0.00    +0.024 A 
ATOM      6  C   UNL     1      -0.147   4.237   9.087  0.00  0.00    +0.049 A 
ATOM      7  C   UNL     1      -0.082   2.888   8.785  0.00  0.00    +0.143 A 
ATOM      8  O   UNL     1      -0.366   1.951   9.729  0.00  0.00    -0.475 OA
ATOM      9  C   UNL     1      -0.973   0.740   9.272  0.00  0.00    +0.181 C 
ATOM     10  C   UNL     1      -0.244   0.233   8.054  0.00  0.00    +0.263 C 
ATOM     11  O   UNL     1      -0.179  -0.958   7.836  0.00  0.00    -0.271 OA
ATOM     12  C   UNL     1      -0.910  -0.311  10.382  0.00  0.00    +0.065 C 
ATOM     13  C   UNL     1      -2.435   1.010   8.909  0.00  0.00    +0.065 C 
ATOM     14 CL   UNL     1       0.856   5.958   5.622  0.00  0.00    -0.083 Cl
ENDROOT
BRANCH   1  15
ATOM     15  C   UNL     1       1.026   0.638   6.004  0.00  0.00    +0.123 C 
BRANCH  15  16
ATOM     16  C   UNL     1       0.033   0.579   4.842  0.00  0.00    +0.115 C 
BRANCH  16  18
ATOM     17  N   UNL     1       0.056  -0.038   2.447  0.00  0.00    -0.312 N 
ATOM     18  C   UNL     1       0.738   0.093   3.602  0.00  0.00    +0.215 C 
ATOM     19  O   UNL     1       1.919  -0.179   3.644  0.00  0.00    -0.276 OA
ATOM     20  H   UNL     1      -0.888   0.180   2.413  0.00  0.00    +0.149 HD
BRANCH  17  27
ATOM     21  C   UNL     1      -0.019   1.526   0.010  0.00  0.00    +0.009 C 
ATOM     22  C   UNL     1       0.002  -0.004   0.002  0.00  0.00    +0.006 C 
ATOM     23  C   UNL     1      -1.433  -0.534   0.013  0.00  0.00    +0.005 C 
ATOM     24  C   UNL     1      -1.413  -2.063   0.004  0.00  0.00    +0.000 C 
ATOM     25  C   UNL     1      -0.673  -2.570   1.244  0.00  0.00    +0.002 C 
ATOM     26  C   UNL     1       0.763  -2.041   1.233  0.00  0.00    +0.022 C 
ATOM     27  C   UNL     1       0.742  -0.511   1.242  0.00  0.00    +0.076 C 
ENDBRANCH  17  27
ENDBRANCH  16  18
ENDBRANCH  15  16
ENDBRANCH   1  15
TORSDOF 4
