REMARK  Name = ZINC04082702
REMARK  7 active torsions:
REMARK  status: ('A' for Active; 'I' for Inactive)
REMARK    1  A    between atoms: C_1  and  C_2
REMARK    2  A    between atoms: C_2  and  C_3
REMARK    3  A    between atoms: C_2  and  C_4
REMARK    4  A    between atoms: N_12  and  C_15
REMARK    5  A    between atoms: C_15  and  C_16
REMARK    6  A    between atoms: C_21  and  O_22
REMARK    7  A    between atoms: O_22  and  C_23
REMARK                            x       y       z     vdW  Elec       q    Type
REMARK                         _______ _______ _______ _____ _____    ______ ____
ROOT
ATOM      1  C   UNL     1       0.849   1.424  -0.166  0.00  0.00    -0.055 C 
ATOM      2  C   UNL     1       1.531   0.500   0.865  0.00  0.00    +0.073 C 
ATOM      3  C   UNL     1       0.653  -0.782   0.895  0.00  0.00    +0.088 C 
ATOM      4  C   UNL     1       0.091  -0.786   2.299  0.00  0.00    +0.225 C 
ATOM      5  O   UNL     1      -0.649  -1.630   2.755  0.00  0.00    -0.275 OA
ATOM      6  N   UNL     1       0.539   0.288   2.960  0.00  0.00    -0.237 N 
ATOM      7  C   UNL     1       1.352   1.078   2.250  0.00  0.00    +0.224 C 
ATOM      8  O   UNL     1       1.865   2.100   2.655  0.00  0.00    -0.275 OA
ATOM      9  C   UNL     1      -0.472  -0.502  -0.108  0.00  0.00    +0.050 C 
ATOM     10  C   UNL     1      -1.772  -1.108   0.338  0.00  0.00    -0.028 A 
ATOM     11  C   UNL     1      -2.557  -0.950   1.458  0.00  0.00    +0.004 A 
ATOM     12  C   UNL     1      -3.733  -1.668   1.587  0.00  0.00    +0.000 A 
ATOM     13  C   UNL     1      -4.118  -2.543   0.587  0.00  0.00    +0.002 A 
ATOM     14  C   UNL     1      -3.335  -2.704  -0.537  0.00  0.00    +0.023 A 
ATOM     15  C   UNL     1      -2.150  -1.986  -0.674  0.00  0.00    +0.036 A 
ATOM     16  N   UNL     1      -1.202  -1.976  -1.700  0.00  0.00    -0.286 N 
ATOM     17  C   UNL     1      -0.186  -1.130  -1.445  0.00  0.00    +0.211 C 
ATOM     18  O   UNL     1       0.775  -0.917  -2.154  0.00  0.00    -0.277 OA
ATOM     19  H   UNL     1      -1.269  -2.515  -2.504  0.00  0.00    +0.155 HD
ATOM     20  N   UNL     1      -0.534   0.945  -0.209  0.00  0.00    +0.394 N 
ATOM     21  H   UNL     1      -0.978   1.221  -1.094  0.00  0.00    -0.083 HD
ATOM     22  H   UNL     1      -1.069   1.333   0.577  0.00  0.00    -0.083 HD
ENDROOT
BRANCH   1  24
ATOM     23  C   UNL     1       2.374   3.359   0.246  0.00  0.00    +0.005 C 
ATOM     24  C   UNL     1       0.922   2.881   0.295  0.00  0.00    -0.031 C 
ATOM     25  C   UNL     1       0.067   3.751  -0.628  0.00  0.00    +0.005 C 
ENDBRANCH   1  24
BRANCH   6  26
ATOM     26  C   UNL     1       0.169   0.574   4.349  0.00  0.00    +0.155 C 
BRANCH  26  27
ATOM     27  C   UNL     1       1.073  -0.194   5.278  0.00  0.00    +0.012 A 
ATOM     28  C   UNL     1       0.641  -1.381   5.838  0.00  0.00    +0.009 A 
ATOM     29  C   UNL     1       1.472  -2.089   6.686  0.00  0.00    +0.001 A 
ATOM     30  C   UNL     1       2.732  -1.606   6.986  0.00  0.00    +0.004 A 
ATOM     31  C   UNL     1       3.167  -0.417   6.433  0.00  0.00    +0.046 A 
ATOM     32  C   UNL     1       2.337   0.292   5.577  0.00  0.00    +0.125 A 
BRANCH  32  33
ATOM     33  O   UNL     1       2.762   1.463   5.032  0.00  0.00    -0.495 OA
ATOM     34  C   UNL     1       4.112   1.850   5.298  0.00  0.00    +0.277 C 
ENDBRANCH  32  33
ENDBRANCH  26  27
ENDBRANCH   6  26
TORSDOF 4
