REMARK  Name = ZINC55597224
REMARK  8 active torsions:
REMARK  status: ('A' for Active; 'I' for Inactive)
REMARK    1  A    between atoms: C_3  and  S_15
REMARK    2  A    between atoms: C_6  and  O_7
REMARK    3  A    between atoms: O_7  and  C_8
REMARK    4  A    between atoms: C_8  and  C_9
REMARK    5  A    between atoms: S_15  and  N_18
REMARK    6  A    between atoms: N_18  and  C_19
REMARK    7  A    between atoms: N_22  and  C_24
REMARK    8  A    between atoms: C_24  and  C_25
REMARK                            x       y       z     vdW  Elec       q    Type
REMARK                         _______ _______ _______ _____ _____    ______ ____
ROOT
ATOM      1  S   UNL     1       3.890   2.317  -0.023  0.00  0.00    +0.072 S 
ATOM      2  O   UNL     1       4.872   1.459  -0.588  0.00  0.00    -0.150 OA
ATOM      3  O   UNL     1       3.595   3.597  -0.565  0.00  0.00    -0.150 OA
ENDROOT
BRANCH   1   6
ATOM      4  C   UNL     1      -0.017   1.383   0.010  0.00  0.00    +0.047 A 
ATOM      5  C   UNL     1       1.171   2.089   0.002  0.00  0.00    +0.032 A 
ATOM      6  C   UNL     1       2.377   1.414  -0.013  0.00  0.00    +0.109 A 
ATOM      7  C   UNL     1       2.399   0.031  -0.021  0.00  0.00    +0.032 A 
ATOM      8  C   UNL     1       1.214  -0.679  -0.013  0.00  0.00    +0.047 A 
ATOM      9  C   UNL     1       0.002  -0.004   0.002  0.00  0.00    +0.121 A 
BRANCH   9  10
ATOM     10  O   UNL     1      -1.165  -0.701   0.010  0.00  0.00    -0.492 OA
BRANCH  10  11
ATOM     11  C   UNL     1      -1.069  -2.126   0.001  0.00  0.00    +0.232 C 
BRANCH  11  12
ATOM     12  C   UNL     1      -2.474  -2.732   0.012  0.00  0.00    +0.027 C 
ATOM     13  C   UNL     1      -3.171  -2.381   1.328  0.00  0.00    +0.007 C 
ATOM     14  C   UNL     1      -4.576  -2.986   1.339  0.00  0.00    +0.000 C 
ATOM     15  C   UNL     1      -4.477  -4.507   1.204  0.00  0.00    +0.000 C 
ATOM     16  C   UNL     1      -3.781  -4.858  -0.112  0.00  0.00    +0.000 C 
ATOM     17  C   UNL     1      -2.376  -4.253  -0.123  0.00  0.00    +0.007 C 
ENDBRANCH  11  12
ENDBRANCH  10  11
ENDBRANCH   9  10
ENDBRANCH   1   6
BRANCH   1  18
ATOM     18  N   UNL     1       4.326   2.560   1.556  0.00  0.00    -0.213 N 
ATOM     19  H   UNL     1       4.354   3.459   1.918  0.00  0.00    +0.174 HD
BRANCH  18  20
ATOM     20  C   UNL     1       4.657   1.461   2.372  0.00  0.00    +0.085 A 
ATOM     21  C   UNL     1       3.951   0.252   2.454  0.00  0.00    +0.158 A 
ATOM     22  N   UNL     1       4.560  -0.523   3.315  0.00  0.00    -0.177 NA
ATOM     23  N   UNL     1       5.675   0.163   3.814  0.00  0.00    -0.261 N 
ATOM     24  C   UNL     1       5.717   1.383   3.215  0.00  0.00    +0.133 A 
BRANCH  23  25
ATOM     25  C   UNL     1       6.628  -0.345   4.804  0.00  0.00    +0.238 C 
BRANCH  25  26
ATOM     26  C   UNL     1       5.885  -0.780   6.040  0.00  0.00    +0.232 C 
ATOM     27  O   UNL     1       4.678  -0.676   6.091  0.00  0.00    -0.274 OA
ATOM     28  N   UNL     1       6.562  -1.285   7.091  0.00  0.00    -0.328 N 
ATOM     29  H   UNL     1       7.528  -1.369   7.051  0.00  0.00    +0.145 HD
ATOM     30  H   UNL     1       6.084  -1.565   7.887  0.00  0.00    +0.145 HD
ENDBRANCH  25  26
ENDBRANCH  23  25
ENDBRANCH  18  20
ENDBRANCH   1  18
TORSDOF 8
