REMARK  Name = ZINC03060298
REMARK  4 active torsions:
REMARK  status: ('A' for Active; 'I' for Inactive)
REMARK    1  A    between atoms: C_6  and  C_7
REMARK    2  A    between atoms: C_11  and  N_16
REMARK    3  A    between atoms: C_17  and  C_18
REMARK    4  A    between atoms: C_23  and  O_24
REMARK                            x       y       z     vdW  Elec       q    Type
REMARK                         _______ _______ _______ _____ _____    ______ ____
ROOT
ATOM      1  C   UNL     1       3.634  -8.340  -1.222  0.00  0.00    +0.228 A 
ATOM      2  N   UNL     1       4.001  -7.146  -1.612  0.00  0.00    -0.209 NA
ATOM      3  C   UNL     1       3.297  -6.221  -0.908  0.00  0.00    +0.112 A 
ATOM      4  C   UNL     1       3.273  -4.827  -0.911  0.00  0.00    +0.059 A 
ATOM      5  C   UNL     1       2.420  -4.153  -0.043  0.00  0.00    +0.066 A 
ATOM      6  C   UNL     1       1.584  -4.873   0.820  0.00  0.00    +0.031 A 
ATOM      7  C   UNL     1       1.603  -6.249   0.820  0.00  0.00    +0.050 A 
ATOM      8  C   UNL     1       2.454  -6.933  -0.038  0.00  0.00    +0.156 A 
ATOM      9  O   UNL     1       2.693  -8.245  -0.264  0.00  0.00    -0.435 OA
ENDROOT
BRANCH   1  15
ATOM     10  C   UNL     1       5.148  -9.590  -2.755  0.00  0.00    +0.014 A 
ATOM     11  C   UNL     1       5.652 -10.777  -3.244  0.00  0.00    +0.015 A 
ATOM     12  C   UNL     1       5.187 -11.985  -2.753  0.00  0.00    +0.013 A 
ATOM     13  C   UNL     1       4.218 -12.010  -1.765  0.00  0.00    +0.015 A 
ATOM     14  C   UNL     1       3.710 -10.830  -1.263  0.00  0.00    +0.014 A 
ATOM     15  C   UNL     1       4.175  -9.608  -1.754  0.00  0.00    +0.037 A 
ATOM     16  I   UNL     1       5.952 -13.783  -3.509  0.00  0.00    -0.044 I 
ENDBRANCH   1  15
BRANCH   5  17
ATOM     17  N   UNL     1       2.394  -2.784  -0.035  0.00  0.00    -0.255 NA
ATOM     18  C   UNL     1       1.252  -2.154  -0.021  0.00  0.00    +0.123 C 
BRANCH  18  19
ATOM     19  C   UNL     1       1.224  -0.684  -0.013  0.00  0.00    +0.036 A 
ATOM     20  C   UNL     1       0.002  -0.004   0.002  0.00  0.00    +0.033 A 
ATOM     21  C   UNL     1      -0.017   1.375   0.010  0.00  0.00    +0.042 A 
ATOM     22  C   UNL     1       1.171   2.090   0.002  0.00  0.00    +0.023 A 
ATOM     23  C   UNL     1       2.385   1.430  -0.013  0.00  0.00    +0.047 A 
ATOM     24  C   UNL     1       2.423   0.045  -0.021  0.00  0.00    +0.126 A 
ATOM     25 CL   UNL     1      -1.534   2.219   0.021  0.00  0.00    -0.084 Cl
BRANCH  24  26
ATOM     26  O   UNL     1       3.615  -0.604  -0.036  0.00  0.00    -0.506 OA
ATOM     27  H   UNL     1       3.952  -0.787  -0.924  0.00  0.00    +0.292 HD
ENDBRANCH  24  26
ENDBRANCH  18  19
ENDBRANCH   5  17
TORSDOF 4
