REMARK  Name = ZINC39665543
REMARK  12 active torsions:
REMARK  status: ('A' for Active; 'I' for Inactive)
REMARK    1  A    between atoms: C_1  and  C_2
REMARK    2  A    between atoms: C_2  and  C_4
REMARK    3  A    between atoms: C_2  and  O_31
REMARK    4  A    between atoms: C_4  and  N_5
REMARK    5  A    between atoms: C_6  and  C_8
REMARK    6  A    between atoms: C_19  and  C_21
REMARK    7  A    between atoms: C_26  and  O_27
REMARK    8  A    between atoms: O_27  and  C_28
REMARK    9  A    between atoms: C_28  and  C_30
REMARK   10  A    between atoms: O_31  and  C_32
REMARK   11  A    between atoms: C_35  and  O_38
REMARK   12  A    between atoms: O_38  and  C_39
REMARK                            x       y       z     vdW  Elec       q    Type
REMARK                         _______ _______ _______ _____ _____    ______ ____
ROOT
ATOM      1  C   UNL     1       1.516  -5.042  -0.990  0.00  0.00    +0.100 C 
ATOM      2  C   UNL     1       2.320  -5.367  -2.269  0.00  0.00    +0.121 C 
ATOM      3  N   UNL     1       3.653  -5.787  -1.777  0.00  0.00    -0.296 N 
ATOM      4  C   UNL     1       3.362  -6.594  -0.568  0.00  0.00    +0.115 C 
ATOM      5  C   UNL     1       2.201  -5.852   0.123  0.00  0.00    -0.004 C 
ATOM      6  C   UNL     1       1.221  -6.852   0.729  0.00  0.00    -0.010 C 
ATOM      7  C   UNL     1       1.907  -7.605   1.872  0.00  0.00    -0.082 C 
ATOM      8  N   UNL     1       2.353  -6.648   2.892  0.00  0.00    +0.379 N 
ATOM      9  C   UNL     1       3.366  -5.748   2.326  0.00  0.00    -0.082 C 
ATOM     10  C   UNL     1       2.741  -4.917   1.201  0.00  0.00    -0.010 C 
ATOM     11  C   UNL     1       4.857  -5.500  -2.309  0.00  0.00    +0.250 C 
ATOM     12  O   UNL     1       5.864  -5.984  -1.829  0.00  0.00    -0.270 OA
ATOM     13  H   UNL     1       1.564  -6.106   3.211  0.00  0.00    -0.086 HD
ATOM     14  H   UNL     1       2.750  -7.150   3.672  0.00  0.00    -0.086 HD
ENDROOT
BRANCH  11  15
ATOM     15  C   UNL     1       4.954  -4.599  -3.474  0.00  0.00    +0.079 A 
ATOM     16  C   UNL     1       4.011  -4.675  -4.501  0.00  0.00    +0.017 A 
ATOM     17  C   UNL     1       4.107  -3.830  -5.585  0.00  0.00    +0.001 A 
ATOM     18  C   UNL     1       5.135  -2.905  -5.662  0.00  0.00    +0.004 A 
ATOM     19  C   UNL     1       6.074  -2.820  -4.654  0.00  0.00    +0.047 A 
ATOM     20  C   UNL     1       5.990  -3.659  -3.553  0.00  0.00    +0.144 A 
BRANCH  20  21
ATOM     21  O   UNL     1       6.910  -3.573  -2.558  0.00  0.00    -0.425 OA
BRANCH  21  22
ATOM     22  C   UNL     1       6.612  -2.818  -1.488  0.00  0.00    +0.309 C 
ATOM     23  O   UNL     1       5.523  -2.303  -1.396  0.00  0.00    -0.251 OA
ATOM     24  C   UNL     1       7.636  -2.614  -0.401  0.00  0.00    +0.136 C 
ENDBRANCH  21  22
ENDBRANCH  20  21
ENDBRANCH  11  15
BRANCH   1  26
ATOM     25  N   UNL     1       0.626  -2.985   0.058  0.00  0.00    -0.312 N 
ATOM     26  C   UNL     1       1.588  -3.568  -0.686  0.00  0.00    +0.218 C 
ATOM     27  O   UNL     1       2.510  -2.905  -1.111  0.00  0.00    -0.275 OA
ATOM     28  H   UNL     1      -0.112  -3.515   0.398  0.00  0.00    +0.149 HD
BRANCH  25  29
ATOM     29  C   UNL     1       0.696  -1.552   0.353  0.00  0.00    +0.148 C 
BRANCH  29  31
ATOM     30  C   UNL     1      -0.435   0.348   1.516  0.00  0.00    +0.053 C 
ATOM     31  C   UNL     1      -0.508  -1.149   1.208  0.00  0.00    +0.187 C 
BRANCH  31  32
ATOM     32  O   UNL     1      -1.714  -1.430   0.495  0.00  0.00    -0.488 OA
BRANCH  32  33
ATOM     33  C   UNL     1      -2.830  -1.661   1.236  0.00  0.00    +0.121 A 
ATOM     34  C   UNL     1      -2.780  -1.546   2.618  0.00  0.00    +0.049 A 
ATOM     35  C   UNL     1      -3.914  -1.780   3.371  0.00  0.00    +0.049 A 
ATOM     36  C   UNL     1      -5.102  -2.129   2.746  0.00  0.00    +0.120 A 
ATOM     37  C   UNL     1      -5.152  -2.243   1.365  0.00  0.00    +0.049 A 
ATOM     38  C   UNL     1      -4.019  -2.004   0.611  0.00  0.00    +0.049 A 
BRANCH  36  39
ATOM     39  O   UNL     1      -6.218  -2.361   3.488  0.00  0.00    -0.495 OA
ATOM     40  C   UNL     1      -7.407  -2.716   2.778  0.00  0.00    +0.277 C 
ENDBRANCH  36  39
ENDBRANCH  32  33
ENDBRANCH  31  32
ENDBRANCH  29  31
ENDBRANCH  25  29
ENDBRANCH   1  26
TORSDOF 9
