REMARK  Name = ZINC06442264
REMARK  8 active torsions:
REMARK  status: ('A' for Active; 'I' for Inactive)
REMARK    1  A    between atoms: C_1  and  C_2
REMARK    2  A    between atoms: C_7  and  C_15
REMARK    3  A    between atoms: C_13  and  C_14
REMARK    4  A    between atoms: C_15  and  C_17
REMARK    5  A    between atoms: C_15  and  N_76
REMARK    6  A    between atoms: N_21  and  C_22
REMARK    7  A    between atoms: C_30  and  C_33
REMARK    8  A    between atoms: C_33  and  C_34
REMARK                            x       y       z     vdW  Elec       q    Type
REMARK                         _______ _______ _______ _____ _____    ______ ____
ROOT
ATOM      1  C   UNL     1      -1.333   2.085   0.020  0.00  0.00    +0.039 C 
ENDROOT
BRANCH   1   8
ATOM      2  C   UNL     1       5.107  -2.620  -0.062  0.00  0.00    +0.044 C 
ATOM      3  C   UNL     1       3.768  -1.930  -0.045  0.00  0.00    -0.046 A 
ATOM      4  C   UNL     1       2.605  -2.688  -0.038  0.00  0.00    +0.004 A 
ATOM      5  C   UNL     1       1.380  -2.082  -0.023  0.00  0.00    +0.010 A 
ATOM      6  C   UNL     1       1.298  -0.686  -0.014  0.00  0.00    -0.001 A 
ATOM      7  C   UNL     1       0.002  -0.004   0.002  0.00  0.00    +0.017 A 
ATOM      8  C   UNL     1      -0.016   1.352   0.009  0.00  0.00    +0.011 A 
ATOM      9  C   UNL     1       1.193   2.079   0.002  0.00  0.00    +0.251 A 
ATOM     10  O   UNL     1       1.154   3.297   0.009  0.00  0.00    -0.268 OA
ATOM     11  N   UNL     1       2.388   1.462  -0.013  0.00  0.00    -0.322 N 
ATOM     12  H   UNL     1       3.200   1.992  -0.018  0.00  0.00    +0.169 HD
ATOM     13  C   UNL     1       2.475   0.086  -0.021  0.00  0.00    +0.052 A 
ATOM     14  C   UNL     1       3.710  -0.553  -0.036  0.00  0.00    -0.024 A 
ATOM     15  C   UNL     1       4.981   0.257  -0.043  0.00  0.00    +0.046 C 
ENDBRANCH   1   8
BRANCH   1  21
ATOM     16  C   UNL     1      -1.029   2.351  -2.367  0.00  0.00    -0.077 C 
ATOM     17  C   UNL     1      -0.947   3.384  -3.493  0.00  0.00    -0.015 C 
ATOM     18  C   UNL     1      -2.297   4.092  -3.630  0.00  0.00    -0.010 C 
ATOM     19  C   UNL     1      -2.662   4.743  -2.293  0.00  0.00    -0.015 C 
ATOM     20  C   UNL     1      -2.695   3.670  -1.202  0.00  0.00    -0.077 C 
ATOM     21  N   UNL     1      -1.359   3.044  -1.104  0.00  0.00    +0.389 N 
ATOM     22  H   UNL     1      -0.660   3.776  -0.933  0.00  0.00    -0.080 HD
BRANCH  18  23
ATOM     23  C   UNL     1      -2.203   5.168  -4.714  0.00  0.00    +0.038 C 
BRANCH  23  24
ATOM     24  C   UNL     1      -1.966   4.515  -6.051  0.00  0.00    -0.047 A 
ATOM     25  C   UNL     1      -0.675   4.293  -6.492  0.00  0.00    +0.003 A 
ATOM     26  C   UNL     1      -0.457   3.690  -7.717  0.00  0.00    +0.000 A 
ATOM     27  C   UNL     1      -1.531   3.318  -8.505  0.00  0.00    +0.000 A 
ATOM     28  C   UNL     1      -2.821   3.545  -8.066  0.00  0.00    +0.000 A 
ATOM     29  C   UNL     1      -3.039   4.144  -6.839  0.00  0.00    +0.003 A 
ENDBRANCH  23  24
ENDBRANCH  18  23
ENDBRANCH   1  21
BRANCH   1  30
ATOM     30  C   UNL     1      -1.474   2.847   1.312  0.00  0.00    +0.143 A 
ATOM     31  N   UNL     1      -0.858   3.957   1.637  0.00  0.00    -0.115 NA
ATOM     32  N   UNL     1      -1.243   4.294   2.820  0.00  0.00    -0.023 NA
ATOM     33  N   UNL     1      -2.087   3.427   3.258  0.00  0.00    -0.044 NA
ATOM     34  N   UNL     1      -2.260   2.522   2.355  0.00  0.00    -0.227 N 
BRANCH  34  35
ATOM     35  C   UNL     1      -3.144   1.357   2.449  0.00  0.00    +0.111 C 
ATOM     36  C   UNL     1      -4.587   1.826   2.647  0.00  0.00    +0.027 C 
ATOM     37  C   UNL     1      -5.510   0.610   2.745  0.00  0.00    +0.002 C 
ATOM     38  C   UNL     1      -5.087  -0.257   3.933  0.00  0.00    +0.000 C 
ATOM     39  C   UNL     1      -3.644  -0.725   3.736  0.00  0.00    +0.002 C 
ATOM     40  C   UNL     1      -2.722   0.491   3.638  0.00  0.00    +0.027 C 
ENDBRANCH  34  35
ENDBRANCH   1  30
TORSDOF 6
