REMARK  Name = ZINC55887889
REMARK  6 active torsions:
REMARK  status: ('A' for Active; 'I' for Inactive)
REMARK    1  A    between atoms: C_1  and  C_2
REMARK    2  A    between atoms: C_13  and  C_15
REMARK    3  A    between atoms: C_15  and  N_16
REMARK    4  A    between atoms: N_16  and  C_17
REMARK    5  A    between atoms: C_22  and  N_23
REMARK    6  A    between atoms: C_26  and  O_29
REMARK                            x       y       z     vdW  Elec       q    Type
REMARK                         _______ _______ _______ _____ _____    ______ ____
ROOT
ATOM      1  N   UNL     1       2.667   0.877   4.050  0.00  0.00    -0.334 N 
ATOM      2  H   UNL     1       2.489   1.799   3.805  0.00  0.00    +0.147 HD
ENDROOT
BRANCH   1   3
ATOM      3  C   UNL     1       3.472   0.592   5.155  0.00  0.00    +0.047 A 
ATOM      4  C   UNL     1       3.626  -0.721   5.583  0.00  0.00    +0.025 A 
ATOM      5  C   UNL     1       4.423  -1.000   6.676  0.00  0.00    +0.002 A 
ATOM      6  C   UNL     1       5.068   0.025   7.343  0.00  0.00    +0.002 A 
ATOM      7  C   UNL     1       4.917   1.333   6.920  0.00  0.00    +0.023 A 
ATOM      8  C   UNL     1       4.125   1.618   5.824  0.00  0.00    +0.035 A 
BRANCH   8   9
ATOM      9  N   UNL     1       3.978   2.940   5.393  0.00  0.00    -0.392 NA
ATOM     10  C   UNL     1       3.478   3.762   6.501  0.00  0.00    +0.087 C 
ATOM     11  C   UNL     1       3.238   5.192   6.013  0.00  0.00    +0.048 C 
ATOM     12  C   UNL     1       4.555   5.777   5.495  0.00  0.00    +0.117 C 
ATOM     13  C   UNL     1       5.105   4.871   4.390  0.00  0.00    +0.048 C 
ATOM     14  C   UNL     1       5.276   3.453   4.938  0.00  0.00    +0.087 C 
ATOM     15  H   UNL     1       3.319   2.972   4.629  0.00  0.00    +0.126 HD
BRANCH  12  16
ATOM     16  O   UNL     1       4.323   7.085   4.969  0.00  0.00    -0.392 OA
ATOM     17  H   UNL     1       5.117   7.516   4.623  0.00  0.00    +0.210 HD
ENDBRANCH  12  16
ENDBRANCH   8   9
ENDBRANCH   1   3
BRANCH   1  18
ATOM     18  C   UNL     1       2.091  -0.215   3.261  0.00  0.00    +0.198 C 
BRANCH  18  30
ATOM     19  C   UNL     1       1.946  -2.265   2.230  0.00  0.00    +0.028 C 
ATOM     20  C   UNL     1       0.666  -1.918   1.467  0.00  0.00    +0.079 C 
ATOM     21  C   UNL     1       0.733  -2.495   0.047  0.00  0.00    +0.027 C 
ATOM     22  C   UNL     1      -0.582  -2.196  -0.671  0.00  0.00    +0.039 C 
ATOM     23  C   UNL     1      -0.919  -0.732  -0.567  0.00  0.00    -0.026 A 
ATOM     24  C   UNL     1      -1.801  -0.180  -1.481  0.00  0.00    +0.005 A 
ATOM     25  C   UNL     1      -2.132   1.159  -1.411  0.00  0.00    +0.000 A 
ATOM     26  C   UNL     1      -1.584   1.959  -0.424  0.00  0.00    +0.002 A 
ATOM     27  C   UNL     1      -0.703   1.417   0.491  0.00  0.00    +0.024 A 
ATOM     28  C   UNL     1      -0.367   0.070   0.420  0.00  0.00    +0.040 A 
ATOM     29  N   UNL     1       0.535  -0.459   1.354  0.00  0.00    -0.267 N 
ATOM     30  C   UNL     1       1.270   0.358   2.135  0.00  0.00    +0.237 C 
ATOM     31  O   UNL     1       1.271   1.553   1.930  0.00  0.00    -0.274 OA
ENDBRANCH  18  30
ENDBRANCH   1  18
TORSDOF 5
