REMARK  Name = ZINC15954132
REMARK  6 active torsions:
REMARK  status: ('A' for Active; 'I' for Inactive)
REMARK    1  A    between atoms: C_1  and  O_2
REMARK    2  A    between atoms: O_2  and  C_3
REMARK    3  A    between atoms: C_8  and  C_9
REMARK    4  A    between atoms: N_28  and  C_31
REMARK    5  A    between atoms: C_31  and  C_32
REMARK    6  A    between atoms: C_32  and  C_33
REMARK                            x       y       z     vdW  Elec       q    Type
REMARK                         _______ _______ _______ _____ _____    ______ ____
ROOT
ATOM      1  C   UNL     1       2.456   3.933   0.000  0.00  0.00    +0.157 C 
ATOM      2  C   UNL     1       2.784   4.400   1.400  0.00  0.00    +0.046 A 
ATOM      3  C   UNL     1       3.773   3.868   2.151  0.00  0.00    -0.015 A 
ATOM      4  C   UNL     1       3.770   4.574   3.416  0.00  0.00    +0.003 A 
ATOM      5  C   UNL     1       4.555   4.457   4.568  0.00  0.00    +0.010 A 
ATOM      6  C   UNL     1       4.268   5.312   5.603  0.00  0.00    +0.001 A 
ATOM      7  C   UNL     1       3.251   6.250   5.523  0.00  0.00    +0.002 A 
ATOM      8  C   UNL     1       2.459   6.386   4.396  0.00  0.00    +0.026 A 
ATOM      9  C   UNL     1       2.727   5.531   3.329  0.00  0.00    +0.047 A 
ATOM     10  N   UNL     1       2.155   5.397   2.097  0.00  0.00    -0.356 N 
ATOM     11  H   UNL     1       1.413   5.927   1.765  0.00  0.00    +0.166 HD
ATOM     12  C   UNL     1       4.684   2.754   1.704  0.00  0.00    +0.069 C 
ATOM     13  C   UNL     1       4.051   2.048   0.497  0.00  0.00    +0.167 C 
ATOM     14  N   UNL     1       3.559   3.054  -0.444  0.00  0.00    -0.276 N 
ATOM     15  C   UNL     1       4.059   3.213  -1.671  0.00  0.00    +0.234 C 
ATOM     16  O   UNL     1       3.625   4.123  -2.345  0.00  0.00    -0.274 OA
ATOM     17  C   UNL     1       5.117   2.345  -2.270  0.00  0.00    +0.203 C 
ATOM     18  N   UNL     1       5.523   1.278  -1.369  0.00  0.00    -0.291 N 
ATOM     19  C   UNL     1       5.052   1.134  -0.132  0.00  0.00    +0.237 C 
ATOM     20  O   UNL     1       5.462   0.201   0.526  0.00  0.00    -0.274 OA
ENDROOT
BRANCH   1  26
ATOM     21  C   UNL     1       0.479   2.939  -1.179  0.00  0.00    +0.125 A 
ATOM     22  C   UNL     1      -0.714   2.231  -1.169  0.00  0.00    +0.046 A 
ATOM     23  C   UNL     1      -1.218   1.746   0.022  0.00  0.00    +0.004 A 
ATOM     24  C   UNL     1      -0.540   1.977   1.206  0.00  0.00    +0.001 A 
ATOM     25  C   UNL     1       0.649   2.682   1.198  0.00  0.00    +0.009 A 
ATOM     26  C   UNL     1       1.160   3.164   0.008  0.00  0.00    +0.020 A 
BRANCH  21  28
ATOM     27  C   UNL     1       0.225   3.143  -3.534  0.00  0.00    +0.277 C 
ATOM     28  O   UNL     1       0.979   3.412  -2.351  0.00  0.00    -0.495 OA
ENDBRANCH  21  28
ENDBRANCH   1  26
BRANCH  18  29
ATOM     29  C   UNL     1       6.507   0.306  -1.851  0.00  0.00    +0.113 C 
BRANCH  29  30
ATOM     30  C   UNL     1       5.783  -0.863  -2.522  0.00  0.00    +0.056 C 
BRANCH  30  31
ATOM     31  C   UNL     1       6.796  -1.863  -3.017  0.00  0.00    -0.021 A 
ATOM     32  C   UNL     1       7.309  -1.934  -4.256  0.00  0.00    +0.087 A 
ATOM     33  N   UNL     1       8.198  -2.970  -4.334  0.00  0.00    -0.360 N 
ATOM     34  H   UNL     1       8.696  -3.219  -5.129  0.00  0.00    +0.165 HD
ATOM     35  C   UNL     1       8.282  -3.608  -3.117  0.00  0.00    +0.047 A 
ATOM     36  C   UNL     1       7.412  -2.939  -2.237  0.00  0.00    +0.003 A 
ATOM     37  C   UNL     1       7.284  -3.376  -0.917  0.00  0.00    +0.010 A 
ATOM     38  C   UNL     1       8.015  -4.446  -0.483  0.00  0.00    +0.001 A 
ATOM     39  C   UNL     1       8.879  -5.106  -1.346  0.00  0.00    +0.002 A 
ATOM     40  C   UNL     1       9.016  -4.695  -2.654  0.00  0.00    +0.026 A 
ENDBRANCH  30  31
ENDBRANCH  29  30
ENDBRANCH  18  29
TORSDOF 5
