REMARK  Name = ZINC29079324
REMARK  9 active torsions:
REMARK  status: ('A' for Active; 'I' for Inactive)
REMARK    1  A    between atoms: C_1  and  N_2
REMARK    2  A    between atoms: N_2  and  C_3
REMARK    3  A    between atoms: N_2  and  C_4
REMARK    4  A    between atoms: C_7  and  C_10
REMARK    5  A    between atoms: C_10  and  C_12
REMARK    6  A    between atoms: C_10  and  C_24
REMARK    7  A    between atoms: C_12  and  N_13
REMARK    8  A    between atoms: N_13  and  S_14
REMARK    9  A    between atoms: S_14  and  N_17
REMARK                            x       y       z     vdW  Elec       q    Type
REMARK                         _______ _______ _______ _____ _____    ______ ____
ROOT
ATOM      1  C   UNL     1      -2.531  -0.809   0.020  0.00  0.00    +0.066 C 
ENDROOT
BRANCH   1   2
ATOM      2  C   UNL     1      -1.039  -1.022   0.012  0.00  0.00    -0.014 A 
ATOM      3  C   UNL     1      -0.401  -2.203   0.008  0.00  0.00    +0.088 A 
ATOM      4  N   UNL     1       0.953  -2.002   0.001  0.00  0.00    -0.360 N 
ATOM      5  H   UNL     1       1.637  -2.863  -0.003  0.00  0.00    +0.165 HD
ATOM      6  C   UNL     1       1.225  -0.652  -0.000  0.00  0.00    +0.047 A 
ATOM      7  C   UNL     1      -0.010   0.021   0.006  0.00  0.00    +0.003 A 
ATOM      8  C   UNL     1      -0.043   1.416   0.007  0.00  0.00    +0.010 A 
ATOM      9  C   UNL     1       1.127   2.123   0.001  0.00  0.00    +0.001 A 
ATOM     10  C   UNL     1       2.348   1.464  -0.005  0.00  0.00    +0.002 A 
ATOM     11  C   UNL     1       2.404   0.087  -0.006  0.00  0.00    +0.026 A 
ENDBRANCH   1   2
BRANCH   1  15
ATOM     12  C   UNL     1      -4.207  -2.604   3.518  0.00  0.00    +0.029 A 
ATOM     13  C   UNL     1      -4.352  -1.240   3.297  0.00  0.00    +0.023 A 
ATOM     14  C   UNL     1      -3.809  -0.664   2.166  0.00  0.00    +0.006 A 
ATOM     15  C   UNL     1      -3.122  -1.442   1.253  0.00  0.00    -0.039 A 
ATOM     16  C   UNL     1      -2.981  -2.801   1.466  0.00  0.00    +0.006 A 
ATOM     17  C   UNL     1      -3.516  -3.384   2.598  0.00  0.00    +0.023 A 
BRANCH  12  19
ATOM     18  C   UNL     1      -5.374  -2.352   5.690  0.00  0.00    +0.129 C 
ATOM     19  N   UNL     1      -4.755  -3.191   4.660  0.00  0.00    -0.336 N 
ATOM     20  C   UNL     1      -4.711  -4.646   4.830  0.00  0.00    +0.129 C 
ENDBRANCH  12  19
ENDBRANCH   1  15
BRANCH   1  21
ATOM     21  C   UNL     1      -3.144  -1.451  -1.227  0.00  0.00    +0.119 C 
BRANCH  21  22
ATOM     22  N   UNL     1      -2.660  -0.756  -2.422  0.00  0.00    -0.179 NA
ATOM     23  H   UNL     1      -2.322   0.288  -2.352  0.00  0.00    +0.149 HD
BRANCH  22  24
ATOM     24  S   UNL     1      -2.851  -1.447  -3.915  0.00  0.00    +0.097 S 
ATOM     25  O   UNL     1      -2.312  -0.530  -4.858  0.00  0.00    -0.141 OA
ATOM     26  O   UNL     1      -2.389  -2.786  -3.805  0.00  0.00    -0.141 OA
BRANCH  24  27
ATOM     27  N   UNL     1      -4.478  -1.530  -4.213  0.00  0.00    -0.167 NA
ATOM     28  C   UNL     1      -5.197  -2.716  -3.806  0.00  0.00    +0.110 C 
ATOM     29  C   UNL     1      -5.173  -3.760  -4.941  0.00  0.00    +0.017 C 
ATOM     30  C   UNL     1      -6.032  -3.324  -6.053  0.00  0.00    +0.001 C 
ATOM     31  C   UNL     1      -5.585  -2.027  -6.721  0.00  0.00    +0.001 C 
ATOM     32  C   UNL     1      -6.141  -0.853  -5.955  0.00  0.00    +0.017 C 
ATOM     33  C   UNL     1      -5.132  -0.392  -4.887  0.00  0.00    +0.110 C 
ENDBRANCH  24  27
ENDBRANCH  22  24
ENDBRANCH  21  22
ENDBRANCH   1  21
TORSDOF 7
