REMARK  Name = ZINC09862802
REMARK  7 active torsions:
REMARK  status: ('A' for Active; 'I' for Inactive)
REMARK    1  A    between atoms: C_1  and  C_2
REMARK    2  A    between atoms: C_2  and  C_3
REMARK    3  A    between atoms: C_3  and  C_28
REMARK    4  A    between atoms: N_6  and  C_10
REMARK    5  A    between atoms: C_10  and  C_11
REMARK    6  A    between atoms: C_16  and  C_19
REMARK    7  A    between atoms: C_31  and  C_34
REMARK                            x       y       z     vdW  Elec       q    Type
REMARK                         _______ _______ _______ _____ _____    ______ ____
ROOT
ATOM      1  C   UNL     1      -2.778  -3.966  -1.300  0.00  0.00    +0.213 C 
ENDROOT
BRANCH   1   5
ATOM      2  C   UNL     1      -5.859  -5.923  -0.615  0.00  0.00    +0.138 C 
ATOM      3  C   UNL     1      -5.140  -4.614  -0.876  0.00  0.00    +0.251 C 
ATOM      4  O   UNL     1      -5.632  -3.508  -0.937  0.00  0.00    -0.272 OA
ATOM      5  N   UNL     1      -3.841  -4.937  -1.028  0.00  0.00    -0.215 N 
ATOM      6  C   UNL     1      -3.642  -6.254  -0.905  0.00  0.00    +0.310 C 
ATOM      7  O   UNL     1      -2.553  -6.786  -1.006  0.00  0.00    -0.252 OA
ATOM      8  N   UNL     1      -4.780  -6.925  -0.653  0.00  0.00    -0.281 N 
ATOM      9  H   UNL     1      -4.873  -7.882  -0.525  0.00  0.00    +0.152 HD
BRANCH   2  10
ATOM     10  C   UNL     1      -6.877  -6.193  -1.693  0.00  0.00    -0.015 A 
ATOM     11  C   UNL     1      -8.178  -5.751  -1.542  0.00  0.00    +0.006 A 
ATOM     12  C   UNL     1      -9.110  -5.995  -2.534  0.00  0.00    +0.004 A 
ATOM     13  C   UNL     1      -8.743  -6.689  -3.671  0.00  0.00    -0.050 A 
ATOM     14  C   UNL     1      -7.444  -7.135  -3.820  0.00  0.00    +0.004 A 
ATOM     15  C   UNL     1      -6.510  -6.888  -2.831  0.00  0.00    +0.006 A 
ATOM     16  C   UNL     1      -9.761  -6.960  -4.750  0.00  0.00    +0.044 C 
ENDBRANCH   2  10
BRANCH   2  18
ATOM     17  C   UNL     1      -5.467  -5.681   1.841  0.00  0.00    +0.007 C 
ATOM     18  C   UNL     1      -6.528  -5.904   0.761  0.00  0.00    +0.037 C 
ENDBRANCH   2  18
ENDBRANCH   1   5
BRANCH   1  19
ATOM     19  C   UNL     1      -2.209  -3.466   0.003  0.00  0.00    +0.234 C 
ATOM     20  O   UNL     1      -2.648  -3.880   1.055  0.00  0.00    -0.274 OA
ATOM     21  N   UNL     1      -1.212  -2.559  -0.001  0.00  0.00    -0.300 N 
ATOM     22  C   UNL     1      -0.647  -2.061   1.261  0.00  0.00    +0.108 C 
ATOM     23  C   UNL     1      -0.701  -0.530   1.256  0.00  0.00    +0.029 C 
ATOM     24  C   UNL     1       0.002  -0.004   0.002  0.00  0.00    +0.048 C 
ATOM     25  C   UNL     1      -0.723  -0.517  -1.244  0.00  0.00    +0.029 C 
ATOM     26  C   UNL     1      -0.670  -2.048  -1.267  0.00  0.00    +0.108 C 
BRANCH  24  27
ATOM     27  C   UNL     1      -0.018   1.503   0.010  0.00  0.00    +0.083 A 
ATOM     28  N   UNL     1       0.993   2.325   0.005  0.00  0.00    -0.244 NA
ATOM     29  C   UNL     1       0.837   3.665   0.013  0.00  0.00    +0.078 A 
ATOM     30  C   UNL     1       1.824   4.676   0.009  0.00  0.00    +0.029 A 
ATOM     31  C   UNL     1       1.471   5.990   0.019  0.00  0.00    +0.002 A 
ATOM     32  C   UNL     1       0.141   6.388   0.032  0.00  0.00    +0.001 A 
ATOM     33  C   UNL     1      -0.854   5.429   0.037  0.00  0.00    +0.017 A 
ATOM     34  C   UNL     1      -0.508   4.099   0.028  0.00  0.00    +0.039 A 
ATOM     35  S   UNL     1      -1.395   2.561   0.021  0.00  0.00    -0.072 S 
ENDBRANCH  24  27
ENDBRANCH   1  19
TORSDOF 5
