REMARK  Name = ZINC23673972
REMARK  6 active torsions:
REMARK  status: ('A' for Active; 'I' for Inactive)
REMARK    1  A    between atoms: C_1  and  C_2
REMARK    2  A    between atoms: C_2  and  C_3
REMARK    3  A    between atoms: C_4  and  C_5
REMARK    4  A    between atoms: C_5  and  C_6
REMARK    5  A    between atoms: C_8  and  C_11
REMARK    6  A    between atoms: C_11  and  O_12
REMARK                            x       y       z     vdW  Elec       q    Type
REMARK                         _______ _______ _______ _____ _____    ______ ____
ROOT
ATOM      1  C   UNL     1      -0.013   1.086   0.008  0.00  0.00    +0.161 C 
ATOM      2  C   UNL     1       1.331   1.817  -0.001  0.00  0.00    +0.174 C 
ATOM      3  O   UNL     1       0.481   1.765  -1.148  0.00  0.00    -0.365 OA
ENDROOT
BRANCH   1   4
ATOM      4  C   UNL     1      -1.170   1.730   0.774  0.00  0.00    +0.123 C 
BRANCH   4   6
ATOM      5  C   UNL     1      -3.273   0.126   0.707  0.00  0.00    -0.102 C 
ATOM      6  C   UNL     1      -2.340   0.838   0.737  0.00  0.00    -0.100 C 
BRANCH   5   8
ATOM      7  C   UNL     1      -4.086  -2.105   1.317  0.00  0.00    +0.017 C 
ATOM      8  C   UNL     1      -4.444  -0.766   0.669  0.00  0.00    +0.085 C 
ENDBRANCH   5   8
ENDBRANCH   4   6
ENDBRANCH   1   4
BRANCH   2   9
ATOM      9  C   UNL     1       2.604   0.969  -0.018  0.00  0.00    +0.190 C 
BRANCH   9  10
ATOM     10  O   UNL     1       3.746   1.821   0.093  0.00  0.00    -0.392 OA
ATOM     11  H   UNL     1       4.757   1.388   0.099  0.00  0.00    +0.210 HD
ENDBRANCH   9  10
ENDBRANCH   2   9
TORSDOF 5
