REMARK  Name = ZINC03548289
REMARK  7 active torsions:
REMARK  status: ('A' for Active; 'I' for Inactive)
REMARK    1  A    between atoms: C_4  and  C_7
REMARK    2  A    between atoms: C_7  and  C_8
REMARK    3  A    between atoms: C_8  and  C_9
REMARK    4  A    between atoms: C_9  and  N_10
REMARK    5  A    between atoms: C_11  and  C_13
REMARK    6  A    between atoms: C_13  and  S_14
REMARK    7  A    between atoms: S_14  and  C_15
REMARK                            x       y       z     vdW  Elec       q    Type
REMARK                         _______ _______ _______ _____ _____    ______ ____
ROOT
ATOM      1  C   UNL     1      -2.692   4.468   0.219  0.00  0.00    +0.191 A 
ATOM      2  N   UNL     1      -3.696   3.599   0.213  0.00  0.00    -0.207 NA
ATOM      3  C   UNL     1      -4.952   3.977   0.047  0.00  0.00    +0.129 A 
ATOM      4  C   UNL     1      -5.245   5.358  -0.132  0.00  0.00    +0.051 A 
ATOM      5  C   UNL     1      -6.546   5.999  -0.333  0.00  0.00    -0.025 A 
ATOM      6  C   UNL     1      -6.552   7.339  -0.478  0.00  0.00    -0.004 A 
ATOM      7  S   UNL     1      -4.851   7.825  -0.359  0.00  0.00    -0.073 S 
ATOM      8  C   UNL     1      -4.132   6.222  -0.114  0.00  0.00    +0.115 A 
ATOM      9  N   UNL     1      -2.906   5.767   0.063  0.00  0.00    -0.214 NA
ATOM     10  C   UNL     1      -7.742   8.224  -0.694  0.00  0.00    +0.043 C 
ATOM     11  C   UNL     1      -8.933   7.344  -1.099  0.00  0.00    +0.005 C 
ATOM     12  C   UNL     1      -9.018   6.159  -0.133  0.00  0.00    +0.005 C 
ATOM     13  C   UNL     1      -7.849   5.205  -0.378  0.00  0.00    +0.037 C 
ATOM     14  N   UNL     1      -5.970   3.040   0.047  0.00  0.00    -0.343 N 
ATOM     15  H   UNL     1      -5.809   2.150   0.397  0.00  0.00    +0.144 HD
ATOM     16  H   UNL     1      -6.844   3.274  -0.303  0.00  0.00    +0.144 HD
ENDROOT
BRANCH   1  17
ATOM     17  S   UNL     1      -1.045   3.885   0.447  0.00  0.00    -0.077 S 
BRANCH  17  18
ATOM     18  C   UNL     1      -1.359   2.110   0.607  0.00  0.00    +0.173 C 
BRANCH  18  20
ATOM     19  N   UNL     1      -0.043   0.045   0.962  0.00  0.00    -0.315 N 
ATOM     20  C   UNL     1      -0.054   1.385   0.816  0.00  0.00    +0.223 C 
ATOM     21  O   UNL     1       0.987   2.007   0.847  0.00  0.00    -0.275 OA
ATOM     22  H   UNL     1      -0.875  -0.452   0.937  0.00  0.00    +0.149 HD
BRANCH  19  23
ATOM     23  C   UNL     1       1.226  -0.660   1.159  0.00  0.00    +0.104 C 
BRANCH  23  24
ATOM     24  C   UNL     1       0.960  -2.160   1.296  0.00  0.00    +0.023 C 
BRANCH  24  25
ATOM     25  C   UNL     1       2.286  -2.896   1.501  0.00  0.00    +0.036 C 
BRANCH  25  29
ATOM     26  C   UNL     1       1.543  -7.086   1.884  0.00  0.00    +0.000 A 
ATOM     27  C   UNL     1       1.776  -6.536   0.637  0.00  0.00    +0.000 A 
ATOM     28  C   UNL     1       2.016  -5.180   0.513  0.00  0.00    +0.003 A 
ATOM     29  C   UNL     1       2.024  -4.374   1.636  0.00  0.00    -0.047 A 
ATOM     30  C   UNL     1       1.797  -4.925   2.884  0.00  0.00    +0.003 A 
ATOM     31  C   UNL     1       1.552  -6.280   3.007  0.00  0.00    +0.000 A 
ENDBRANCH  25  29
ENDBRANCH  24  25
ENDBRANCH  23  24
ENDBRANCH  19  23
ENDBRANCH  18  20
ENDBRANCH  17  18
ENDBRANCH   1  17
TORSDOF 7
