REMARK  Name = ZINC58160432
REMARK  3 active torsions:
REMARK  status: ('A' for Active; 'I' for Inactive)
REMARK    1  A    between atoms: C_8  and  C_10
REMARK    2  A    between atoms: N_15  and  C_16
REMARK    3  A    between atoms: C_16  and  C_17
REMARK                            x       y       z     vdW  Elec       q    Type
REMARK                         _______ _______ _______ _____ _____    ______ ____
ROOT
ATOM      1  C   UNL     1       2.974  -4.024   0.100  0.00  0.00    +0.113 C 
ATOM      2  C   UNL     1       3.240  -4.370  -1.380  0.00  0.00    +0.027 C 
ATOM      3  C   UNL     1       4.523  -5.239  -1.310  0.00  0.00    +0.017 C 
ATOM      4  C   UNL     1       5.296  -4.564  -0.150  0.00  0.00    +0.085 C 
ATOM      5  N   UNL     1       4.250  -4.170   0.823  0.00  0.00    -0.288 NA
ENDROOT
BRANCH   1  13
ATOM      6  C   UNL     1       2.315   2.100  -0.092  0.00  0.00    +0.002 A 
ATOM      7  C   UNL     1       1.058   2.038   0.493  0.00  0.00    +0.001 A 
ATOM      8  C   UNL     1       0.527   0.809   0.837  0.00  0.00    +0.017 A 
ATOM      9  C   UNL     1       1.255  -0.331   0.594  0.00  0.00    +0.039 A 
ATOM     10  C   UNL     1       2.537  -0.295  -0.001  0.00  0.00    +0.079 A 
ATOM     11  C   UNL     1       3.044   0.977  -0.338  0.00  0.00    +0.029 A 
ATOM     12  N   UNL     1       3.089  -1.516  -0.157  0.00  0.00    -0.242 NA
ATOM     13  C   UNL     1       2.479  -2.604   0.213  0.00  0.00    +0.097 A 
ATOM     14  S   UNL     1       1.014  -2.070   0.846  0.00  0.00    -0.071 S 
ENDBRANCH   1  13
BRANCH   5  15
ATOM     15  C   UNL     1       4.611  -2.922   1.510  0.00  0.00    +0.140 C 
BRANCH  15  16
ATOM     16  C   UNL     1       5.731  -3.191   2.482  0.00  0.00    +0.063 A 
ATOM     17  C   UNL     1       6.967  -2.604   2.290  0.00  0.00    +0.095 A 
ATOM     18  C   UNL     1       7.992  -2.868   3.206  0.00  0.00    +0.259 A 
ATOM     19  O   UNL     1       9.095  -2.365   3.064  0.00  0.00    -0.267 OA
ATOM     20  N   UNL     1       7.740  -3.688   4.250  0.00  0.00    -0.267 N 
ATOM     21  C   UNL     1       8.727  -3.954   5.150  0.00  0.00    +0.111 A 
ATOM     22  C   UNL     1       8.500  -4.772   6.203  0.00  0.00    +0.035 A 
ATOM     23  C   UNL     1       7.237  -5.357   6.380  0.00  0.00    +0.020 A 
ATOM     24  C   UNL     1       6.244  -5.096   5.485  0.00  0.00    +0.048 A 
ATOM     25  C   UNL     1       6.500  -4.243   4.396  0.00  0.00    +0.141 A 
ATOM     26  N   UNL     1       5.529  -3.984   3.522  0.00  0.00    -0.233 NA
ATOM     27 BR   UNL     1       9.886  -5.127   7.439  0.00  0.00    -0.049 Br
ENDBRANCH  15  16
ENDBRANCH   5  15
TORSDOF 3
