REMARK  Name = ZINC50082119
REMARK  11 active torsions:
REMARK  status: ('A' for Active; 'I' for Inactive)
REMARK    1  A    between atoms: C_1  and  C_2
REMARK    2  A    between atoms: N_5  and  C_11
REMARK    3  A    between atoms: C_7  and  C_10
REMARK    4  A    between atoms: C_14  and  N_17
REMARK    5  A    between atoms: N_20  and  C_21
REMARK    6  A    between atoms: N_20  and  C_22
REMARK    7  A    between atoms: C_22  and  C_23
REMARK    8  A    between atoms: N_25  and  C_26
REMARK    9  A    between atoms: C_26  and  C_27
REMARK   10  A    between atoms: C_26  and  C_28
REMARK   11  A    between atoms: C_26  and  C_29
REMARK                            x       y       z     vdW  Elec       q    Type
REMARK                         _______ _______ _______ _____ _____    ______ ____
ROOT
ATOM      1  N   UNL     1       4.739   2.504  -5.317  0.00  0.00    -0.269 N 
ATOM      2  C   UNL     1       4.341   2.308  -6.590  0.00  0.00    +0.307 C 
ATOM      3  O   UNL     1       3.361   1.628  -6.823  0.00  0.00    -0.252 OA
ATOM      4  N   UNL     1       5.032   2.866  -7.605  0.00  0.00    -0.280 N 
ATOM      5  C   UNL     1       6.213   3.685  -7.324  0.00  0.00    +0.134 C 
ATOM      6  H   UNL     1       5.481   3.098  -5.127  0.00  0.00    +0.156 HD
ENDROOT
BRANCH   1  10
ATOM      7  C   UNL     1       2.775   0.552  -2.197  0.00  0.00    +0.030 A 
ATOM      8  C   UNL     1       2.058   0.990  -3.303  0.00  0.00    +0.025 A 
ATOM      9  C   UNL     1       2.708   1.636  -4.335  0.00  0.00    +0.025 A 
ATOM     10  C   UNL     1       4.079   1.848  -4.268  0.00  0.00    +0.035 A 
ATOM     11  C   UNL     1       4.795   1.411  -3.163  0.00  0.00    +0.025 A 
ATOM     12  C   UNL     1       4.145   0.770  -2.127  0.00  0.00    +0.025 A 
BRANCH   7  16
ATOM     13  C   UNL     1       2.850  -2.972  -1.026  0.00  0.00    +0.039 C 
ATOM     14  C   UNL     1       2.409  -2.128   0.172  0.00  0.00    +0.133 C 
ATOM     15  C   UNL     1       2.869  -0.679  -0.025  0.00  0.00    +0.136 C 
ATOM     16  N   UNL     1       2.116  -0.102  -1.150  0.00  0.00    -0.325 N 
ATOM     17  C   UNL     1       0.651  -0.234  -1.142  0.00  0.00    +0.136 C 
ATOM     18  C   UNL     1       0.299  -1.705  -0.891  0.00  0.00    +0.133 C 
ATOM     19  O   UNL     1       0.984  -2.160   0.280  0.00  0.00    -0.371 OA
ATOM     20  C   UNL     1      -1.211  -1.841  -0.686  0.00  0.00    +0.039 C 
ENDBRANCH   7  16
ENDBRANCH   1  10
BRANCH   4  21
ATOM     21  C   UNL     1       4.600   2.653  -8.988  0.00  0.00    +0.204 C 
BRANCH  21  22
ATOM     22  C   UNL     1       3.631   3.737  -9.385  0.00  0.00    +0.231 C 
ATOM     23  O   UNL     1       3.331   4.603  -8.590  0.00  0.00    -0.274 OA
ATOM     24  N   UNL     1       3.099   3.745 -10.623  0.00  0.00    -0.309 N 
ATOM     25  H   UNL     1       3.339   3.054 -11.259  0.00  0.00    +0.149 HD
BRANCH  24  26
ATOM     26  C   UNL     1       2.157   4.800 -11.008  0.00  0.00    +0.026 C 
ATOM     27  C   UNL     1       2.842   6.163 -10.892  0.00  0.00    +0.031 C 
ATOM     28  C   UNL     1       1.706   4.577 -12.453  0.00  0.00    +0.031 C 
ATOM     29  C   UNL     1       0.940   4.760 -10.082  0.00  0.00    +0.031 C 
ENDBRANCH  24  26
ENDBRANCH  21  22
ENDBRANCH   4  21
TORSDOF 5
