REMARK  Name = ZINC36494681
REMARK  13 active torsions:
REMARK  status: ('A' for Active; 'I' for Inactive)
REMARK    1  A    between atoms: C_1  and  C_2
REMARK    2  A    between atoms: C_2  and  C_3
REMARK    3  A    between atoms: C_2  and  C_4
REMARK    4  A    between atoms: C_4  and  C_5
REMARK    5  A    between atoms: N_7  and  C_8
REMARK    6  A    between atoms: N_7  and  C_14
REMARK    7  A    between atoms: C_8  and  C_9
REMARK    8  A    between atoms: C_14  and  C_16
REMARK    9  A    between atoms: C_14  and  C_25
REMARK   10  A    between atoms: C_17  and  O_24
REMARK   11  A    between atoms: C_19  and  O_23
REMARK   12  A    between atoms: C_21  and  O_22
REMARK   13  A    between atoms: N_27  and  C_28
REMARK                            x       y       z     vdW  Elec       q    Type
REMARK                         _______ _______ _______ _____ _____    ______ ____
ROOT
ATOM      1  C   UNL     1      -2.738  -3.683  -0.373  0.00  0.00    +0.200 C 
ENDROOT
BRANCH   1   2
ATOM      2  C   UNL     1      -3.134  -4.889   0.439  0.00  0.00    +0.065 A 
ATOM      3  C   UNL     1      -4.371  -4.927   1.065  0.00  0.00    +0.129 A 
ATOM      4  C   UNL     1      -4.736  -6.037   1.813  0.00  0.00    +0.091 A 
ATOM      5  C   UNL     1      -3.864  -7.108   1.935  0.00  0.00    +0.124 A 
ATOM      6  C   UNL     1      -2.627  -7.070   1.308  0.00  0.00    +0.091 A 
ATOM      7  C   UNL     1      -2.264  -5.963   0.556  0.00  0.00    +0.129 A 
BRANCH   7   8
ATOM      8  O   UNL     1      -1.055  -5.927  -0.062  0.00  0.00    -0.506 OA
ATOM      9  H   UNL     1      -0.347  -5.550   0.479  0.00  0.00    +0.292 HD
ENDBRANCH   7   8
BRANCH   5  10
ATOM     10  O   UNL     1      -4.221  -8.195   2.668  0.00  0.00    -0.507 OA
ATOM     11  H   UNL     1      -4.678  -8.879   2.161  0.00  0.00    +0.292 HD
ENDBRANCH   5  10
BRANCH   3  12
ATOM     12  O   UNL     1      -5.226  -3.877   0.946  0.00  0.00    -0.506 OA
ATOM     13  H   UNL     1      -5.887  -3.986   0.249  0.00  0.00    +0.292 HD
ENDBRANCH   3  12
ENDBRANCH   1   2
BRANCH   1  14
ATOM     14  C   UNL     1      -3.410  -3.743  -1.721  0.00  0.00    +0.239 C 
ATOM     15  O   UNL     1      -3.570  -2.728  -2.365  0.00  0.00    -0.273 OA
ATOM     16  N   UNL     1      -3.834  -4.925  -2.211  0.00  0.00    -0.311 N 
ATOM     17  H   UNL     1      -3.706  -5.737  -1.696  0.00  0.00    +0.149 HD
BRANCH  16  18
ATOM     18  C   UNL     1      -4.487  -4.983  -3.521  0.00  0.00    +0.073 C 
ATOM     19  C   UNL     1      -5.979  -4.681  -3.361  0.00  0.00    +0.022 C 
ATOM     20  C   UNL     1      -6.661  -4.742  -4.729  0.00  0.00    +0.002 C 
ATOM     21  C   UNL     1      -6.484  -6.140  -5.325  0.00  0.00    +0.000 C 
ATOM     22  C   UNL     1      -4.993  -6.441  -5.486  0.00  0.00    +0.002 C 
ATOM     23  C   UNL     1      -4.311  -6.381  -4.117  0.00  0.00    +0.022 C 
ENDBRANCH  16  18
ENDBRANCH   1  14
BRANCH   1  26
ATOM     24  C   UNL     1      -2.618  -2.160   1.525  0.00  0.00    +0.217 C 
ATOM     25  O   UNL     1      -1.792  -2.894   2.024  0.00  0.00    -0.276 OA
ATOM     26  N   UNL     1      -3.154  -2.465   0.326  0.00  0.00    -0.278 N 
BRANCH  24  27
ATOM     27  C   UNL     1      -3.046  -0.907   2.244  0.00  0.00    +0.099 C 
BRANCH  27  29
ATOM     28  C   UNL     1      -2.632   0.533   4.243  0.00  0.00    +0.008 C 
ATOM     29  C   UNL     1      -2.292  -0.799   3.571  0.00  0.00    -0.008 C 
ATOM     30  C   UNL     1      -2.706  -1.952   4.488  0.00  0.00    +0.008 C 
ENDBRANCH  27  29
ENDBRANCH  24  27
BRANCH  26  31
ATOM     31  C   UNL     1      -4.151  -1.578  -0.278  0.00  0.00    +0.183 C 
BRANCH  31  32
ATOM     32  C   UNL     1      -3.461  -0.378  -0.873  0.00  0.00    +0.122 A 
ATOM     33  C   UNL     1      -3.123  -0.226  -2.166  0.00  0.00    +0.046 A 
ATOM     34  C   UNL     1      -2.501   1.039  -2.281  0.00  0.00    +0.041 A 
ATOM     35  C   UNL     1      -2.497   1.584  -1.051  0.00  0.00    +0.195 A 
ATOM     36  O   UNL     1      -3.085   0.724  -0.204  0.00  0.00    -0.466 OA
ENDBRANCH  31  32
ENDBRANCH  26  31
ENDBRANCH   1  26
TORSDOF 11
