REMARK  Name = ZINC23750563
REMARK  7 active torsions:
REMARK  status: ('A' for Active; 'I' for Inactive)
REMARK    1  A    between atoms: C_1  and  C_2
REMARK    2  A    between atoms: C_2  and  C_4
REMARK    3  A    between atoms: C_2  and  N_24
REMARK    4  A    between atoms: C_7  and  C_19
REMARK    5  A    between atoms: C_10  and  C_12
REMARK    6  A    between atoms: N_27  and  C_30
REMARK    7  A    between atoms: C_33  and  O_36
REMARK                            x       y       z     vdW  Elec       q    Type
REMARK                         _______ _______ _______ _____ _____    ______ ____
ROOT
ATOM      1  C   UNL     1      -1.089  -0.805  -0.060  0.00  0.00    +0.222 C 
ATOM      2  O   UNL     1      -2.181  -0.328  -0.287  0.00  0.00    -0.276 OA
ATOM      3  N   UNL     1      -0.030   0.004   0.141  0.00  0.00    -0.183 N 
ATOM      4  C   UNL     1      -0.058   1.475   0.113  0.00  0.00    +0.172 C 
ATOM      5  C   UNL     1       1.404   1.870   0.401  0.00  0.00    +0.090 C 
ATOM      6  C   UNL     1       2.114   0.545   0.564  0.00  0.00    +0.069 C 
ATOM      7  N   UNL     1       1.271  -0.416   0.409  0.00  0.00    -0.181 NA
ENDROOT
BRANCH   6   8
ATOM      8  C   UNL     1       3.550   0.380   0.854  0.00  0.00    -0.002 A 
ATOM      9  C   UNL     1       4.371   1.502   0.996  0.00  0.00    +0.011 A 
ATOM     10  C   UNL     1       5.712   1.340   1.273  0.00  0.00    +0.020 A 
ATOM     11  C   UNL     1       6.248   0.069   1.399  0.00  0.00    +0.041 A 
ATOM     12  C   UNL     1       5.441  -1.047   1.254  0.00  0.00    +0.020 A 
ATOM     13  C   UNL     1       4.097  -0.899   0.983  0.00  0.00    +0.011 A 
ATOM     14 CL   UNL     1       7.939  -0.125   1.740  0.00  0.00    -0.084 Cl
ENDBRANCH   6   8
BRANCH   4  15
ATOM     15  C   UNL     1      -0.973   2.008   1.186  0.00  0.00    +0.128 A 
ATOM     16  C   UNL     1      -1.795   3.066   1.064  0.00  0.00    +0.046 A 
ATOM     17  C   UNL     1      -2.461   3.212   2.302  0.00  0.00    +0.041 A 
ATOM     18  C   UNL     1      -2.007   2.234   3.107  0.00  0.00    +0.195 A 
ATOM     19  O   UNL     1      -1.110   1.505   2.423  0.00  0.00    -0.466 OA
ENDBRANCH   4  15
BRANCH   1  21
ATOM     20  C   UNL     1      -0.238  -2.785  -1.284  0.00  0.00    -0.004 C 
ATOM     21  C   UNL     1      -0.917  -2.301  -0.002  0.00  0.00    +0.018 C 
BRANCH  21  22
ATOM     22  N   UNL     1      -2.233  -2.941   0.127  0.00  0.00    +0.389 N 
ATOM     23  C   UNL     1      -2.099  -4.337   0.564  0.00  0.00    -0.059 C 
ATOM     24  C   UNL     1      -3.490  -4.942   0.763  0.00  0.00    +0.086 C 
ATOM     25  N   UNL     1      -4.243  -4.858  -0.497  0.00  0.00    -0.333 N 
ATOM     26  C   UNL     1      -4.377  -3.461  -0.934  0.00  0.00    +0.086 C 
ATOM     27  C   UNL     1      -2.985  -2.856  -1.133  0.00  0.00    -0.059 C 
ATOM     28  H   UNL     1      -2.798  -2.396   0.898  0.00  0.00    -0.081 HD
BRANCH  25  29
ATOM     29  C   UNL     1      -5.497  -5.467  -0.374  0.00  0.00    +0.030 A 
ATOM     30  C   UNL     1      -6.650  -4.745  -0.650  0.00  0.00    +0.026 A 
ATOM     31  C   UNL     1      -7.887  -5.349  -0.533  0.00  0.00    +0.047 A 
ATOM     32  C   UNL     1      -7.977  -6.674  -0.131  0.00  0.00    +0.117 A 
ATOM     33  C   UNL     1      -6.826  -7.394   0.151  0.00  0.00    +0.047 A 
ATOM     34  C   UNL     1      -5.588  -6.793   0.030  0.00  0.00    +0.026 A 
BRANCH  32  35
ATOM     35  O   UNL     1      -9.195  -7.266  -0.011  0.00  0.00    -0.507 OA
ATOM     36  H   UNL     1      -9.267  -8.316   0.308  0.00  0.00    +0.292 HD
ENDBRANCH  32  35
ENDBRANCH  25  29
ENDBRANCH  21  22
ENDBRANCH   1  21
TORSDOF 6
