REMARK  Name = ZINC33681043
REMARK  9 active torsions:
REMARK  status: ('A' for Active; 'I' for Inactive)
REMARK    1  A    between atoms: C_1  and  O_2
REMARK    2  A    between atoms: O_2  and  C_3
REMARK    3  A    between atoms: C_3  and  C_4
REMARK    4  A    between atoms: C_4  and  N_5
REMARK    5  A    between atoms: N_5  and  C_6
REMARK    6  A    between atoms: N_5  and  S_25
REMARK    7  A    between atoms: C_6  and  C_7
REMARK    8  A    between atoms: C_17  and  C_19
REMARK    9  A    between atoms: S_25  and  C_28
REMARK                            x       y       z     vdW  Elec       q    Type
REMARK                         _______ _______ _______ _____ _____    ______ ____
ROOT
ATOM      1  N   UNL     1      -0.142  -3.159   1.496  0.00  0.00    -0.166 NA
ENDROOT
BRANCH   1   2
ATOM      2  S   UNL     1       1.289  -3.937   1.793  0.00  0.00    +0.063 S 
ATOM      3  O   UNL     1       2.269  -3.309   0.979  0.00  0.00    -0.153 OA
ATOM      4  O   UNL     1       1.416  -4.027   3.206  0.00  0.00    -0.153 OA
BRANCH   2   5
ATOM      5  C   UNL     1       1.119  -5.586   1.196  0.00  0.00    +0.131 A 
ATOM      6  C   UNL     1       1.768  -5.972   0.064  0.00  0.00    +0.031 A 
ATOM      7  C   UNL     1       1.647  -7.271  -0.426  0.00  0.00    +0.003 A 
ATOM      8  C   UNL     1       0.877  -8.192   0.217  0.00  0.00    +0.010 A 
ATOM      9  C   UNL     1       0.194  -7.828   1.389  0.00  0.00    +0.002 A 
ATOM     10  C   UNL     1       0.319  -6.509   1.891  0.00  0.00    +0.097 A 
ATOM     11  N   UNL     1      -0.333  -6.157   3.004  0.00  0.00    -0.253 NA
ATOM     12  C   UNL     1      -1.085  -7.012   3.653  0.00  0.00    +0.111 A 
ATOM     13  C   UNL     1      -1.246  -8.325   3.216  0.00  0.00    +0.020 A 
ATOM     14  C   UNL     1      -0.612  -8.750   2.083  0.00  0.00    +0.011 A 
ENDBRANCH   2   5
ENDBRANCH   1   2
BRANCH   1  15
ATOM     15  C   UNL     1      -0.281  -2.308   0.311  0.00  0.00    +0.138 C 
BRANCH  15  16
ATOM     16  C   UNL     1      -0.044  -0.848   0.702  0.00  0.00    +0.176 C 
BRANCH  16  18
ATOM     17  C   UNL     1       1.611   0.627   1.615  0.00  0.00    +0.194 C 
ATOM     18  O   UNL     1       1.311  -0.681   1.123  0.00  0.00    -0.382 OA
ENDBRANCH  16  18
ENDBRANCH  15  16
ENDBRANCH   1  15
BRANCH   1  19
ATOM     19  C   UNL     1      -1.270  -3.322   2.417  0.00  0.00    +0.205 C 
BRANCH  19  20
ATOM     20  C   UNL     1      -2.175  -4.417   1.913  0.00  0.00    +0.232 C 
ATOM     21  O   UNL     1      -1.905  -5.003   0.887  0.00  0.00    -0.274 OA
ATOM     22  N   UNL     1      -3.285  -4.744   2.604  0.00  0.00    -0.289 N 
ATOM     23  C   UNL     1      -3.637  -4.022   3.836  0.00  0.00    +0.114 C 
ATOM     24  C   UNL     1      -4.960  -3.271   3.587  0.00  0.00    +0.062 C 
ATOM     25  C   UNL     1      -5.897  -4.181   2.861  0.00  0.00    -0.003 A 
ATOM     26  C   UNL     1      -5.599  -5.330   2.196  0.00  0.00    -0.012 A 
ATOM     27  C   UNL     1      -6.663  -5.997   1.590  0.00  0.00    +0.013 A 
ATOM     28  C   UNL     1      -7.916  -5.495   1.683  0.00  0.00    +0.046 A 
ATOM     29  S   UNL     1      -7.651  -4.019   2.654  0.00  0.00    -0.101 S 
ATOM     30  C   UNL     1      -4.157  -5.832   2.141  0.00  0.00    +0.137 C 
BRANCH  30  31
ATOM     31  C   UNL     1      -3.800  -6.205   0.725  0.00  0.00    -0.023 A 
ATOM     32  C   UNL     1      -3.988  -5.294  -0.297  0.00  0.00    +0.006 A 
ATOM     33  C   UNL     1      -3.656  -5.635  -1.596  0.00  0.00    +0.000 A 
ATOM     34  C   UNL     1      -3.145  -6.889  -1.872  0.00  0.00    +0.000 A 
ATOM     35  C   UNL     1      -2.962  -7.801  -0.850  0.00  0.00    +0.000 A 
ATOM     36  C   UNL     1      -3.289  -7.459   0.449  0.00  0.00    +0.006 A 
ENDBRANCH  30  31
ENDBRANCH  19  20
ENDBRANCH   1  19
TORSDOF 8
