REMARK  Name = ZINC15305446
REMARK  4 active torsions:
REMARK  status: ('A' for Active; 'I' for Inactive)
REMARK    1  A    between atoms: C_1  and  C_2
REMARK    2  A    between atoms: C_2  and  C_3
REMARK    3  A    between atoms: N_20  and  C_23
REMARK    4  A    between atoms: C_26  and  C_29
REMARK                            x       y       z     vdW  Elec       q    Type
REMARK                         _______ _______ _______ _____ _____    ______ ____
ROOT
ATOM      1  C   UNL     1      -4.900   0.998   0.207  0.00  0.00    +0.084 C 
ATOM      2  C   UNL     1      -4.824  -0.312  -0.568  0.00  0.00    +0.057 C 
ATOM      3  C   UNL     1      -4.735  -0.058  -2.047  0.00  0.00    +0.000 A 
ATOM      4  C   UNL     1      -5.460   0.992  -2.588  0.00  0.00    +0.007 A 
ATOM      5  C   UNL     1      -5.409   1.252  -3.943  0.00  0.00    +0.001 A 
ATOM      6  C   UNL     1      -4.631   0.462  -4.770  0.00  0.00    +0.004 A 
ATOM      7  C   UNL     1      -3.904  -0.583  -4.238  0.00  0.00    +0.046 A 
ATOM      8  C   UNL     1      -3.950  -0.846  -2.873  0.00  0.00    +0.135 A 
ATOM      9  O   UNL     1      -3.210  -1.880  -2.389  0.00  0.00    -0.425 OA
ATOM     10  C   UNL     1      -3.433  -2.254  -1.115  0.00  0.00    +0.325 C 
ATOM     11  O   UNL     1      -3.477  -3.419  -0.795  0.00  0.00    -0.250 OA
ATOM     12  C   UNL     1      -3.630  -1.143  -0.098  0.00  0.00    +0.193 C 
ATOM     13  C   UNL     1      -2.386  -0.294  -0.090  0.00  0.00    +0.241 C 
ATOM     14  O   UNL     1      -1.306  -0.838  -0.185  0.00  0.00    -0.274 OA
ATOM     15  N   UNL     1      -2.429   1.039   0.020  0.00  0.00    -0.209 N 
ATOM     16  C   UNL     1      -3.580   1.717   0.137  0.00  0.00    +0.230 C 
ATOM     17  O   UNL     1      -3.558   2.929   0.182  0.00  0.00    -0.275 OA
ENDROOT
BRANCH  15  18
ATOM     18  C   UNL     1      -1.224   1.754   0.017  0.00  0.00    +0.044 A 
ATOM     19  C   UNL     1      -0.570   2.020   1.213  0.00  0.00    +0.024 A 
ATOM     20  C   UNL     1       0.620   2.720   1.207  0.00  0.00    +0.005 A 
ATOM     21  C   UNL     1       1.159   3.161   0.012  0.00  0.00    -0.050 A 
ATOM     22  C   UNL     1       0.508   2.902  -1.180  0.00  0.00    +0.005 A 
ATOM     23  C   UNL     1      -0.683   2.203  -1.180  0.00  0.00    +0.024 A 
ATOM     24  C   UNL     1       2.458   3.925   0.009  0.00  0.00    +0.044 C 
ENDBRANCH  15  18
BRANCH   1  26
ATOM     25  C   UNL     1      -5.433   2.020   2.423  0.00  0.00    +0.004 C 
ATOM     26  C   UNL     1      -5.234   0.703   1.670  0.00  0.00    +0.010 C 
ENDBRANCH   1  26
TORSDOF 2
