REMARK  Name = ZINC59833645
REMARK  8 active torsions:
REMARK  status: ('A' for Active; 'I' for Inactive)
REMARK    1  A    between atoms: C_1  and  C_2
REMARK    2  A    between atoms: C_2  and  C_3
REMARK    3  A    between atoms: C_2  and  N_4
REMARK    4  A    between atoms: N_4  and  C_5
REMARK    5  A    between atoms: N_4  and  C_12
REMARK    6  A    between atoms: C_5  and  C_6
REMARK    7  A    between atoms: C_12  and  C_13
REMARK    8  A    between atoms: C_15  and  C_18
REMARK                            x       y       z     vdW  Elec       q    Type
REMARK                         _______ _______ _______ _____ _____    ______ ____
ROOT
ATOM      1  N   UNL     1      -1.804  -0.378   0.134  0.00  0.00    +0.390 N 
ATOM      2  H   UNL     1      -2.290  -0.065   0.962  0.00  0.00    -0.080 HD
ENDROOT
BRANCH   1   4
ATOM      3  C   UNL     1       0.083   0.202  -1.315  0.00  0.00    -0.013 C 
ATOM      4  C   UNL     1      -0.448   0.186   0.120  0.00  0.00    -0.074 C 
ATOM      5  C   UNL     1      -0.483   1.614   0.667  0.00  0.00    -0.013 C 
ENDBRANCH   1   4
BRANCH   1   6
ATOM      6  C   UNL     1      -1.725  -1.845   0.137  0.00  0.00    -0.042 C 
BRANCH   6   7
ATOM      7  C   UNL     1      -1.111  -2.312   1.431  0.00  0.00    -0.064 A 
ATOM      8  C   UNL     1       0.241  -2.594   1.492  0.00  0.00    +0.002 A 
ATOM      9  C   UNL     1       0.805  -3.022   2.680  0.00  0.00    +0.000 A 
ATOM     10  C   UNL     1       0.017  -3.168   3.806  0.00  0.00    +0.000 A 
ATOM     11  C   UNL     1      -1.335  -2.885   3.745  0.00  0.00    +0.000 A 
ATOM     12  C   UNL     1      -1.898  -2.452   2.559  0.00  0.00    +0.002 A 
ENDBRANCH   6   7
ENDBRANCH   1   6
BRANCH   1  13
ATOM     13  C   UNL     1      -2.533   0.071  -1.060  0.00  0.00    +0.022 C 
BRANCH  13  14
ATOM     14  C   UNL     1      -2.769   1.557  -0.976  0.00  0.00    +0.211 A 
ATOM     15  N   UNL     1      -2.072   2.473  -1.584  0.00  0.00    -0.192 NA
ATOM     16  C   UNL     1      -2.557   3.694  -1.288  0.00  0.00    +0.209 A 
ATOM     17  N   UNL     1      -3.580   3.552  -0.477  0.00  0.00    -0.056 NA
ATOM     18  O   UNL     1      -3.735   2.156  -0.267  0.00  0.00    -0.340 OA
BRANCH  16  19
ATOM     19  C   UNL     1      -2.026   4.978  -1.790  0.00  0.00    +0.061 A 
ATOM     20  C   UNL     1      -2.459   6.252  -1.531  0.00  0.00    +0.034 A 
ATOM     21  C   UNL     1      -1.801   7.308  -2.120  0.00  0.00    +0.026 A 
ATOM     22  C   UNL     1      -0.744   7.056  -2.937  0.00  0.00    +0.061 A 
ATOM     23  S   UNL     1      -0.649   5.274  -2.887  0.00  0.00    -0.092 S 
ATOM     24 BR   UNL     1      -2.359   9.085  -1.795  0.00  0.00    -0.050 Br
ENDBRANCH  16  19
ENDBRANCH  13  14
ENDBRANCH   1  13
TORSDOF 6
