REMARK  Name = ZINC12611716
REMARK  6 active torsions:
REMARK  status: ('A' for Active; 'I' for Inactive)
REMARK    1  A    between atoms: C_1  and  C_2
REMARK    2  A    between atoms: C_2  and  C_4
REMARK    3  A    between atoms: C_2  and  O_22
REMARK    4  A    between atoms: C_10  and  C_12
REMARK    5  A    between atoms: O_22  and  C_23
REMARK    6  A    between atoms: C_26  and  C_29
REMARK                            x       y       z     vdW  Elec       q    Type
REMARK                         _______ _______ _______ _____ _____    ______ ____
ROOT
ATOM      1  C   UNL     1      -1.469  -0.317   0.136  0.00  0.00    +0.257 C 
ATOM      2  O   UNL     1      -1.896  -0.796   1.166  0.00  0.00    -0.272 OA
ATOM      3  N   UNL     1      -2.309  -0.059  -0.886  0.00  0.00    -0.288 N 
ATOM      4  C   UNL     1      -1.925   0.513  -2.189  0.00  0.00    +0.109 C 
ATOM      5  C   UNL     1      -3.031   0.045  -3.168  0.00  0.00    +0.021 C 
ATOM      6  C   UNL     1      -4.294   0.119  -2.271  0.00  0.00    +0.032 C 
ATOM      7  C   UNL     1      -3.758  -0.306  -0.887  0.00  0.00    +0.142 C 
ENDROOT
BRANCH   7   8
ATOM      8  C   UNL     1      -4.420   0.513   0.190  0.00  0.00    +0.129 A 
ATOM      9  N   UNL     1      -5.598   0.201   0.794  0.00  0.00    -0.340 N 
ATOM     10  H   UNL     1      -6.150  -0.575   0.611  0.00  0.00    +0.167 HD
ATOM     11  C   UNL     1      -5.862   1.194   1.717  0.00  0.00    +0.066 A 
ATOM     12  C   UNL     1      -6.891   1.426   2.620  0.00  0.00    +0.028 A 
ATOM     13  C   UNL     1      -6.854   2.545   3.424  0.00  0.00    +0.002 A 
ATOM     14  C   UNL     1      -5.796   3.439   3.337  0.00  0.00    +0.002 A 
ATOM     15  C   UNL     1      -4.775   3.227   2.455  0.00  0.00    +0.030 A 
ATOM     16  C   UNL     1      -4.791   2.099   1.630  0.00  0.00    +0.089 A 
ATOM     17  N   UNL     1      -3.944   1.620   0.682  0.00  0.00    -0.231 NA
ENDBRANCH   7   8
BRANCH   1  19
ATOM     18  C   UNL     1       0.196   1.499  -0.139  0.00  0.00    +0.062 C 
ATOM     19  C   UNL     1       0.000  -0.012   0.000  0.00  0.00    +0.256 C 
BRANCH  19  20
ATOM     20  O   UNL     1       0.693  -0.477   1.160  0.00  0.00    -0.480 OA
BRANCH  20  21
ATOM     21  C   UNL     1       2.013  -0.764   1.016  0.00  0.00    +0.122 A 
ATOM     22  C   UNL     1       2.717  -1.331   2.071  0.00  0.00    +0.047 A 
ATOM     23  C   UNL     1       4.056  -1.623   1.929  0.00  0.00    +0.022 A 
ATOM     24  C   UNL     1       4.705  -1.349   0.722  0.00  0.00    +0.052 A 
ATOM     25  C   UNL     1       3.992  -0.778  -0.336  0.00  0.00    +0.022 A 
ATOM     26  C   UNL     1       2.653  -0.494  -0.188  0.00  0.00    +0.047 A 
BRANCH  24  27
ATOM     27  C   UNL     1       6.096  -1.651   0.570  0.00  0.00    +0.099 C 
ATOM     28  N   UNL     1       7.200  -1.890   0.450  0.00  0.00    -0.191 NA
ENDBRANCH  24  27
ENDBRANCH  20  21
ENDBRANCH  19  20
ENDBRANCH   1  19
TORSDOF 5
