REMARK  Name = ZINC39984956
REMARK  5 active torsions:
REMARK  status: ('A' for Active; 'I' for Inactive)
REMARK    1  A    between atoms: C_3  and  C_6
REMARK    2  A    between atoms: C_15  and  C_16
REMARK    3  A    between atoms: C_21  and  N_31
REMARK    4  A    between atoms: C_22  and  C_24
REMARK    5  A    between atoms: C_24  and  C_26
REMARK                            x       y       z     vdW  Elec       q    Type
REMARK                         _______ _______ _______ _____ _____    ______ ____
ROOT
ATOM      1  C   UNL     1       3.541   0.617  -0.045  0.00  0.00    +0.052 C 
ATOM      2  C   UNL     1       4.185  -0.569  -0.055  0.00  0.00    -0.018 C 
ATOM      3  C   UNL     1       3.534  -1.930  -0.068  0.00  0.00    +0.042 C 
ATOM      4  C   UNL     1       4.693  -2.936  -0.075  0.00  0.00    +0.043 C 
ATOM      5  C   UNL     1       5.963  -2.117  -0.067  0.00  0.00    -0.010 A 
ATOM      6  C   UNL     1       5.643  -0.758  -0.061  0.00  0.00    +0.072 A 
ATOM      7  N   UNL     1       6.623   0.155  -0.060  0.00  0.00    -0.239 NA
ATOM      8  C   UNL     1       7.889  -0.182  -0.068  0.00  0.00    +0.112 A 
ATOM      9  C   UNL     1       8.325  -1.528  -0.077  0.00  0.00    +0.040 A 
ATOM     10  C   UNL     1       7.293  -2.522  -0.069  0.00  0.00    +0.034 A 
ATOM     11  C   UNL     1       9.717  -1.722  -0.084  0.00  0.00    +0.053 A 
ATOM     12  C   UNL     1      10.553  -0.619  -0.081  0.00  0.00    +0.083 A 
ATOM     13  S   UNL     1       9.405   0.747  -0.068  0.00  0.00    -0.063 S 
ENDROOT
BRANCH   1  16
ATOM     14  C   UNL     1      -0.035   1.351  -0.029  0.00  0.00    +0.042 A 
ATOM     15  C   UNL     1       1.304   1.781  -0.030  0.00  0.00    +0.049 A 
ATOM     16  C   UNL     1       2.078   0.655  -0.040  0.00  0.00    +0.128 A 
ATOM     17  O   UNL     1       1.258  -0.415  -0.045  0.00  0.00    -0.464 OA
ATOM     18  C   UNL     1      -0.018   0.002  -0.038  0.00  0.00    +0.195 A 
ENDBRANCH   1  16
BRANCH  10  19
ATOM     19  C   UNL     1       7.636  -3.955  -0.081  0.00  0.00    +0.136 A 
ATOM     20  C   UNL     1       8.188  -4.637  -1.123  0.00  0.00    +0.050 A 
ATOM     21  C   UNL     1       8.345  -5.969  -0.698  0.00  0.00    +0.042 A 
ATOM     22  C   UNL     1       7.887  -6.037   0.568  0.00  0.00    +0.196 A 
ATOM     23  O   UNL     1       7.465  -4.818   0.940  0.00  0.00    -0.463 OA
ENDBRANCH  10  19
BRANCH  11  24
ATOM     24  N   UNL     1      10.248  -3.005  -0.094  0.00  0.00    -0.356 N 
ATOM     25  H   UNL     1      11.136  -3.160  -0.452  0.00  0.00    +0.142 HD
ATOM     26  H   UNL     1       9.731  -3.746   0.258  0.00  0.00    +0.142 HD
ENDBRANCH  11  24
BRANCH  12  27
ATOM     27  C   UNL     1      11.968  -0.583  -0.086  0.00  0.00    +0.208 C 
ATOM     28  O   UNL     1      12.605  -1.623  -0.094  0.00  0.00    -0.285 OA
BRANCH  27  29
ATOM     29  C   UNL     1      12.670   0.707  -0.080  0.00  0.00    +0.060 A 
ATOM     30  C   UNL     1      14.033   0.961  -0.089  0.00  0.00    +0.019 A 
ATOM     31  C   UNL     1      14.393   2.287  -0.081  0.00  0.00    +0.008 A 
ATOM     32  C   UNL     1      13.423   3.234  -0.065  0.00  0.00    +0.046 A 
ATOM     33  S   UNL     1      11.991   2.356  -0.069  0.00  0.00    -0.093 S 
ENDBRANCH  27  29
ENDBRANCH  12  27
TORSDOF 5
