REMARK  Name = ZINC46838600
REMARK  10 active torsions:
REMARK  status: ('A' for Active; 'I' for Inactive)
REMARK    1  A    between atoms: C_1  and  C_2
REMARK    2  A    between atoms: N_8  and  C_9
REMARK    3  A    between atoms: C_9  and  C_10
REMARK    4  A    between atoms: C_13  and  C_16
REMARK    5  A    between atoms: C_16  and  N_17
REMARK    6  A    between atoms: C_18  and  C_20
REMARK    7  A    between atoms: C_20  and  C_22
REMARK    8  A    between atoms: C_20  and  N_25
REMARK    9  A    between atoms: C_22  and  C_23
REMARK   10  A    between atoms: C_22  and  C_24
REMARK                            x       y       z     vdW  Elec       q    Type
REMARK                         _______ _______ _______ _____ _____    ______ ____
ROOT
ATOM      1  N   UNL     1       4.288  -2.261   6.645  0.00  0.00    -0.310 N 
ATOM      2  C   UNL     1       5.150  -2.728   7.570  0.00  0.00    +0.234 C 
ATOM      3  O   UNL     1       4.964  -2.493   8.745  0.00  0.00    -0.274 OA
ATOM      4  H   UNL     1       4.437  -2.449   5.705  0.00  0.00    +0.149 HD
ENDROOT
BRANCH   1   5
ATOM      5  C   UNL     1       3.126  -1.471   7.059  0.00  0.00    +0.139 C 
BRANCH   5   9
ATOM      6  C   UNL     1       0.865  -0.347   3.613  0.00  0.00    -0.064 A 
ATOM      7  C   UNL     1       0.585  -1.532   4.268  0.00  0.00    +0.002 A 
ATOM      8  C   UNL     1       1.316  -1.895   5.383  0.00  0.00    +0.005 A 
ATOM      9  C   UNL     1       2.329  -1.075   5.843  0.00  0.00    -0.030 A 
ATOM     10  C   UNL     1       2.610   0.110   5.187  0.00  0.00    +0.005 A 
ATOM     11  C   UNL     1       1.881   0.471   4.070  0.00  0.00    +0.002 A 
BRANCH   6  12
ATOM     12  C   UNL     1       0.067   0.050   2.397  0.00  0.00    -0.043 C 
BRANCH  12  19
ATOM     13  C   UNL     1      -0.019   1.526   0.010  0.00  0.00    -0.013 C 
ATOM     14  C   UNL     1       0.002  -0.004   0.002  0.00  0.00    -0.071 C 
ATOM     15  C   UNL     1       0.717  -0.497  -1.258  0.00  0.00    -0.016 C 
ATOM     16  C   UNL     1       0.735  -2.028  -1.262  0.00  0.00    -0.003 C 
ATOM     17  C   UNL     1       1.410  -2.524   0.020  0.00  0.00    -0.019 C 
ATOM     18  C   UNL     1       0.669  -1.956   1.232  0.00  0.00    -0.078 C 
ATOM     19  N   UNL     1       0.711  -0.490   1.192  0.00  0.00    +0.384 N 
ATOM     20  H   UNL     1       1.671  -0.182   1.159  0.00  0.00    -0.081 HD
ENDBRANCH  12  19
ENDBRANCH   6  12
ENDBRANCH   5   9
ENDBRANCH   1   5
BRANCH   2  21
ATOM     21  C   UNL     1       6.345  -3.541   7.144  0.00  0.00    +0.160 C 
BRANCH  21  22
ATOM     22  N   UNL     1       7.120  -3.926   8.326  0.00  0.00    -0.316 N 
ATOM     23  C   UNL     1       8.465  -4.203   8.208  0.00  0.00    +0.150 C 
ATOM     24  N   UNL     1       9.052  -4.120   7.057  0.00  0.00    -0.113 NA
ATOM     25  S   UNL     1      10.653  -4.526   7.330  0.00  0.00    +0.101 S 
ATOM     26  O   UNL     1      10.902  -5.764   6.678  0.00  0.00    -0.146 OA
ATOM     27  O   UNL     1      11.437  -3.359   7.122  0.00  0.00    -0.146 OA
ATOM     28  C   UNL     1      10.594  -4.836   9.073  0.00  0.00    +0.123 A 
ATOM     29  C   UNL     1       9.251  -4.590   9.390  0.00  0.00    +0.043 A 
ATOM     30  C   UNL     1       8.864  -4.746  10.729  0.00  0.00    +0.013 A 
ATOM     31  C   UNL     1       9.787  -5.122  11.680  0.00  0.00    +0.001 A 
ATOM     32  C   UNL     1      11.108  -5.353  11.338  0.00  0.00    +0.002 A 
ATOM     33  C   UNL     1      11.506  -5.213  10.016  0.00  0.00    +0.030 A 
ATOM     34  H   UNL     1       6.687  -3.985   9.192  0.00  0.00    +0.148 HD
ENDBRANCH  21  22
BRANCH  21  35
ATOM     35  C   UNL     1       5.872  -4.798   6.412  0.00  0.00    +0.012 C 
ATOM     36  C   UNL     1       7.086  -5.624   5.980  0.00  0.00    +0.009 C 
ATOM     37  C   UNL     1       4.995  -5.633   7.348  0.00  0.00    +0.009 C 
ENDBRANCH  21  35
ENDBRANCH   2  21
TORSDOF 7
