REMARK  Name = ZINC63114417
REMARK  6 active torsions:
REMARK  status: ('A' for Active; 'I' for Inactive)
REMARK    1  A    between atoms: C_1  and  C_2
REMARK    2  A    between atoms: C_2  and  N_3
REMARK    3  A    between atoms: N_3  and  C_4
REMARK    4  A    between atoms: N_3  and  S_11
REMARK    5  A    between atoms: C_7  and  N_10
REMARK    6  A    between atoms: S_11  and  C_14
REMARK                            x       y       z     vdW  Elec       q    Type
REMARK                         _______ _______ _______ _____ _____    ______ ____
ROOT
ATOM      1  N   UNL     1      -1.366  -0.461   0.044  0.00  0.00    -0.203 N 
ENDROOT
BRANCH   1   2
ATOM      2  C   UNL     1      -1.882  -0.656  -1.243  0.00  0.00    +0.051 A 
ATOM      3  C   UNL     1      -3.238  -0.900  -1.417  0.00  0.00    +0.026 A 
ATOM      4  C   UNL     1      -3.748  -1.093  -2.685  0.00  0.00    +0.024 A 
ATOM      5  C   UNL     1      -2.905  -1.043  -3.787  0.00  0.00    +0.025 A 
ATOM      6  C   UNL     1      -1.549  -0.799  -3.614  0.00  0.00    +0.024 A 
ATOM      7  C   UNL     1      -1.040  -0.601  -2.345  0.00  0.00    +0.026 A 
BRANCH   5   8
ATOM      8  N   UNL     1      -3.421  -1.239  -5.074  0.00  0.00    -0.358 N 
ATOM      9  H   UNL     1      -4.369  -1.410  -5.195  0.00  0.00    +0.142 HD
ATOM     10  H   UNL     1      -2.832  -1.204  -5.843  0.00  0.00    +0.142 HD
ENDBRANCH   5   8
ENDBRANCH   1   2
BRANCH   1  11
ATOM     11  S   UNL     1      -1.316  -1.722   1.116  0.00  0.00    +0.075 S 
ATOM     12  O   UNL     1      -1.455  -2.912   0.351  0.00  0.00    -0.150 OA
ATOM     13  O   UNL     1      -0.202  -1.489   1.967  0.00  0.00    -0.150 OA
BRANCH  11  14
ATOM     14  C   UNL     1      -2.755  -1.603   2.127  0.00  0.00    +0.110 A 
ATOM     15  C   UNL     1      -2.762  -0.760   3.223  0.00  0.00    +0.029 A 
ATOM     16  C   UNL     1      -3.890  -0.666   4.016  0.00  0.00    +0.003 A 
ATOM     17  C   UNL     1      -5.012  -1.415   3.714  0.00  0.00    +0.015 A 
ATOM     18  C   UNL     1      -5.005  -2.258   2.617  0.00  0.00    +0.020 A 
ATOM     19  C   UNL     1      -3.878  -2.348   1.821  0.00  0.00    +0.044 A 
ATOM     20 BR   UNL     1      -6.540  -3.284   2.204  0.00  0.00    -0.050 Br
ENDBRANCH  11  14
ENDBRANCH   1  11
BRANCH   1  22
ATOM     21  C   UNL     1      -2.035   1.714   0.939  0.00  0.00    +0.026 C 
ATOM     22  C   UNL     1      -0.868   0.858   0.441  0.00  0.00    +0.128 C 
ENDBRANCH   1  22
TORSDOF 5
