REMARK  Name = ZINC32690966
REMARK  6 active torsions:
REMARK  status: ('A' for Active; 'I' for Inactive)
REMARK    1  A    between atoms: C_3  and  N_27
REMARK    2  A    between atoms: C_6  and  C_7
REMARK    3  A    between atoms: C_11  and  C_19
REMARK    4  A    between atoms: C_12  and  N_13
REMARK    5  A    between atoms: C_21  and  O_26
REMARK    6  A    between atoms: C_24  and  O_25
REMARK                            x       y       z     vdW  Elec       q    Type
REMARK                         _______ _______ _______ _____ _____    ______ ____
ROOT
ATOM      1  C   UNL     1       4.312   4.680  -5.752  0.00  0.00    +0.013 C 
ATOM      2  C   UNL     1       4.231   3.745  -4.727  0.00  0.00    -0.027 C 
ATOM      3  C   UNL     1       5.350   2.833  -4.293  0.00  0.00    +0.041 C 
ATOM      4  C   UNL     1       4.790   1.989  -3.138  0.00  0.00    +0.042 C 
ATOM      5  C   UNL     1       3.364   2.457  -2.958  0.00  0.00    -0.017 C 
ATOM      6  C   UNL     1       3.106   3.506  -3.953  0.00  0.00    +0.021 C 
ENDROOT
BRANCH   6   7
ATOM      7  N   UNL     1       1.917   4.162  -4.093  0.00  0.00    -0.389 NA
ATOM      8  C   UNL     1       1.175   4.121  -5.363  0.00  0.00    +0.113 C 
ATOM      9  C   UNL     1      -0.278   3.723  -5.056  0.00  0.00    +0.177 C 
ATOM     10  O   UNL     1      -0.798   4.589  -4.045  0.00  0.00    -0.377 OA
ATOM     11  C   UNL     1      -0.115   4.503  -2.792  0.00  0.00    +0.177 C 
ATOM     12  C   UNL     1       1.343   4.937  -2.981  0.00  0.00    +0.113 C 
ATOM     13  H   UNL     1       2.852   3.597  -3.965  0.00  0.00    +0.127 HD
ENDBRANCH   6   7
BRANCH   1  19
ATOM     14  C   UNL     1       2.805   6.071  -7.088  0.00  0.00    +0.010 A 
ATOM     15  C   UNL     1       1.871   7.079  -7.162  0.00  0.00    +0.033 A 
ATOM     16  C   UNL     1       1.478   7.753  -6.016  0.00  0.00    +0.126 A 
ATOM     17  C   UNL     1       2.017   7.418  -4.783  0.00  0.00    +0.033 A 
ATOM     18  C   UNL     1       2.948   6.410  -4.685  0.00  0.00    +0.010 A 
ATOM     19  C   UNL     1       3.354   5.719  -5.841  0.00  0.00    -0.025 A 
BRANCH  16  20
ATOM     20  N   UNL     1       0.476   8.839  -6.109  0.00  0.00    +0.056 N 
ATOM     21  O   UNL     1       0.100   9.483  -5.024  0.00  0.00    -0.126 OA
ATOM     22  O   UNL     1      -0.038   9.162  -7.278  0.00  0.00    -0.126 OA
ENDBRANCH  16  20
ENDBRANCH   1  19
BRANCH   5  23
ATOM     23  C   UNL     1       2.455   1.974  -2.021  0.00  0.00    +0.025 A 
ATOM     24  C   UNL     1       1.402   1.111  -2.415  0.00  0.00    +0.057 A 
ATOM     25  C   UNL     1       0.523   0.649  -1.483  0.00  0.00    +0.118 A 
ATOM     26  C   UNL     1       0.634   1.015  -0.136  0.00  0.00    +0.049 A 
ATOM     27  C   UNL     1       1.643   1.847   0.300  0.00  0.00    +0.049 A 
ATOM     28  C   UNL     1       2.570   2.350  -0.603  0.00  0.00    +0.125 A 
BRANCH  28  29
ATOM     29  O   UNL     1       3.559   3.171  -0.187  0.00  0.00    -0.506 OA
ATOM     30  H   UNL     1       3.636   3.446   0.875  0.00  0.00    +0.292 HD
ENDBRANCH  28  29
BRANCH  25  31
ATOM     31  O   UNL     1      -0.484  -0.177  -1.869  0.00  0.00    -0.507 OA
ATOM     32  H   UNL     1      -1.200  -0.556  -1.125  0.00  0.00    +0.292 HD
ENDBRANCH  25  31
ENDBRANCH   5  23
TORSDOF 6
