REMARK  Name = ZINC23833611
REMARK  5 active torsions:
REMARK  status: ('A' for Active; 'I' for Inactive)
REMARK    1  A    between atoms: C_1  and  C_2
REMARK    2  A    between atoms: C_5  and  C_34
REMARK    3  A    between atoms: C_17  and  O_20
REMARK    4  A    between atoms: O_20  and  C_21
REMARK    5  A    between atoms: C_21  and  C_22
REMARK                            x       y       z     vdW  Elec       q    Type
REMARK                         _______ _______ _______ _____ _____    ______ ____
ROOT
ATOM      1  C   UNL     1      -3.817  -5.436  -2.150  0.00  0.00    +0.009 C 
ATOM      2  C   UNL     1      -3.692  -4.486  -0.958  0.00  0.00    +0.004 C 
ATOM      3  C   UNL     1      -4.913  -3.563  -0.909  0.00  0.00    +0.009 C 
ATOM      4  C   UNL     1      -4.752  -2.576   0.250  0.00  0.00    +0.004 C 
ATOM      5  C   UNL     1      -3.454  -1.786   0.063  0.00  0.00    +0.109 C 
ATOM      6  N   UNL     1      -2.316  -2.713   0.024  0.00  0.00    -0.315 N 
ATOM      7  C   UNL     1      -2.426  -3.640  -1.110  0.00  0.00    +0.109 C 
ATOM      8  C   UNL     1      -1.113  -2.022  -0.013  0.00  0.00    +0.122 A 
ATOM      9  C   UNL     1       0.089  -2.743  -0.054  0.00  0.00    +0.044 A 
ATOM     10  C   UNL     1       1.278  -2.078  -0.091  0.00  0.00    +0.013 A 
ATOM     11  C   UNL     1       1.255  -0.668  -0.087  0.00  0.00    +0.004 A 
ATOM     12  C   UNL     1       2.443   0.080  -0.124  0.00  0.00    +0.010 A 
ATOM     13  C   UNL     1       2.385   1.441  -0.120  0.00  0.00    +0.004 A 
ATOM     14  C   UNL     1       1.163   2.105  -0.077  0.00  0.00    +0.048 A 
ATOM     15  C   UNL     1      -0.013   1.411  -0.041  0.00  0.00    +0.147 A 
ATOM     16  C   UNL     1       0.009   0.001  -0.045  0.00  0.00    +0.115 A 
ATOM     17  N   UNL     1      -1.127  -0.705  -0.011  0.00  0.00    -0.228 NA
ATOM     18  C   UNL     1      -4.696  -3.345   1.571  0.00  0.00    +0.009 C 
ENDROOT
BRANCH  15  19
ATOM     19  O   UNL     1      -1.198   2.075  -0.006  0.00  0.00    -0.481 OA
BRANCH  19  20
ATOM     20  C   UNL     1      -1.141   3.503  -0.004  0.00  0.00    +0.325 C 
BRANCH  20  21
ATOM     21  C   UNL     1      -2.540   4.062   0.036  0.00  0.00    +0.257 C 
ATOM     22  O   UNL     1      -3.493   3.315  -0.030  0.00  0.00    -0.272 OA
ATOM     23  N   UNL     1      -2.732   5.391   0.146  0.00  0.00    -0.268 N 
ATOM     24  C   UNL     1      -1.588   6.313   0.147  0.00  0.00    +0.114 C 
ATOM     25  C   UNL     1      -1.813   7.338   1.267  0.00  0.00    +0.024 C 
ATOM     26  C   UNL     1      -3.069   8.149   0.948  0.00  0.00    +0.038 C 
ATOM     27  C   UNL     1      -4.226   7.234   0.646  0.00  0.00    -0.026 A 
ATOM     28  C   UNL     1      -4.026   5.918   0.256  0.00  0.00    +0.040 A 
ATOM     29  C   UNL     1      -5.116   5.100  -0.014  0.00  0.00    +0.024 A 
ATOM     30  C   UNL     1      -6.399   5.598   0.097  0.00  0.00    +0.002 A 
ATOM     31  C   UNL     1      -6.598   6.911   0.482  0.00  0.00    +0.000 A 
ATOM     32  C   UNL     1      -5.516   7.725   0.756  0.00  0.00    +0.005 A 
ENDBRANCH  20  21
ENDBRANCH  19  20
ENDBRANCH  15  19
TORSDOF 3
