REMARK  Name = ZINC25499320
REMARK  9 active torsions:
REMARK  status: ('A' for Active; 'I' for Inactive)
REMARK    1  A    between atoms: C_1  and  C_2
REMARK    2  A    between atoms: C_5  and  O_30
REMARK    3  A    between atoms: C_6  and  C_8
REMARK    4  A    between atoms: C_8  and  C_9
REMARK    5  A    between atoms: C_10  and  C_17
REMARK    6  A    between atoms: C_12  and  C_16
REMARK    7  A    between atoms: C_18  and  C_19
REMARK    8  A    between atoms: C_28  and  O_29
REMARK    9  A    between atoms: O_30  and  C_31
REMARK                            x       y       z     vdW  Elec       q    Type
REMARK                         _______ _______ _______ _____ _____    ______ ____
ROOT
ATOM      1  C   UNL     1       0.932  -3.739   3.628  0.00  0.00    +0.047 A 
ATOM      2  C   UNL     1       1.883  -2.867   4.152  0.00  0.00    +0.074 A 
ATOM      3  N   UNL     1       3.169  -3.262   4.236  0.00  0.00    -0.234 NA
ATOM      4  C   UNL     1       3.541  -4.445   3.837  0.00  0.00    +0.107 A 
ATOM      5  N   UNL     1       2.658  -5.332   3.320  0.00  0.00    -0.311 N 
ATOM      6  C   UNL     1       1.352  -5.010   3.209  0.00  0.00    +0.256 A 
ATOM      7  O   UNL     1       0.552  -5.809   2.748  0.00  0.00    -0.267 OA
ATOM      8  C   UNL     1       4.992  -4.836   3.953  0.00  0.00    +0.086 C 
ATOM      9  H   UNL     1       2.965  -6.206   3.031  0.00  0.00    +0.170 HD
ENDROOT
BRANCH   2  10
ATOM     10  C   UNL     1       1.488  -1.530   4.607  0.00  0.00    +0.029 C 
ATOM     11  C   UNL     1       2.390  -0.730   5.215  0.00  0.00    +0.014 C 
BRANCH  11  12
ATOM     12  C   UNL     1       1.967   0.553   5.783  0.00  0.00    +0.024 A 
ATOM     13  C   UNL     1       2.211   0.864   7.192  0.00  0.00    -0.007 A 
ATOM     14  C   UNL     1       2.854  -0.045   8.040  0.00  0.00    +0.009 A 
ATOM     15  C   UNL     1       3.063   0.283   9.347  0.00  0.00    +0.001 A 
ATOM     16  C   UNL     1       2.646   1.512   9.850  0.00  0.00    +0.001 A 
ATOM     17  C   UNL     1       2.018   2.420   9.052  0.00  0.00    +0.008 A 
ATOM     18  C   UNL     1       1.786   2.115   7.700  0.00  0.00    -0.017 A 
ATOM     19  C   UNL     1       1.141   3.028   6.846  0.00  0.00    +0.012 A 
ATOM     20  C   UNL     1       0.922   2.724   5.540  0.00  0.00    +0.046 A 
ATOM     21  C   UNL     1       1.326   1.508   4.990  0.00  0.00    +0.125 A 
BRANCH  21  22
ATOM     22  O   UNL     1       1.092   1.250   3.679  0.00  0.00    -0.506 OA
ATOM     23  H   UNL     1       0.232   0.843   3.506  0.00  0.00    +0.292 HD
ENDBRANCH  21  22
ENDBRANCH  11  12
ENDBRANCH   2  10
BRANCH   1  24
ATOM     24  C   UNL     1      -0.514  -3.330   3.520  0.00  0.00    +0.081 C 
BRANCH  24  30
ATOM     25  C   UNL     1      -0.793   0.513   0.328  0.00  0.00    +0.044 C 
ATOM     26  C   UNL     1      -0.918  -0.963   0.607  0.00  0.00    -0.050 A 
ATOM     27  C   UNL     1      -1.281  -1.829  -0.409  0.00  0.00    +0.007 A 
ATOM     28  C   UNL     1      -1.397  -3.182  -0.155  0.00  0.00    +0.046 A 
ATOM     29  C   UNL     1      -1.148  -3.672   1.119  0.00  0.00    +0.124 A 
ATOM     30  C   UNL     1      -0.784  -2.801   2.135  0.00  0.00    -0.001 A 
ATOM     31  C   UNL     1      -0.664  -1.449   1.876  0.00  0.00    +0.011 A 
BRANCH  29  32
ATOM     32  O   UNL     1      -1.262  -5.002   1.371  0.00  0.00    -0.495 OA
ATOM     33  C   UNL     1      -1.642  -5.839   0.276  0.00  0.00    +0.277 C 
ENDBRANCH  29  32
ENDBRANCH  24  30
ENDBRANCH   1  24
TORSDOF 6
