REMARK  Name = ZINC09265669
REMARK  5 active torsions:
REMARK  status: ('A' for Active; 'I' for Inactive)
REMARK    1  A    between atoms: C_4  and  O_7
REMARK    2  A    between atoms: O_7  and  C_8
REMARK    3  A    between atoms: C_8  and  C_9
REMARK    4  A    between atoms: N_11  and  C_12
REMARK    5  A    between atoms: C_20  and  C_21
REMARK                            x       y       z     vdW  Elec       q    Type
REMARK                         _______ _______ _______ _____ _____    ______ ____
ROOT
ATOM      1  C   UNL     1       0.841   3.601  -0.024  0.00  0.00    +0.092 A 
ATOM      2  C   UNL     1       1.187   2.233   0.381  0.00  0.00    +0.042 A 
ATOM      3  C   UNL     1       2.340   1.633   0.886  0.00  0.00    +0.013 A 
ATOM      4  C   UNL     1       2.340   0.296   1.171  0.00  0.00    +0.001 A 
ATOM      5  C   UNL     1       1.200  -0.467   0.959  0.00  0.00    +0.004 A 
ATOM      6  C   UNL     1       0.051   0.108   0.460  0.00  0.00    +0.047 A 
ATOM      7  C   UNL     1       0.029   1.466   0.164  0.00  0.00    +0.138 A 
ATOM      8  O   UNL     1      -0.922   2.285  -0.328  0.00  0.00    -0.448 OA
ATOM      9  C   UNL     1      -0.461   3.551  -0.441  0.00  0.00    +0.212 A 
ENDROOT
BRANCH   9  10
ATOM     10  C   UNL     1      -1.232   4.689  -0.937  0.00  0.00    +0.284 C 
ATOM     11  O   UNL     1      -0.688   5.764  -1.112  0.00  0.00    -0.267 OA
ATOM     12  N   UNL     1      -2.547   4.549  -1.200  0.00  0.00    -0.295 N 
ATOM     13  C   UNL     1      -3.190   3.296  -0.871  0.00  0.00    +0.108 C 
ATOM     14  C   UNL     1      -3.086   2.322  -2.063  0.00  0.00    +0.019 C 
ATOM     15  C   UNL     1      -3.960   2.764  -3.161  0.00  0.00    +0.002 C 
ATOM     16  C   UNL     1      -3.594   4.123  -3.748  0.00  0.00    +0.002 C 
ATOM     17  C   UNL     1      -4.234   5.213  -2.924  0.00  0.00    +0.019 C 
ATOM     18  C   UNL     1      -3.269   5.678  -1.819  0.00  0.00    +0.108 C 
ENDBRANCH   9  10
BRANCH   1  21
ATOM     19  C   UNL     1       2.993   4.583  -0.194  0.00  0.00    +0.255 C 
ATOM     20  O   UNL     1       3.476   3.478  -0.323  0.00  0.00    -0.272 OA
ATOM     21  N   UNL     1       1.667   4.718   0.009  0.00  0.00    -0.279 N 
ATOM     22  H   UNL     1       1.290   5.596   0.178  0.00  0.00    +0.155 HD
BRANCH  19  23
ATOM     23  C   UNL     1       3.873   5.804  -0.262  0.00  0.00    +0.324 C 
BRANCH  23  24
ATOM     24  O   UNL     1       5.227   5.403  -0.483  0.00  0.00    -0.483 OA
BRANCH  24  28
ATOM     25  C   UNL     1       8.049   8.401  -0.747  0.00  0.00    +0.000 A 
ATOM     26  C   UNL     1       8.433   7.079  -0.872  0.00  0.00    +0.004 A 
ATOM     27  C   UNL     1       7.490   6.073  -0.784  0.00  0.00    +0.045 A 
ATOM     28  C   UNL     1       6.157   6.391  -0.570  0.00  0.00    +0.121 A 
ATOM     29  C   UNL     1       5.773   7.718  -0.451  0.00  0.00    +0.045 A 
ATOM     30  C   UNL     1       6.721   8.720  -0.533  0.00  0.00    +0.004 A 
ENDBRANCH  24  28
ENDBRANCH  23  24
ENDBRANCH  19  23
ENDBRANCH   1  21
TORSDOF 5
