REMARK  Name = ZINC36375401
REMARK  11 active torsions:
REMARK  status: ('A' for Active; 'I' for Inactive)
REMARK    1  A    between atoms: C_1  and  C_2
REMARK    2  A    between atoms: C_2  and  C_36
REMARK    3  A    between atoms: C_3  and  C_4
REMARK    4  A    between atoms: C_4  and  C_5
REMARK    5  A    between atoms: C_12  and  C_19
REMARK    6  A    between atoms: C_12  and  C_20
REMARK    7  A    between atoms: C_13  and  O_18
REMARK    8  A    between atoms: C_15  and  O_17
REMARK    9  A    between atoms: C_22  and  C_29
REMARK   10  A    between atoms: C_24  and  O_28
REMARK   11  A    between atoms: C_32  and  O_35
REMARK                            x       y       z     vdW  Elec       q    Type
REMARK                         _______ _______ _______ _____ _____    ______ ____
ROOT
ATOM      1  C   UNL     1      -0.864  -0.562   3.381  0.00  0.00    -0.001 A 
ATOM      2  C   UNL     1      -2.133  -0.068   3.468  0.00  0.00    +0.022 A 
ATOM      3  C   UNL     1      -3.049  -0.663   4.339  0.00  0.00    +0.063 A 
ATOM      4  C   UNL     1      -2.668  -1.770   5.117  0.00  0.00    +0.141 A 
ATOM      5  C   UNL     1      -1.372  -2.258   5.019  0.00  0.00    +0.068 A 
ATOM      6  C   UNL     1      -0.473  -1.660   4.152  0.00  0.00    +0.134 A 
ATOM      7  O   UNL     1       0.803  -2.106   4.030  0.00  0.00    -0.483 OA
ATOM      8  C   UNL     1       1.101  -3.419   4.506  0.00  0.00    +0.133 C 
ATOM      9  C   UNL     1       0.540  -3.557   5.927  0.00  0.00    +0.191 C 
ATOM     10  C   UNL     1      -0.982  -3.446   5.861  0.00  0.00    +0.184 C 
ATOM     11  C   UNL     1       2.617  -3.627   4.527  0.00  0.00    +0.058 C 
ATOM     12  C   UNL     1       0.450  -4.458   3.592  0.00  0.00    +0.058 C 
ATOM     13  O   UNL     1      -3.549  -2.366   5.953  0.00  0.00    -0.480 OA
ATOM     14  C   UNL     1      -4.675  -1.617   6.410  0.00  0.00    +0.240 C 
ATOM     15  C   UNL     1      -5.413  -1.020   5.202  0.00  0.00    +0.230 C 
ATOM     16  C   UNL     1      -4.420  -0.145   4.458  0.00  0.00    +0.199 C 
ATOM     17  O   UNL     1      -4.741   0.926   3.986  0.00  0.00    -0.289 OA
ENDROOT
BRANCH  14  18
ATOM     18  C   UNL     1      -5.608  -2.524   7.170  0.00  0.00    -0.004 A 
ATOM     19  C   UNL     1      -5.758  -3.842   6.782  0.00  0.00    +0.011 A 
ATOM     20  C   UNL     1      -6.612  -4.676   7.478  0.00  0.00    +0.046 A 
ATOM     21  C   UNL     1      -7.320  -4.188   8.567  0.00  0.00    +0.117 A 
ATOM     22  C   UNL     1      -7.168  -2.865   8.955  0.00  0.00    +0.046 A 
ATOM     23  C   UNL     1      -6.308  -2.037   8.259  0.00  0.00    +0.011 A 
BRANCH  21  24
ATOM     24  O   UNL     1      -8.162  -5.006   9.253  0.00  0.00    -0.507 OA
ATOM     25  H   UNL     1      -7.742  -5.476   9.986  0.00  0.00    +0.292 HD
ENDBRANCH  21  24
ENDBRANCH  14  18
BRANCH  10  26
ATOM     26  O   UNL     1      -1.506  -4.638   5.274  0.00  0.00    -0.384 OA
ATOM     27  H   UNL     1      -2.470  -4.647   5.196  0.00  0.00    +0.210 HD
ENDBRANCH  10  26
BRANCH   9  28
ATOM     28  O   UNL     1       1.056  -2.510   6.752  0.00  0.00    -0.385 OA
ATOM     29  H   UNL     1       0.740  -2.538   7.666  0.00  0.00    +0.210 HD
ENDBRANCH   9  28
BRANCH  15  30
ATOM     30  O   UNL     1      -5.877  -2.067   4.348  0.00  0.00    -0.380 OA
ATOM     31  H   UNL     1      -6.352  -1.756   3.566  0.00  0.00    +0.211 HD
ENDBRANCH  15  30
BRANCH   1  32
ATOM     32  C   UNL     1       0.123   0.078   2.439  0.00  0.00    +0.066 C 
BRANCH  32  35
ATOM     33  C   UNL     1      -0.200   1.488   0.018  0.00  0.00    +0.038 C 
ATOM     34  C   UNL     1      -0.087  -0.015   0.009  0.00  0.00    -0.079 C 
ATOM     35  C   UNL     1       0.121  -0.664   1.128  0.00  0.00    -0.023 C 
ATOM     36  C   UNL     1      -0.213  -0.772  -1.289  0.00  0.00    +0.038 C 
ENDBRANCH  32  35
ENDBRANCH   1  32
TORSDOF 7
