REMARK  Name = ZINC59889018
REMARK  11 active torsions:
REMARK  status: ('A' for Active; 'I' for Inactive)
REMARK    1  A    between atoms: C_1  and  C_2
REMARK    2  A    between atoms: C_2  and  N_3
REMARK    3  A    between atoms: C_7  and  S_28
REMARK    4  A    between atoms: C_11  and  C_12
REMARK    5  A    between atoms: C_12  and  C_13
REMARK    6  A    between atoms: C_13  and  C_14
REMARK    7  A    between atoms: N_16  and  C_17
REMARK    8  A    between atoms: C_19  and  C_23
REMARK    9  A    between atoms: S_28  and  N_31
REMARK   10  A    between atoms: N_31  and  C_32
REMARK   11  A    between atoms: N_31  and  C_33
REMARK                            x       y       z     vdW  Elec       q    Type
REMARK                         _______ _______ _______ _____ _____    ______ ____
ROOT
ATOM      1  N   UNL     1      -1.372  -0.511   0.012  0.00  0.00    -0.328 N 
ATOM      2  C   UNL     1      -2.131  -0.795   1.130  0.00  0.00    +0.069 A 
ATOM      3  C   UNL     1      -1.906  -0.716   2.498  0.00  0.00    +0.030 A 
ATOM      4  C   UNL     1      -2.901  -1.086   3.377  0.00  0.00    +0.030 A 
ATOM      5  C   UNL     1      -4.125  -1.536   2.903  0.00  0.00    +0.108 A 
ATOM      6  C   UNL     1      -4.365  -1.621   1.561  0.00  0.00    +0.058 A 
ATOM      7  C   UNL     1      -3.371  -1.251   0.651  0.00  0.00    +0.091 A 
ATOM      8  N   UNL     1      -3.306  -1.222  -0.705  0.00  0.00    -0.232 NA
ATOM      9  C   UNL     1      -2.139  -0.784  -1.077  0.00  0.00    +0.111 A 
ENDROOT
BRANCH   5  10
ATOM     10  S   UNL     1      -5.383  -2.005   4.045  0.00  0.00    +0.060 S 
ATOM     11  O   UNL     1      -6.240  -2.906   3.358  0.00  0.00    -0.153 OA
ATOM     12  O   UNL     1      -4.724  -2.352   5.255  0.00  0.00    -0.153 OA
BRANCH  10  13
ATOM     13  N   UNL     1      -6.281  -0.651   4.367  0.00  0.00    -0.183 NA
ATOM     14  C   UNL     1      -7.450  -0.334   3.543  0.00  0.00    +0.131 C 
ATOM     15  C   UNL     1      -5.906   0.230   5.476  0.00  0.00    +0.131 C 
ENDBRANCH  10  13
ENDBRANCH   5  10
BRANCH   1  17
ATOM     16  C   UNL     1      -0.019   1.526   0.010  0.00  0.00    +0.027 C 
ATOM     17  C   UNL     1       0.002  -0.004   0.002  0.00  0.00    +0.120 C 
ENDBRANCH   1  17
BRANCH   9  18
ATOM     18  C   UNL     1      -1.700  -0.609  -2.508  0.00  0.00    +0.083 C 
BRANCH  18  19
ATOM     19  C   UNL     1      -1.051  -1.902  -3.005  0.00  0.00    +0.104 C 
BRANCH  19  20
ATOM     20  C   UNL     1      -0.612  -1.727  -4.436  0.00  0.00    +0.219 C 
ATOM     21  O   UNL     1      -0.799  -0.671  -5.002  0.00  0.00    -0.275 OA
ATOM     22  N   UNL     1      -0.011  -2.743  -5.086  0.00  0.00    -0.271 N 
ATOM     23  H   UNL     1       0.139  -3.587  -4.633  0.00  0.00    +0.156 HD
BRANCH  22  24
ATOM     24  C   UNL     1       0.396  -2.580  -6.410  0.00  0.00    +0.121 A 
ATOM     25  C   UNL     1       0.254  -1.456  -7.159  0.00  0.00    +0.074 A 
ATOM     26  C   UNL     1       0.796  -1.716  -8.433  0.00  0.00    +0.101 A 
ATOM     27  N   UNL     1       1.245  -2.955  -8.442  0.00  0.00    -0.172 NA
ATOM     28  N   UNL     1       1.010  -3.516  -7.180  0.00  0.00    -0.263 N 
ATOM     29  H   UNL     1       1.244  -4.417  -6.905  0.00  0.00    +0.190 HD
BRANCH  26  30
ATOM     30  C   UNL     1       0.850  -0.765  -9.565  0.00  0.00    +0.039 A 
ATOM     31  C   UNL     1       1.353  -0.951 -10.824  0.00  0.00    +0.018 A 
ATOM     32  C   UNL     1       1.294   0.093 -11.722  0.00  0.00    +0.008 A 
ATOM     33  C   UNL     1       0.740   1.269 -11.332  0.00  0.00    +0.046 A 
ATOM     34  S   UNL     1       0.271   0.921  -9.646  0.00  0.00    -0.095 S 
ENDBRANCH  26  30
ENDBRANCH  22  24
ENDBRANCH  19  20
ENDBRANCH  18  19
ENDBRANCH   9  18
TORSDOF 8
