REMARK  Name = ZINC05385402
REMARK  8 active torsions:
REMARK  status: ('A' for Active; 'I' for Inactive)
REMARK    1  A    between atoms: C_4  and  C_7
REMARK    2  A    between atoms: C_7  and  O_8
REMARK    3  A    between atoms: O_8  and  C_9
REMARK    4  A    between atoms: C_12  and  C_23
REMARK    5  A    between atoms: C_14  and  O_15
REMARK    6  A    between atoms: O_15  and  C_16
REMARK    7  A    between atoms: C_16  and  C_17
REMARK    8  A    between atoms: C_23  and  O_37
REMARK                            x       y       z     vdW  Elec       q    Type
REMARK                         _______ _______ _______ _____ _____    ______ ____
ROOT
ATOM      1  C   UNL     1      -6.914   0.071   0.071  0.00  0.00    +0.162 A 
ATOM      2  C   UNL     1      -5.896  -0.663   0.657  0.00  0.00    +0.050 A 
ATOM      3  C   UNL     1      -4.599  -0.183   0.639  0.00  0.00    +0.010 A 
ATOM      4  C   UNL     1      -4.318   1.035   0.049  0.00  0.00    -0.011 A 
ATOM      5  C   UNL     1      -5.330   1.773  -0.537  0.00  0.00    +0.056 A 
ATOM      6  C   UNL     1      -6.630   1.295  -0.528  0.00  0.00    +0.163 A 
ENDROOT
BRANCH   4   7
ATOM      7  C   UNL     1      -2.904   1.556   0.038  0.00  0.00    +0.104 C 
ATOM      8  C   UNL     1      -2.164   1.050   1.278  0.00  0.00    +0.044 C 
ATOM      9  C   UNL     1      -0.729   1.579   1.267  0.00  0.00    -0.005 C 
ATOM     10  C   UNL     1       0.011   1.072   2.506  0.00  0.00    +0.004 C 
ATOM     11  C   UNL     1       1.446   1.602   2.495  0.00  0.00    +0.000 C 
ATOM     12  C   UNL     1       2.163   1.109   1.237  0.00  0.00    +0.000 C 
ATOM     13  C   UNL     1       1.423   1.615  -0.003  0.00  0.00    +0.004 C 
ATOM     14  C   UNL     1      -0.013   1.086   0.008  0.00  0.00    -0.007 C 
ATOM     15  C   UNL     1      -0.753   1.593  -1.232  0.00  0.00    +0.021 C 
ATOM     16  C   UNL     1      -2.188   1.063  -1.221  0.00  0.00    +0.093 C 
ATOM     17 BR   UNL     1      -3.139   1.714  -2.813  0.00  0.00    -0.085 Br
BRANCH   7  18
ATOM     18  O   UNL     1      -2.924   2.985   0.046  0.00  0.00    -0.383 OA
ATOM     19  H   UNL     1      -3.378   3.377  -0.713  0.00  0.00    +0.211 HD
ENDBRANCH   7  18
ENDBRANCH   4   7
BRANCH   1  20
ATOM     20  O   UNL     1      -8.189  -0.403   0.083  0.00  0.00    -0.484 OA
BRANCH  20  21
ATOM     21  C   UNL     1      -8.406  -1.665   0.715  0.00  0.00    +0.264 C 
BRANCH  21  25
ATOM     22  C   UNL     1     -12.548  -2.685   0.474  0.00  0.00    +0.000 A 
ATOM     23  C   UNL     1     -11.680  -3.076  -0.529  0.00  0.00    +0.000 A 
ATOM     24  C   UNL     1     -10.340  -2.746  -0.451  0.00  0.00    +0.007 A 
ATOM     25  C   UNL     1      -9.867  -2.025   0.630  0.00  0.00    -0.010 A 
ATOM     26  C   UNL     1     -10.734  -1.639   1.635  0.00  0.00    +0.007 A 
ATOM     27  C   UNL     1     -12.075  -1.964   1.554  0.00  0.00    +0.000 A 
ENDBRANCH  21  25
ENDBRANCH  20  21
ENDBRANCH   1  20
BRANCH   6  28
ATOM     28  O   UNL     1      -7.627   2.019  -1.103  0.00  0.00    -0.484 OA
BRANCH  28  29
ATOM     29  C   UNL     1      -7.261   3.265  -1.700  0.00  0.00    +0.264 C 
BRANCH  29  30
ATOM     30  C   UNL     1      -8.486   3.921  -2.283  0.00  0.00    -0.010 A 
ATOM     31  C   UNL     1      -8.848   3.671  -3.593  0.00  0.00    +0.007 A 
ATOM     32  C   UNL     1      -9.974   4.269  -4.126  0.00  0.00    +0.000 A 
ATOM     33  C   UNL     1     -10.734   5.126  -3.352  0.00  0.00    +0.000 A 
ATOM     34  C   UNL     1     -10.369   5.381  -2.043  0.00  0.00    +0.000 A 
ATOM     35  C   UNL     1      -9.246   4.779  -1.509  0.00  0.00    +0.007 A 
ENDBRANCH  29  30
ENDBRANCH  28  29
ENDBRANCH   6  28
TORSDOF 8
