REMARK  Name = ZINC63699042
REMARK  3 active torsions:
REMARK  status: ('A' for Active; 'I' for Inactive)
REMARK    1  A    between atoms: C_1  and  C_2
REMARK    2  A    between atoms: C_4  and  C_23
REMARK    3  A    between atoms: N_12  and  C_14
REMARK                            x       y       z     vdW  Elec       q    Type
REMARK                         _______ _______ _______ _____ _____    ______ ____
ROOT
ATOM      1  C   UNL     1      -0.044   1.459  -0.482  0.00  0.00    +0.062 C 
ATOM      2  C   UNL     1      -0.045  -0.048  -0.460  0.00  0.00    +0.019 C 
ATOM      3  C   UNL     1      -1.081  -0.778  -0.159  0.00  0.00    -0.007 C 
ATOM      4  C   UNL     1      -2.526  -0.406   0.066  0.00  0.00    +0.065 C 
ATOM      5  C   UNL     1      -3.329  -1.128  -1.026  0.00  0.00    +0.109 C 
ATOM      6  C   UNL     1      -2.785  -2.491  -1.309  0.00  0.00    +0.215 C 
ATOM      7  O   UNL     1      -3.538  -3.265  -1.861  0.00  0.00    -0.276 OA
ATOM      8  N   UNL     1      -1.567  -2.955  -1.025  0.00  0.00    -0.295 N 
ATOM      9  C   UNL     1      -0.631  -2.230  -0.176  0.00  0.00    +0.194 C 
ATOM     10  N   UNL     1       0.729  -2.167  -0.723  0.00  0.00    -0.164 NA
ATOM     11  N   UNL     1       1.054  -0.836  -0.762  0.00  0.00    -0.277 N 
ATOM     12  H   UNL     1      -1.295  -3.809  -1.397  0.00  0.00    +0.151 HD
ATOM     13  H   UNL     1       1.937  -0.492  -0.971  0.00  0.00    +0.166 HD
ENDROOT
BRANCH  10  14
ATOM     14  C   UNL     1       1.670  -2.918   0.118  0.00  0.00    +0.270 C 
ATOM     15  N   UNL     1       1.292  -4.337   0.153  0.00  0.00    -0.350 N 
ATOM     16  C   UNL     1       1.039  -4.643   1.393  0.00  0.00    +0.061 A 
ATOM     17  C   UNL     1       0.619  -5.889   2.048  0.00  0.00    +0.027 A 
ATOM     18  C   UNL     1       0.428  -5.907   3.383  0.00  0.00    +0.002 A 
ATOM     19  C   UNL     1       0.613  -4.771   4.190  0.00  0.00    +0.002 A 
ATOM     20  C   UNL     1       0.996  -3.579   3.691  0.00  0.00    +0.027 A 
ATOM     21  C   UNL     1       1.235  -3.440   2.248  0.00  0.00    +0.061 A 
ATOM     22  N   UNL     1       1.603  -2.437   1.504  0.00  0.00    -0.350 N 
ATOM     23  H   UNL     1       1.241  -4.936  -0.608  0.00  0.00    +0.163 HD
ATOM     24  H   UNL     1       1.797  -1.537   1.809  0.00  0.00    +0.163 HD
ENDBRANCH  10  14
BRANCH   4  25
ATOM     25  C   UNL     1      -2.703   1.085  -0.059  0.00  0.00    -0.001 A 
ATOM     26  C   UNL     1      -2.713   2.028   0.915  0.00  0.00    +0.013 A 
ATOM     27  C   UNL     1      -2.893   3.353   0.564  0.00  0.00    +0.023 A 
ATOM     28  C   UNL     1      -3.054   3.670  -0.745  0.00  0.00    +0.055 A 
ATOM     29  S   UNL     1      -2.945   2.070  -1.528  0.00  0.00    -0.086 S 
ATOM     30 BR   UNL     1      -3.317   5.367  -1.535  0.00  0.00    -0.043 Br
ENDBRANCH   4  25
TORSDOF 2
