REMARK  Name = ZINC15314280
REMARK  14 active torsions:
REMARK  status: ('A' for Active; 'I' for Inactive)
REMARK    1  A    between atoms: C_1  and  C_2
REMARK    2  A    between atoms: C_2  and  C_3
REMARK    3  A    between atoms: C_3  and  C_4
REMARK    4  A    between atoms: C_4  and  N_5
REMARK    5  A    between atoms: N_14  and  C_35
REMARK    6  A    between atoms: C_15  and  C_17
REMARK    7  A    between atoms: C_17  and  C_18
REMARK    8  A    between atoms: C_18  and  C_19
REMARK    9  A    between atoms: N_21  and  C_22
REMARK   10  A    between atoms: C_22  and  C_24
REMARK   11  A    between atoms: C_22  and  C_25
REMARK   12  A    between atoms: C_35  and  C_36
REMARK   13  A    between atoms: C_36  and  C_37
REMARK   14  A    between atoms: C_36  and  C_38
REMARK                            x       y       z     vdW  Elec       q    Type
REMARK                         _______ _______ _______ _____ _____    ______ ____
ROOT
ATOM      1  N   UNL     1       1.772  -9.357  -5.290  0.00  0.00    -0.277 N 
ATOM      2  C   UNL     1       2.462  -8.157  -5.227  0.00  0.00    +0.168 A 
ATOM      3  C   UNL     1       3.847  -8.185  -5.120  0.00  0.00    +0.151 A 
ATOM      4  C   UNL     1       4.509  -9.431  -5.078  0.00  0.00    +0.280 A 
ATOM      5  O   UNL     1       5.722  -9.482  -4.983  0.00  0.00    -0.265 OA
ATOM      6  N   UNL     1       3.781 -10.566  -5.143  0.00  0.00    -0.273 N 
ATOM      7  H   UNL     1       4.245 -11.451  -5.114  0.00  0.00    +0.173 HD
ATOM      8  C   UNL     1       2.442 -10.524  -5.247  0.00  0.00    +0.331 A 
ATOM      9  O   UNL     1       1.819 -11.567  -5.304  0.00  0.00    -0.246 OA
ATOM     10  N   UNL     1       4.258  -6.868  -5.083  0.00  0.00    -0.322 N 
ATOM     11  C   UNL     1       3.149  -6.106  -5.159  0.00  0.00    +0.113 A 
ATOM     12  N   UNL     1       2.093  -6.874  -5.247  0.00  0.00    -0.214 NA
ENDROOT
BRANCH   1  13
ATOM     13  C   UNL     1       0.311  -9.355  -5.404  0.00  0.00    +0.128 C 
BRANCH  13  14
ATOM     14  C   UNL     1      -0.085  -9.343  -6.881  0.00  0.00    +0.021 C 
BRANCH  14  16
ATOM     15  C   UNL     1      -2.008  -9.330  -8.477  0.00  0.00    +0.004 C 
ATOM     16  C   UNL     1      -1.611  -9.342  -7.000  0.00  0.00    -0.002 C 
ENDBRANCH  14  16
ENDBRANCH  13  14
ENDBRANCH   1  13
BRANCH  11  17
ATOM     17  C   UNL     1       3.129  -4.600  -5.151  0.00  0.00    +0.083 C 
BRANCH  17  18
ATOM     18  C   UNL     1       3.010  -4.099  -3.710  0.00  0.00    +0.103 C 
BRANCH  18  19
ATOM     19  C   UNL     1       2.989  -2.592  -3.702  0.00  0.00    +0.214 C 
ATOM     20  O   UNL     1       3.063  -1.979  -4.746  0.00  0.00    -0.276 OA
ATOM     21  N   UNL     1       2.890  -1.926  -2.534  0.00  0.00    -0.312 N 
ATOM     22  H   UNL     1       2.831  -2.417  -1.700  0.00  0.00    +0.149 HD
BRANCH  21  23
ATOM     23  C   UNL     1       2.870  -0.461  -2.526  0.00  0.00    +0.076 C 
ATOM     24  C   UNL     1       4.305   0.068  -2.537  0.00  0.00    +0.028 C 
BRANCH  23  25
ATOM     25  C   UNL     1       2.154   0.032  -1.268  0.00  0.00    -0.010 C 
ATOM     26  C   UNL     1       0.718  -0.497  -1.257  0.00  0.00    +0.012 C 
ATOM     27  C   UNL     1       0.002  -0.004   0.002  0.00  0.00    -0.010 C 
ATOM     28  C   UNL     1      -0.019   1.526   0.010  0.00  0.00    +0.007 C 
ATOM     29  C   UNL     1       1.417   2.055  -0.000  0.00  0.00    -0.010 C 
ATOM     30  C   UNL     1       2.133   1.562  -1.259  0.00  0.00    +0.012 C 
ATOM     31  C   UNL     1       2.157   1.548   1.239  0.00  0.00    +0.007 C 
ATOM     32  C   UNL     1       2.178   0.019   1.231  0.00  0.00    -0.010 C 
ATOM     33  C   UNL     1       0.742  -0.511   1.242  0.00  0.00    +0.007 C 
ATOM     34  C   UNL     1       2.894  -0.475  -0.028  0.00  0.00    +0.012 C 
ENDBRANCH  23  25
ENDBRANCH  21  23
ENDBRANCH  18  19
ENDBRANCH  17  18
ENDBRANCH  11  17
BRANCH  10  35
ATOM     35  C   UNL     1       5.639  -6.388  -4.979  0.00  0.00    +0.126 C 
BRANCH  35  36
ATOM     36  C   UNL     1       6.014  -6.232  -3.504  0.00  0.00    +0.003 C 
ATOM     37  C   UNL     1       6.010  -7.605  -2.828  0.00  0.00    +0.009 C 
ATOM     38  C   UNL     1       7.410  -5.614  -3.395  0.00  0.00    +0.009 C 
ENDBRANCH  35  36
ENDBRANCH  10  35
TORSDOF 10
