REMARK  Name = ZINC08606552
REMARK  9 active torsions:
REMARK  status: ('A' for Active; 'I' for Inactive)
REMARK    1  A    between atoms: C_1  and  C_2
REMARK    2  A    between atoms: C_2  and  C_3
REMARK    3  A    between atoms: C_2  and  C_4
REMARK    4  A    between atoms: C_7  and  C_10
REMARK    5  A    between atoms: C_13  and  C_29
REMARK    6  A    between atoms: N_20  and  C_21
REMARK    7  A    between atoms: C_21  and  C_22
REMARK    8  A    between atoms: C_22  and  C_23
REMARK    9  A    between atoms: C_34  and  O_35
REMARK                            x       y       z     vdW  Elec       q    Type
REMARK                         _______ _______ _______ _____ _____    ______ ____
ROOT
ATOM      1  C   UNL     1      -5.049  -1.860  -0.280  0.00  0.00    +0.141 C 
ATOM      2  C   UNL     1      -6.142  -1.067  -0.943  0.00  0.00    +0.035 A 
ATOM      3  C   UNL     1      -6.839   0.143  -1.024  0.00  0.00    +0.102 A 
ATOM      4  N   UNL     1      -7.754   0.010  -1.964  0.00  0.00    -0.173 NA
ATOM      5  N   UNL     1      -7.704  -1.164  -2.485  0.00  0.00    -0.272 N 
ATOM      6  H   UNL     1      -8.282  -1.484  -3.195  0.00  0.00    +0.189 HD
ATOM      7  C   UNL     1      -6.714  -1.895  -1.891  0.00  0.00    +0.126 A 
ATOM      8  C   UNL     1      -6.024  -3.189  -1.858  0.00  0.00    +0.265 C 
ATOM      9  O   UNL     1      -6.290  -4.136  -2.573  0.00  0.00    -0.268 OA
ATOM     10  N   UNL     1      -5.054  -3.180  -0.924  0.00  0.00    -0.285 N 
ENDROOT
BRANCH   1  14
ATOM     11  C   UNL     1      -1.278   0.055  -0.879  0.00  0.00    -0.045 A 
ATOM     12  C   UNL     1      -1.937  -0.523  -1.948  0.00  0.00    +0.004 A 
ATOM     13  C   UNL     1      -3.157  -1.143  -1.754  0.00  0.00    +0.006 A 
ATOM     14  C   UNL     1      -3.718  -1.185  -0.491  0.00  0.00    -0.022 A 
ATOM     15  C   UNL     1      -3.059  -0.607   0.577  0.00  0.00    +0.006 A 
ATOM     16  C   UNL     1      -1.837   0.009   0.384  0.00  0.00    +0.004 A 
BRANCH  11  18
ATOM     17  C   UNL     1       1.056  -0.281  -1.646  0.00  0.00    +0.012 C 
ATOM     18  C   UNL     1       0.052   0.731  -1.091  0.00  0.00    +0.013 C 
ATOM     19  C   UNL     1      -0.113   1.883  -2.084  0.00  0.00    +0.012 C 
ENDBRANCH  11  18
ENDBRANCH   1  14
BRANCH   3  20
ATOM     20  C   UNL     1      -6.594   1.354  -0.202  0.00  0.00    +0.044 A 
ATOM     21  C   UNL     1      -5.674   1.315   0.843  0.00  0.00    +0.014 A 
ATOM     22  C   UNL     1      -5.450   2.444   1.605  0.00  0.00    +0.001 A 
ATOM     23  C   UNL     1      -6.136   3.615   1.335  0.00  0.00    +0.004 A 
ATOM     24  C   UNL     1      -7.051   3.664   0.300  0.00  0.00    +0.046 A 
ATOM     25  C   UNL     1      -7.281   2.540  -0.476  0.00  0.00    +0.126 A 
BRANCH  25  26
ATOM     26  O   UNL     1      -8.176   2.588  -1.498  0.00  0.00    -0.506 OA
ATOM     27  H   UNL     1      -9.079   2.357  -1.241  0.00  0.00    +0.292 HD
ENDBRANCH  25  26
ENDBRANCH   3  20
BRANCH  10  28
ATOM     28  C   UNL     1      -4.158  -4.294  -0.604  0.00  0.00    +0.114 C 
BRANCH  28  29
ATOM     29  C   UNL     1      -4.787  -5.157   0.490  0.00  0.00    +0.054 C 
BRANCH  29  30
ATOM     30  C   UNL     1      -3.865  -6.303   0.819  0.00  0.00    -0.046 A 
ATOM     31  C   UNL     1      -3.973  -7.497   0.130  0.00  0.00    +0.004 A 
ATOM     32  C   UNL     1      -3.127  -8.548   0.431  0.00  0.00    +0.000 A 
ATOM     33  C   UNL     1      -2.173  -8.405   1.422  0.00  0.00    +0.000 A 
ATOM     34  C   UNL     1      -2.064  -7.211   2.110  0.00  0.00    +0.000 A 
ATOM     35  C   UNL     1      -2.908  -6.159   1.806  0.00  0.00    +0.004 A 
ENDBRANCH  29  30
ENDBRANCH  28  29
ENDBRANCH  10  28
TORSDOF 7
