REMARK  Name = ZINC36595310
REMARK  10 active torsions:
REMARK  status: ('A' for Active; 'I' for Inactive)
REMARK    1  A    between atoms: C_1  and  C_2
REMARK    2  A    between atoms: C_5  and  C_7
REMARK    3  A    between atoms: C_7  and  N_8
REMARK    4  A    between atoms: N_8  and  C_9
REMARK    5  A    between atoms: C_9  and  C_11
REMARK    6  A    between atoms: C_9  and  C_18
REMARK    7  A    between atoms: C_16  and  O_17
REMARK    8  A    between atoms: N_20  and  C_21
REMARK    9  A    between atoms: C_27  and  C_29
REMARK   10  A    between atoms: C_34  and  O_35
REMARK                            x       y       z     vdW  Elec       q    Type
REMARK                         _______ _______ _______ _____ _____    ______ ____
ROOT
ATOM      1  C   UNL     1       2.939  -2.866  -3.166  0.00  0.00    +0.196 C 
ENDROOT
BRANCH   1   2
ATOM      2  C   UNL     1       2.318  -3.229  -4.490  0.00  0.00    +0.023 A 
ATOM      3  C   UNL     1       0.963  -3.486  -4.571  0.00  0.00    +0.009 A 
ATOM      4  C   UNL     1       0.393  -3.819  -5.786  0.00  0.00    +0.001 A 
ATOM      5  C   UNL     1       1.177  -3.895  -6.923  0.00  0.00    +0.004 A 
ATOM      6  C   UNL     1       2.532  -3.638  -6.847  0.00  0.00    +0.046 A 
ATOM      7  C   UNL     1       3.106  -3.299  -5.630  0.00  0.00    +0.122 A 
BRANCH   7   8
ATOM      8  O   UNL     1       4.438  -3.040  -5.554  0.00  0.00    -0.506 OA
ATOM      9  H   UNL     1       4.998  -3.801  -5.758  0.00  0.00    +0.292 HD
ENDBRANCH   7   8
ENDBRANCH   1   2
BRANCH   1  10
ATOM     10  C   UNL     1       3.927  -3.932  -2.766  0.00  0.00    +0.238 C 
ATOM     11  O   UNL     1       3.697  -4.645  -1.813  0.00  0.00    -0.273 OA
ATOM     12  N   UNL     1       5.067  -4.091  -3.467  0.00  0.00    -0.311 N 
ATOM     13  H   UNL     1       5.291  -3.469  -4.177  0.00  0.00    +0.149 HD
BRANCH  12  14
ATOM     14  C   UNL     1       5.968  -5.204  -3.158  0.00  0.00    +0.073 C 
ATOM     15  C   UNL     1       6.901  -4.802  -2.013  0.00  0.00    +0.022 C 
ATOM     16  C   UNL     1       7.842  -5.964  -1.690  0.00  0.00    +0.002 C 
ATOM     17  C   UNL     1       8.672  -6.308  -2.928  0.00  0.00    +0.000 C 
ATOM     18  C   UNL     1       7.739  -6.710  -4.072  0.00  0.00    +0.002 C 
ATOM     19  C   UNL     1       6.799  -5.548  -4.396  0.00  0.00    +0.022 C 
ENDBRANCH  12  14
ENDBRANCH   1  10
BRANCH   1  20
ATOM     20  N   UNL     1       1.892  -2.764  -2.147  0.00  0.00    -0.274 N 
ATOM     21  C   UNL     1       1.466  -3.870  -1.505  0.00  0.00    +0.251 C 
ATOM     22  O   UNL     1       1.238  -3.830  -0.311  0.00  0.00    -0.270 OA
BRANCH  21  23
ATOM     23  C   UNL     1       1.279  -5.130  -2.250  0.00  0.00    +0.078 A 
ATOM     24  C   UNL     1       2.074  -5.412  -3.364  0.00  0.00    +0.017 A 
ATOM     25  C   UNL     1       1.893  -6.590  -4.055  0.00  0.00    +0.001 A 
ATOM     26  C   UNL     1       0.927  -7.497  -3.651  0.00  0.00    +0.004 A 
ATOM     27  C   UNL     1       0.135  -7.231  -2.552  0.00  0.00    +0.046 A 
ATOM     28  C   UNL     1       0.306  -6.052  -1.841  0.00  0.00    +0.129 A 
BRANCH  28  29
ATOM     29  O   UNL     1      -0.468  -5.791  -0.758  0.00  0.00    -0.506 OA
ATOM     30  H   UNL     1      -1.287  -5.319  -0.965  0.00  0.00    +0.292 HD
ENDBRANCH  28  29
ENDBRANCH  21  23
BRANCH  20  31
ATOM     31  C   UNL     1       1.306  -1.460  -1.826  0.00  0.00    +0.183 C 
BRANCH  31  36
ATOM     32  C   UNL     1      -1.853  -0.034  -5.490  0.00  0.00    +0.086 C 
ATOM     33  C   UNL     1      -1.332  -0.647  -4.216  0.00  0.00    +0.102 A 
ATOM     34  C   UNL     1      -2.067  -1.309  -3.304  0.00  0.00    +0.045 A 
ATOM     35  C   UNL     1      -1.181  -1.709  -2.277  0.00  0.00    +0.046 A 
ATOM     36  C   UNL     1       0.042  -1.267  -2.623  0.00  0.00    +0.122 A 
ATOM     37  O   UNL     1      -0.055  -0.630  -3.801  0.00  0.00    -0.463 OA
ENDBRANCH  31  36
ENDBRANCH  20  31
ENDBRANCH   1  20
TORSDOF 9
