REMARK  Name = ZINC43216059
REMARK  10 active torsions:
REMARK  status: ('A' for Active; 'I' for Inactive)
REMARK    1  A    between atoms: C_1  and  C_2
REMARK    2  A    between atoms: C_9  and  C_10
REMARK    3  A    between atoms: C_9  and  C_11
REMARK    4  A    between atoms: C_13  and  N_15
REMARK    5  A    between atoms: C_16  and  C_18
REMARK    6  A    between atoms: C_21  and  C_23
REMARK    7  A    between atoms: C_23  and  C_25
REMARK    8  A    between atoms: C_23  and  N_28
REMARK    9  A    between atoms: C_25  and  C_26
REMARK   10  A    between atoms: C_25  and  C_27
REMARK                            x       y       z     vdW  Elec       q    Type
REMARK                         _______ _______ _______ _____ _____    ______ ____
ROOT
ATOM      1  N   UNL     1      -0.765  -0.059   1.869  0.00  0.00    -0.307 N 
ATOM      2  C   UNL     1      -0.597   0.091   3.198  0.00  0.00    +0.266 C 
ATOM      3  O   UNL     1       0.521   0.207   3.660  0.00  0.00    -0.268 OA
ATOM      4  H   UNL     1      -1.658  -0.152   1.501  0.00  0.00    +0.149 HD
ENDROOT
BRANCH   1  14
ATOM      5  C   UNL     1       0.135   1.872  -0.579  0.00  0.00    +0.009 C 
ATOM      6  C   UNL     1      -0.026   0.357  -0.416  0.00  0.00    +0.010 C 
ATOM      7  C   UNL     1       0.720  -0.389  -1.521  0.00  0.00    -0.000 C 
ATOM      8  C   UNL     1       0.386  -1.900  -1.432  0.00  0.00    +0.008 C 
ATOM      9  C   UNL     1       1.514  -1.928  -0.380  0.00  0.00    -0.003 C 
ATOM     10  C   UNL     1       2.158  -0.800  -1.198  0.00  0.00    -0.029 C 
ATOM     11  C   UNL     1       3.001   0.189  -0.401  0.00  0.00    +0.011 C 
ATOM     12  C   UNL     1       2.932  -1.316  -2.427  0.00  0.00    +0.011 C 
ATOM     13  C   UNL     1       1.008  -1.485   0.992  0.00  0.00    +0.026 C 
ATOM     14  C   UNL     1       0.409  -0.083   0.975  0.00  0.00    +0.077 C 
ENDBRANCH   1  14
BRANCH   2  15
ATOM     15  C   UNL     1      -1.770   0.115   4.091  0.00  0.00    +0.163 A 
ATOM     16  C   UNL     1      -1.753   0.265   5.444  0.00  0.00    +0.230 A 
ATOM     17  O   UNL     1      -3.030   0.230   5.857  0.00  0.00    -0.449 OA
ATOM     18  C   UNL     1      -3.814   0.063   4.783  0.00  0.00    +0.182 A 
ATOM     19  N   UNL     1      -3.073  -0.003   3.718  0.00  0.00    -0.210 NA
BRANCH  18  20
ATOM     20  C   UNL     1      -5.318  -0.030   4.807  0.00  0.00    +0.015 C 
BRANCH  20  21
ATOM     21  N   UNL     1      -5.860   1.019   5.681  0.00  0.00    +0.386 N 
ATOM     22  H   UNL     1      -5.584   1.924   5.330  0.00  0.00    -0.089 HD
ATOM     23  H   UNL     1      -6.867   0.957   5.696  0.00  0.00    -0.089 HD
ATOM     24  H   UNL     1      -5.501   0.897   6.615  0.00  0.00    -0.089 HD
ENDBRANCH  20  21
BRANCH  20  25
ATOM     25  C   UNL     1      -5.736  -1.403   5.338  0.00  0.00    -0.023 C 
ATOM     26  C   UNL     1      -7.263  -1.497   5.362  0.00  0.00    +0.006 C 
ATOM     27  C   UNL     1      -5.172  -2.495   4.428  0.00  0.00    +0.006 C 
ENDBRANCH  20  25
ENDBRANCH  18  20
ENDBRANCH   2  15
TORSDOF 5
