REMARK  Name = ZINC38999809
REMARK  12 active torsions:
REMARK  status: ('A' for Active; 'I' for Inactive)
REMARK    1  A    between atoms: C_1  and  C_2
REMARK    2  A    between atoms: C_2  and  O_3
REMARK    3  A    between atoms: O_3  and  C_4
REMARK    4  A    between atoms: C_6  and  C_20
REMARK    5  A    between atoms: C_9  and  O_10
REMARK    6  A    between atoms: O_10  and  C_11
REMARK    7  A    between atoms: C_11  and  C_12
REMARK    8  A    between atoms: C_20  and  C_22
REMARK    9  A    between atoms: C_20  and  C_29
REMARK   10  A    between atoms: C_23  and  C_28
REMARK   11  A    between atoms: C_30  and  C_36
REMARK   12  A    between atoms: C_33  and  O_35
REMARK                            x       y       z     vdW  Elec       q    Type
REMARK                         _______ _______ _______ _____ _____    ______ ____
ROOT
ATOM      1  C   UNL     1      -1.972  -2.287  -0.534  0.00  0.00    +0.162 A 
ATOM      2  C   UNL     1      -0.743  -2.918  -0.425  0.00  0.00    +0.054 A 
ATOM      3  C   UNL     1      -0.683  -4.269  -0.136  0.00  0.00    -0.032 A 
ATOM      4  C   UNL     1      -1.847  -4.993   0.045  0.00  0.00    +0.008 A 
ATOM      5  C   UNL     1      -3.076  -4.369  -0.063  0.00  0.00    +0.050 A 
ATOM      6  C   UNL     1      -3.143  -3.014  -0.346  0.00  0.00    +0.162 A 
ENDROOT
BRANCH   1   7
ATOM      7  O   UNL     1      -2.033  -0.959  -0.817  0.00  0.00    -0.489 OA
BRANCH   7   9
ATOM      8  C   UNL     1      -1.058   1.198  -1.306  0.00  0.00    +0.048 C 
ATOM      9  C   UNL     1      -0.790  -0.276  -0.997  0.00  0.00    +0.226 C 
ENDBRANCH   7   9
ENDBRANCH   1   7
BRANCH   6  10
ATOM     10  O   UNL     1      -4.352  -2.398  -0.446  0.00  0.00    -0.484 OA
BRANCH  10  11
ATOM     11  C   UNL     1      -5.511  -3.207  -0.242  0.00  0.00    +0.266 C 
BRANCH  11  12
ATOM     12  C   UNL     1      -6.748  -2.359  -0.391  0.00  0.00    +0.008 A 
ATOM     13  C   UNL     1      -6.632  -1.014  -0.689  0.00  0.00    +0.010 A 
ATOM     14  C   UNL     1      -7.766  -0.236  -0.826  0.00  0.00    +0.020 A 
ATOM     15  C   UNL     1      -9.018  -0.802  -0.665  0.00  0.00    +0.042 A 
ATOM     16  C   UNL     1      -9.135  -2.148  -0.368  0.00  0.00    +0.040 A 
ATOM     17  C   UNL     1      -8.000  -2.928  -0.235  0.00  0.00    +0.049 A 
ATOM     18 CL   UNL     1      -8.146  -4.618   0.132  0.00  0.00    -0.083 Cl
ATOM     19 CL   UNL     1     -10.442   0.176  -0.837  0.00  0.00    -0.083 Cl
ENDBRANCH  11  12
ENDBRANCH  10  11
ENDBRANCH   6  10
BRANCH   3  20
ATOM     20  C   UNL     1       0.654  -4.954  -0.018  0.00  0.00    +0.088 C 
BRANCH  20  21
ATOM     21  C   UNL     1       0.704  -5.741   1.266  0.00  0.00    +0.052 A 
ATOM     22  C   UNL     1       0.127  -5.368   2.484  0.00  0.00    +0.068 A 
ATOM     23  N   UNL     1       0.381  -6.304   3.362  0.00  0.00    -0.176 NA
ATOM     24  N   UNL     1       1.129  -7.307   2.733  0.00  0.00    -0.243 N 
ATOM     25  C   UNL     1       1.312  -6.944   1.444  0.00  0.00    +0.271 A 
ATOM     26  O   UNL     1       1.983  -7.651   0.500  0.00  0.00    -0.266 OA
ATOM     27  C   UNL     1      -0.652  -4.104   2.741  0.00  0.00    +0.068 C 
ATOM     28  H   UNL     1       1.456  -8.120   3.149  0.00  0.00    +0.192 HD
ENDBRANCH  20  21
BRANCH  20  29
ATOM     29  C   UNL     1       0.846  -5.886  -1.187  0.00  0.00    +0.017 C 
ATOM     30  C   UNL     1       1.812  -5.862  -2.108  0.00  0.00    +0.065 C 
ATOM     31  N   UNL     1       1.648  -6.863  -3.001  0.00  0.00    -0.156 NA
ATOM     32  N   UNL     1       0.665  -7.580  -2.793  0.00  0.00    -0.151 NA
ATOM     33  C   UNL     1      -0.011  -7.074  -1.587  0.00  0.00    +0.284 C 
ATOM     34  C   UNL     1       2.933  -4.856  -2.146  0.00  0.00    +0.067 C 
BRANCH  33  35
ATOM     35  O   UNL     1      -1.343  -6.656  -1.895  0.00  0.00    -0.366 OA
ATOM     36  H   UNL     1      -1.931  -7.377  -2.156  0.00  0.00    +0.212 HD
ENDBRANCH  33  35
ENDBRANCH  20  29
ENDBRANCH   3  20
TORSDOF 9
