REMARK  Name = ZINC37200990
REMARK  4 active torsions:
REMARK  status: ('A' for Active; 'I' for Inactive)
REMARK    1  A    between atoms: C_3  and  S_21
REMARK    2  A    between atoms: C_6  and  N_7
REMARK    3  A    between atoms: N_7  and  C_8
REMARK    4  A    between atoms: S_21  and  N_24
REMARK                            x       y       z     vdW  Elec       q    Type
REMARK                         _______ _______ _______ _____ _____    ______ ____
ROOT
ATOM      1  C   UNL     1      -0.017   1.385   0.010  0.00  0.00    +0.025 A 
ATOM      2  C   UNL     1       1.171   2.090   0.002  0.00  0.00    +0.030 A 
ATOM      3  C   UNL     1       2.377   1.415  -0.013  0.00  0.00    +0.105 A 
ATOM      4  C   UNL     1       2.400   0.032  -0.021  0.00  0.00    +0.030 A 
ATOM      5  C   UNL     1       1.216  -0.679  -0.014  0.00  0.00    +0.025 A 
ATOM      6  C   UNL     1       0.002  -0.004   0.002  0.00  0.00    +0.027 A 
ENDROOT
BRANCH   3   7
ATOM      7  S   UNL     1       3.890   2.319  -0.024  0.00  0.00    +0.056 S 
ATOM      8  O   UNL     1       4.872   1.461  -0.589  0.00  0.00    -0.153 OA
ATOM      9  O   UNL     1       3.595   3.599  -0.566  0.00  0.00    -0.153 OA
BRANCH   7  10
ATOM     10  N   UNL     1       4.326   2.562   1.555  0.00  0.00    -0.204 NA
ATOM     11  H   UNL     1       3.768   2.220   2.270  0.00  0.00    +0.144 HD
ATOM     12  H   UNL     1       5.141   3.046   1.764  0.00  0.00    +0.144 HD
ENDBRANCH   7  10
ENDBRANCH   3   7
BRANCH   6  13
ATOM     13  N   UNL     1      -1.197  -0.720   0.010  0.00  0.00    -0.341 N 
ATOM     14  H   UNL     1      -2.044  -0.248   0.021  0.00  0.00    +0.146 HD
BRANCH  13  15
ATOM     15  C   UNL     1      -1.175  -2.185   0.002  0.00  0.00    +0.071 C 
ATOM     16  C   UNL     1      -1.056  -2.686  -1.439  0.00  0.00    +0.022 C 
ATOM     17  C   UNL     1      -1.033  -4.215  -1.447  0.00  0.00    +0.005 C 
ATOM     18  C   UNL     1      -2.327  -4.748  -0.828  0.00  0.00    -0.008 C 
ATOM     19  C   UNL     1      -3.524  -4.251  -1.641  0.00  0.00    +0.004 C 
ATOM     20  C   UNL     1      -4.818  -4.784  -1.021  0.00  0.00    +0.000 C 
ATOM     21  C   UNL     1      -4.937  -4.284   0.420  0.00  0.00    +0.000 C 
ATOM     22  C   UNL     1      -3.740  -4.780   1.233  0.00  0.00    +0.004 C 
ATOM     23  C   UNL     1      -2.446  -4.248   0.613  0.00  0.00    -0.006 C 
ATOM     24  C   UNL     1      -2.469  -2.718   0.622  0.00  0.00    +0.026 C 
ENDBRANCH  13  15
ENDBRANCH   6  13
TORSDOF 4
