REMARK  Name = ZINC62672641
REMARK  6 active torsions:
REMARK  status: ('A' for Active; 'I' for Inactive)
REMARK    1  A    between atoms: C_1  and  C_2
REMARK    2  A    between atoms: C_6  and  C_9
REMARK    3  A    between atoms: C_12  and  C_16
REMARK    4  A    between atoms: C_12  and  C_18
REMARK    5  A    between atoms: C_16  and  O_17
REMARK    6  A    between atoms: C_18  and  O_19
REMARK                            x       y       z     vdW  Elec       q    Type
REMARK                         _______ _______ _______ _____ _____    ______ ____
ROOT
ATOM      1  C   UNL     1      -0.018   1.503   0.010  0.00  0.00    +0.045 C 
ATOM      2  C   UNL     1       0.002  -0.004   0.002  0.00  0.00    -0.028 A 
ATOM      3  C   UNL     1       0.006  -0.682  -1.203  0.00  0.00    +0.051 A 
ATOM      4  C   UNL     1       0.024  -2.066  -1.213  0.00  0.00    +0.132 A 
ATOM      5  C   UNL     1       0.031  -2.770   0.000  0.00  0.00    +0.064 A 
ATOM      6  C   UNL     1       0.032  -2.077   1.212  0.00  0.00    -0.018 A 
ATOM      7  C   UNL     1       0.023  -0.697   1.203  0.00  0.00    +0.048 A 
ATOM      8 CL   UNL     1       0.031   0.176   2.704  0.00  0.00    -0.083 Cl
ATOM      9  C   UNL     1       0.049  -2.829   2.518  0.00  0.00    +0.046 C 
ATOM     10  C   UNL     1       0.028  -4.242  -0.036  0.00  0.00    +0.178 C 
ATOM     11  O   UNL     1       0.960  -4.884   0.400  0.00  0.00    -0.291 OA
ATOM     12  C   UNL     1      -1.183  -4.924  -0.638  0.00  0.00    +0.083 C 
ATOM     13  C   UNL     1      -1.099  -4.891  -2.151  0.00  0.00    +0.060 C 
ATOM     14  C   UNL     1      -1.138  -3.480  -2.719  0.00  0.00    +0.230 C 
ATOM     15  O   UNL     1       0.040  -2.749  -2.393  0.00  0.00    -0.491 OA
ENDROOT
BRANCH  12  16
ATOM     16  C   UNL     1      -1.234  -6.378  -0.164  0.00  0.00    +0.173 C 
BRANCH  16  17
ATOM     17  O   UNL     1      -1.327  -6.411   1.261  0.00  0.00    -0.394 OA
ATOM     18  H   UNL     1      -1.363  -7.304   1.632  0.00  0.00    +0.209 HD
ENDBRANCH  16  17
ENDBRANCH  12  16
BRANCH  12  19
ATOM     19  C   UNL     1      -2.452  -4.200  -0.184  0.00  0.00    +0.173 C 
BRANCH  19  20
ATOM     20  O   UNL     1      -2.540  -4.242   1.242  0.00  0.00    -0.394 OA
ATOM     21  H   UNL     1      -3.322  -3.801   1.601  0.00  0.00    +0.209 HD
ENDBRANCH  19  20
ENDBRANCH  12  19
TORSDOF 4
