REMARK  Name = ZINC05443997
REMARK  4 active torsions:
REMARK  status: ('A' for Active; 'I' for Inactive)
REMARK    1  A    between atoms: C_1  and  C_2
REMARK    2  A    between atoms: C_2  and  C_4
REMARK    3  A    between atoms: C_2  and  N_14
REMARK    4  A    between atoms: C_15  and  C_17
REMARK                            x       y       z     vdW  Elec       q    Type
REMARK                         _______ _______ _______ _____ _____    ______ ____
ROOT
ATOM      1  C   UNL     1      -5.348   1.575   1.470  0.00  0.00    +0.028 C 
ATOM      2  C   UNL     1      -4.908   1.861   0.033  0.00  0.00    +0.076 C 
ENDROOT
BRANCH   2   3
ATOM      3  C   UNL     1      -5.803   2.948  -0.567  0.00  0.00    -0.010 C 
ATOM      4  C   UNL     1      -5.364   3.233  -2.005  0.00  0.00    +0.012 C 
ATOM      5  C   UNL     1      -6.258   4.320  -2.605  0.00  0.00    -0.010 C 
ATOM      6  C   UNL     1      -7.712   3.843  -2.601  0.00  0.00    +0.007 C 
ATOM      7  C   UNL     1      -8.152   3.557  -1.164  0.00  0.00    -0.010 C 
ATOM      8  C   UNL     1      -7.257   2.471  -0.564  0.00  0.00    +0.012 C 
ATOM      9  C   UNL     1      -8.032   4.834  -0.330  0.00  0.00    +0.007 C 
ATOM     10  C   UNL     1      -6.578   5.311  -0.334  0.00  0.00    -0.010 C 
ATOM     11  C   UNL     1      -6.139   5.597  -1.771  0.00  0.00    +0.007 C 
ATOM     12  C   UNL     1      -5.683   4.225   0.266  0.00  0.00    +0.012 C 
ENDBRANCH   2   3
BRANCH   2  13
ATOM     13  N   UNL     1      -3.516   2.318   0.029  0.00  0.00    -0.306 N 
ATOM     14  C   UNL     1      -2.512   1.419   0.020  0.00  0.00    +0.280 C 
ATOM     15  O   UNL     1      -2.762   0.228   0.015  0.00  0.00    -0.267 OA
ATOM     16  H   UNL     1      -3.317   3.267   0.033  0.00  0.00    +0.149 HD
BRANCH  14  17
ATOM     17  C   UNL     1      -1.120   1.876   0.017  0.00  0.00    +0.191 A 
ATOM     18  C   UNL     1      -0.013   1.076   0.008  0.00  0.00    +0.056 A 
ATOM     19  C   UNL     1       1.102   1.928   0.002  0.00  0.00    +0.058 A 
ATOM     20  C   UNL     1       0.632   3.197   0.013  0.00  0.00    +0.171 A 
ATOM     21  O   UNL     1      -0.707   3.161   0.025  0.00  0.00    -0.444 OA
ATOM     22 BR   UNL     1       1.692   4.763   0.011  0.00  0.00    -0.008 Br
ENDBRANCH  14  17
ENDBRANCH   2  13
TORSDOF 3
