REMARK  Name = ZINC09542579
REMARK  13 active torsions:
REMARK  status: ('A' for Active; 'I' for Inactive)
REMARK    1  A    between atoms: C_1  and  C_2
REMARK    2  A    between atoms: C_2  and  O_3
REMARK    3  A    between atoms: O_3  and  C_4
REMARK    4  A    between atoms: C_8  and  C_11
REMARK    5  A    between atoms: C_9  and  O_10
REMARK    6  A    between atoms: C_14  and  C_28
REMARK    7  A    between atoms: C_16  and  C_18
REMARK    8  A    between atoms: C_20  and  O_26
REMARK    9  A    between atoms: C_23  and  O_24
REMARK   10  A    between atoms: O_24  and  C_25
REMARK   11  A    between atoms: O_26  and  C_27
REMARK   12  A    between atoms: C_32  and  O_34
REMARK   13  A    between atoms: O_34  and  C_35
REMARK                            x       y       z     vdW  Elec       q    Type
REMARK                         _______ _______ _______ _____ _____    ______ ____
ROOT
ATOM      1  C   UNL     1      -1.224   7.490  -0.335  0.00  0.00    -0.028 C 
ATOM      2  C   UNL     1      -1.410   6.019   0.048  0.00  0.00    +0.044 C 
ATOM      3  C   UNL     1      -0.076   5.324   0.032  0.00  0.00    +0.040 C 
ATOM      4  N   UNL     1       1.039   5.953   0.030  0.00  0.00    -0.298 NA
ATOM      5  C   UNL     1       1.159   7.405   0.023  0.00  0.00    +0.085 C 
ATOM      6  N   UNL     1      -0.099   8.034   0.450  0.00  0.00    +0.401 N 
ATOM      7  H   UNL     1      -0.255   7.842   1.447  0.00  0.00    -0.081 HD
ATOM      8  H   UNL     1      -0.040   9.049   0.303  0.00  0.00    -0.081 HD
ENDROOT
BRANCH   1  13
ATOM      9  C   UNL     1      -4.720   8.922  -0.587  0.00  0.00    +0.162 A 
ATOM     10  C   UNL     1      -4.787   9.678   0.572  0.00  0.00    +0.049 A 
ATOM     11  C   UNL     1      -3.705   9.724   1.431  0.00  0.00    +0.004 A 
ATOM     12  C   UNL     1      -2.554   9.017   1.137  0.00  0.00    +0.006 A 
ATOM     13  C   UNL     1      -2.480   8.260  -0.018  0.00  0.00    -0.016 A 
ATOM     14  C   UNL     1      -3.559   8.214  -0.886  0.00  0.00    +0.160 A 
BRANCH  14  15
ATOM     15  O   UNL     1      -3.486   7.475  -2.025  0.00  0.00    -0.503 OA
ATOM     16  H   UNL     1      -3.785   6.561  -1.921  0.00  0.00    +0.292 HD
ENDBRANCH  14  15
BRANCH   9  17
ATOM     17  O   UNL     1      -5.783   8.876  -1.433  0.00  0.00    -0.489 OA
BRANCH  17  19
ATOM     18  C   UNL     1      -8.023   9.457  -2.130  0.00  0.00    +0.048 C 
ATOM     19  C   UNL     1      -6.939   9.632  -1.065  0.00  0.00    +0.226 C 
ENDBRANCH  17  19
ENDBRANCH   9  17
ENDBRANCH   1  13
BRANCH   5  20
ATOM     20  C   UNL     1       2.260   7.813   0.968  0.00  0.00    +0.005 A 
ATOM     21  C   UNL     1       2.160   8.995   1.676  0.00  0.00    +0.053 A 
ATOM     22  C   UNL     1       3.170   9.368   2.550  0.00  0.00    +0.121 A 
ATOM     23  C   UNL     1       4.286   8.558   2.706  0.00  0.00    +0.049 A 
ATOM     24  C   UNL     1       4.388   7.379   1.994  0.00  0.00    +0.049 A 
ATOM     25  C   UNL     1       3.375   7.004   1.124  0.00  0.00    +0.124 A 
BRANCH  25  26
ATOM     26  O   UNL     1       3.476   5.843   0.424  0.00  0.00    -0.495 OA
ATOM     27  C   UNL     1       4.652   5.059   0.633  0.00  0.00    +0.277 C 
ENDBRANCH  25  26
BRANCH  22  28
ATOM     28  O   UNL     1       3.069  10.529   3.251  0.00  0.00    -0.495 OA
ATOM     29  C   UNL     1       4.149  10.853   4.129  0.00  0.00    +0.277 C 
ENDBRANCH  22  28
ENDBRANCH   5  20
BRANCH   3  30
ATOM     30  C   UNL     1      -0.052   3.848   0.023  0.00  0.00    -0.001 A 
ATOM     31  C   UNL     1      -1.248   3.127   0.031  0.00  0.00    +0.010 A 
ATOM     32  C   UNL     1      -1.221   1.748   0.017  0.00  0.00    +0.004 A 
ATOM     33  C   UNL     1      -0.013   1.076   0.008  0.00  0.00    +0.045 A 
ATOM     34  C   UNL     1       1.182   1.784   0.000  0.00  0.00    +0.121 A 
ATOM     35  C   UNL     1       1.167   3.168   0.008  0.00  0.00    +0.055 A 
BRANCH  34  36
ATOM     36  O   UNL     1       2.366   1.117  -0.015  0.00  0.00    -0.495 OA
ATOM     37  C   UNL     1       2.307  -0.311  -0.022  0.00  0.00    +0.277 C 
ENDBRANCH  34  36
ENDBRANCH   3  30
TORSDOF 9
