REMARK  Name = ZINC63144568
REMARK  6 active torsions:
REMARK  status: ('A' for Active; 'I' for Inactive)
REMARK    1  A    between atoms: C_1  and  C_2
REMARK    2  A    between atoms: C_5  and  C_8
REMARK    3  A    between atoms: C_8  and  N_9
REMARK    4  A    between atoms: N_9  and  C_10
REMARK    5  A    between atoms: C_10  and  C_12
REMARK    6  A    between atoms: C_10  and  C_13
REMARK                            x       y       z     vdW  Elec       q    Type
REMARK                         _______ _______ _______ _____ _____    ______ ____
ROOT
ATOM      1  C   UNL     1      -0.028  -6.057   2.474  0.00  0.00    -0.044 C 
ATOM      2  C   UNL     1      -1.463  -6.587   2.485  0.00  0.00    -0.009 C 
ENDROOT
BRANCH   1   3
ATOM      3  C   UNL     1       0.701  -6.557   3.695  0.00  0.00    -0.060 A 
ATOM      4  C   UNL     1       0.509  -5.932   4.916  0.00  0.00    +0.004 A 
ATOM      5  C   UNL     1       1.173  -6.382   6.040  0.00  0.00    +0.028 A 
ATOM      6  C   UNL     1       2.034  -7.465   5.946  0.00  0.00    +0.067 A 
ATOM      7  C   UNL     1       2.228  -8.095   4.715  0.00  0.00    +0.067 A 
ATOM      8  C   UNL     1       1.553  -7.639   3.593  0.00  0.00    +0.029 A 
ATOM      9  N   UNL     1       3.132  -9.131   4.931  0.00  0.00    -0.306 N 
ATOM     10  H   UNL     1       3.461  -9.748   4.258  0.00  0.00    +0.170 HD
ATOM     11  C   UNL     1       3.474  -9.132   6.234  0.00  0.00    +0.325 A 
ATOM     12  O   UNL     1       4.249  -9.912   6.755  0.00  0.00    -0.247 OA
ATOM     13  N   UNL     1       2.828  -8.138   6.872  0.00  0.00    -0.306 N 
ATOM     14  H   UNL     1       2.902  -7.927   7.816  0.00  0.00    +0.170 HD
ENDBRANCH   1   3
BRANCH   1  15
ATOM     15  N   UNL     1      -0.048  -4.588   2.482  0.00  0.00    +0.384 N 
ATOM     16  H   UNL     1       0.896  -4.240   2.558  0.00  0.00    -0.085 HD
ATOM     17  H   UNL     1      -0.591  -4.264   3.269  0.00  0.00    -0.085 HD
BRANCH  15  18
ATOM     18  C   UNL     1      -0.652  -4.100   1.236  0.00  0.00    -0.078 C 
BRANCH  18  23
ATOM     19  C   UNL     1      -0.019   1.526   0.010  0.00  0.00    +0.007 C 
ATOM     20  C   UNL     1       0.002  -0.004   0.002  0.00  0.00    -0.014 C 
ATOM     21  C   UNL     1      -1.433  -0.534   0.013  0.00  0.00    +0.003 C 
ATOM     22  C   UNL     1      -1.413  -2.063   0.004  0.00  0.00    +0.002 C 
ATOM     23  C   UNL     1      -0.673  -2.570   1.244  0.00  0.00    -0.028 C 
ATOM     24  C   UNL     1       0.763  -2.041   1.233  0.00  0.00    +0.002 C 
ATOM     25  C   UNL     1       0.742  -0.511   1.242  0.00  0.00    +0.003 C 
ENDBRANCH  18  23
ENDBRANCH  15  18
ENDBRANCH   1  15
TORSDOF 4
