REMARK  Name = ZINC59641334
REMARK  13 active torsions:
REMARK  status: ('A' for Active; 'I' for Inactive)
REMARK    1  A    between atoms: C_1  and  C_2
REMARK    2  A    between atoms: C_5  and  C_8
REMARK    3  A    between atoms: C_8  and  O_9
REMARK    4  A    between atoms: O_9  and  C_10
REMARK    5  A    between atoms: C_13  and  C_18
REMARK    6  A    between atoms: C_15  and  O_16
REMARK    7  A    between atoms: O_16  and  C_17
REMARK    8  A    between atoms: N_19  and  N_20
REMARK    9  A    between atoms: C_22  and  C_31
REMARK   10  A    between atoms: C_23  and  C_28
REMARK   11  A    between atoms: C_25  and  C_27
REMARK   12  A    between atoms: C_28  and  O_29
REMARK   13  A    between atoms: O_29  and  C_30
REMARK                            x       y       z     vdW  Elec       q    Type
REMARK                         _______ _______ _______ _____ _____    ______ ____
ROOT
ATOM      1  C   UNL     1       1.608  -6.080  -0.040  0.00  0.00    +0.163 A 
ATOM      2  C   UNL     1       0.518  -6.937  -0.044  0.00  0.00    +0.065 A 
ATOM      3  C   UNL     1       0.711  -8.303  -0.053  0.00  0.00    +0.030 A 
ATOM      4  C   UNL     1       2.007  -8.826  -0.058  0.00  0.00    +0.012 A 
ATOM      5  C   UNL     1       3.105  -7.961  -0.053  0.00  0.00    +0.060 A 
ATOM      6  C   UNL     1       2.903  -6.593  -0.050  0.00  0.00    +0.162 A 
ATOM      7 BR   UNL     1      -0.779  -9.469  -0.059  0.00  0.00    -0.050 Br
ENDROOT
BRANCH   6   8
ATOM      8  O   UNL     1       3.969  -5.749  -0.051  0.00  0.00    -0.491 OA
ATOM      9  C   UNL     1       5.268  -6.344  -0.061  0.00  0.00    +0.277 C 
ENDBRANCH   6   8
BRANCH   4  10
ATOM     10  C   UNL     1       2.216 -10.285  -0.067  0.00  0.00    +0.139 C 
ATOM     11  N   UNL     1       1.195 -11.087  -0.071  0.00  0.00    -0.189 NA
BRANCH  11  12
ATOM     12  N   UNL     1       1.394 -12.474  -0.079  0.00  0.00    -0.220 N 
ATOM     13  C   UNL     1       0.306 -13.328  -0.083  0.00  0.00    +0.156 A 
ATOM     14  C   UNL     1       0.509 -14.720  -0.086  0.00  0.00    +0.098 A 
ATOM     15  C   UNL     1      -0.607 -15.564  -0.090  0.00  0.00    +0.000 A 
ATOM     16  C   UNL     1      -1.866 -14.989  -0.091  0.00  0.00    +0.030 A 
ATOM     17  C   UNL     1      -1.986 -13.611  -0.088  0.00  0.00    +0.041 A 
ATOM     18  N   UNL     1      -0.922 -12.832  -0.079  0.00  0.00    -0.234 NA
ATOM     19  C   UNL     1      -3.358 -12.988  -0.089  0.00  0.00    +0.065 C 
ATOM     20  H   UNL     1       2.294 -12.835  -0.083  0.00  0.00    +0.176 HD
BRANCH  14  21
ATOM     21  C   UNL     1       1.834 -15.263  -0.086  0.00  0.00    +0.103 C 
ATOM     22  N   UNL     1       2.885 -15.694  -0.085  0.00  0.00    -0.191 NA
ENDBRANCH  14  21
BRANCH  15  23
ATOM     23  C   UNL     1      -0.442 -17.061  -0.094  0.00  0.00    +0.196 C 
BRANCH  23  24
ATOM     24  O   UNL     1      -1.729 -17.682  -0.097  0.00  0.00    -0.378 OA
ATOM     25  C   UNL     1      -1.686 -19.111  -0.101  0.00  0.00    +0.194 C 
ENDBRANCH  23  24
ENDBRANCH  15  23
ENDBRANCH  11  12
ENDBRANCH   4  10
BRANCH   1  26
ATOM     26  O   UNL     1       1.413  -4.734  -0.032  0.00  0.00    -0.484 OA
BRANCH  26  27
ATOM     27  C   UNL     1       0.059  -4.275  -0.021  0.00  0.00    +0.264 C 
BRANCH  27  32
ATOM     28  C   UNL     1      -0.018   1.503   0.010  0.00  0.00    +0.044 C 
ATOM     29  C   UNL     1       0.002  -0.004   0.002  0.00  0.00    -0.050 A 
ATOM     30  C   UNL     1       0.006  -0.689  -1.199  0.00  0.00    +0.004 A 
ATOM     31  C   UNL     1       0.025  -2.071  -1.206  0.00  0.00    +0.007 A 
ATOM     32  C   UNL     1       0.040  -2.768  -0.013  0.00  0.00    -0.010 A 
ATOM     33  C   UNL     1       0.037  -2.084   1.188  0.00  0.00    +0.007 A 
ATOM     34  C   UNL     1       0.023  -0.702   1.195  0.00  0.00    +0.004 A 
ENDBRANCH  27  32
ENDBRANCH  26  27
ENDBRANCH   1  26
TORSDOF 9
