REMARK  Name = ZINC39503687
REMARK  4 active torsions:
REMARK  status: ('A' for Active; 'I' for Inactive)
REMARK    1  A    between atoms: C_4  and  O_26
REMARK    2  A    between atoms: C_5  and  C_7
REMARK    3  A    between atoms: N_17  and  C_18
REMARK    4  A    between atoms: C_23  and  O_24
REMARK                            x       y       z     vdW  Elec       q    Type
REMARK                         _______ _______ _______ _____ _____    ______ ____
ROOT
ATOM      1  C   UNL     1       1.172  -2.579   0.576  0.00  0.00    +0.025 C 
ATOM      2  C   UNL     1       0.184  -3.196   1.597  0.00  0.00    +0.010 C 
ATOM      3  C   UNL     1      -0.251  -4.512   0.902  0.00  0.00    +0.026 C 
ATOM      4  C   UNL     1      -0.345  -4.135  -0.585  0.00  0.00    +0.037 C 
ATOM      5  C   UNL     1       0.556  -2.910  -0.800  0.00  0.00    +0.034 C 
ATOM      6  C   UNL     1       0.135  -5.307  -1.457  0.00  0.00    +0.041 C 
ATOM      7  C   UNL     1      -1.195  -5.979  -1.892  0.00  0.00    +0.071 C 
ATOM      8  C   UNL     1      -2.131  -4.753  -2.041  0.00  0.00    +0.119 C 
ATOM      9  N   UNL     1      -1.730  -3.837  -0.955  0.00  0.00    -0.320 N 
ATOM     10  I   UNL     1      -0.962  -7.010  -3.778  0.00  0.00    -0.080 I 
ENDROOT
BRANCH   1  15
ATOM     11  C   UNL     1       0.209   1.060   0.873  0.00  0.00    +0.001 A 
ATOM     12  C   UNL     1       1.433   1.654   1.117  0.00  0.00    +0.004 A 
ATOM     13  C   UNL     1       2.576   0.881   1.187  0.00  0.00    +0.046 A 
ATOM     14  C   UNL     1       2.494  -0.493   1.012  0.00  0.00    +0.120 A 
ATOM     15  C   UNL     1       1.265  -1.087   0.767  0.00  0.00    -0.003 A 
ATOM     16  C   UNL     1       0.125  -0.309   0.698  0.00  0.00    +0.007 A 
BRANCH  14  17
ATOM     17  O   UNL     1       3.617  -1.256   1.079  0.00  0.00    -0.506 OA
ATOM     18  H   UNL     1       3.819  -1.580   1.968  0.00  0.00    +0.292 HD
ENDBRANCH  14  17
ENDBRANCH   1  15
BRANCH   9  19
ATOM     19  C   UNL     1      -2.538  -2.851  -0.377  0.00  0.00    +0.072 A 
ATOM     20  C   UNL     1      -3.218  -3.114   0.803  0.00  0.00    +0.027 A 
ATOM     21  C   UNL     1      -4.014  -2.138   1.373  0.00  0.00    +0.002 A 
ATOM     22  C   UNL     1      -4.135  -0.900   0.770  0.00  0.00    +0.004 A 
ATOM     23  C   UNL     1      -3.460  -0.631  -0.407  0.00  0.00    +0.047 A 
ATOM     24  C   UNL     1      -2.655  -1.602  -0.981  0.00  0.00    +0.138 A 
BRANCH  24  25
ATOM     25  O   UNL     1      -1.986  -1.337  -2.135  0.00  0.00    -0.505 OA
ATOM     26  H   UNL     1      -2.511  -1.479  -2.936  0.00  0.00    +0.292 HD
ENDBRANCH  24  25
ENDBRANCH   9  19
TORSDOF 4
