REMARK  Name = ZINC65006060
REMARK  6 active torsions:
REMARK  status: ('A' for Active; 'I' for Inactive)
REMARK    1  A    between atoms: C_1  and  C_2
REMARK    2  A    between atoms: C_2  and  C_3
REMARK    3  A    between atoms: C_2  and  S_4
REMARK    4  A    between atoms: S_4  and  C_5
REMARK    5  A    between atoms: N_13  and  C_14
REMARK    6  A    between atoms: C_20  and  O_22
REMARK                            x       y       z     vdW  Elec       q    Type
REMARK                         _______ _______ _______ _____ _____    ______ ____
ROOT
ATOM      1  C   UNL     1      -0.183  -0.166   2.814  0.00  0.00    +0.170 A 
ATOM      2  N   UNL     1      -1.293   0.522   2.698  0.00  0.00    -0.222 NA
ATOM      3  C   UNL     1      -1.755   0.855   3.932  0.00  0.00    +0.090 A 
ATOM      4  C   UNL     1      -2.871   1.568   4.378  0.00  0.00    +0.030 A 
ATOM      5  C   UNL     1      -3.074   1.744   5.728  0.00  0.00    +0.002 A 
ATOM      6  C   UNL     1      -2.180   1.219   6.649  0.00  0.00    +0.002 A 
ATOM      7  C   UNL     1      -1.073   0.513   6.224  0.00  0.00    +0.028 A 
ATOM      8  C   UNL     1      -0.852   0.326   4.869  0.00  0.00    +0.070 A 
ATOM      9  N   UNL     1       0.130  -0.320   4.135  0.00  0.00    -0.313 N 
ENDROOT
BRANCH   9  10
ATOM     10  C   UNL     1       1.291  -1.032   4.676  0.00  0.00    +0.118 C 
ATOM     11  C   UNL     1       0.814  -2.177   5.572  0.00  0.00    +0.028 C 
ATOM     12  C   UNL     1      -0.018  -1.610   6.724  0.00  0.00    +0.002 C 
ATOM     13  C   UNL     1       0.838  -0.642   7.544  0.00  0.00    +0.003 C 
ATOM     14  C   UNL     1       1.314   0.502   6.647  0.00  0.00    +0.033 C 
ATOM     15  C   UNL     1       2.147  -0.065   5.495  0.00  0.00    +0.137 C 
BRANCH  15  16
ATOM     16  O   UNL     1       2.591   1.005   4.658  0.00  0.00    -0.390 OA
ATOM     17  H   UNL     1       3.141   1.658   5.113  0.00  0.00    +0.210 HD
ENDBRANCH  15  16
ENDBRANCH   9  10
BRANCH   1  18
ATOM     18  S   UNL     1       0.759  -0.803   1.469  0.00  0.00    -0.085 S 
BRANCH  18  20
ATOM     19  C   UNL     1      -0.136   1.254  -0.095  0.00  0.00    +0.019 C 
ATOM     20  C   UNL     1      -0.161  -0.273  -0.002  0.00  0.00    +0.048 C 
ATOM     21  C   UNL     1       0.487  -0.871  -1.252  0.00  0.00    +0.019 C 
ENDBRANCH  18  20
ENDBRANCH   1  18
TORSDOF 4
