REMARK  Name = ZINC01372267
REMARK  5 active torsions:
REMARK  status: ('A' for Active; 'I' for Inactive)
REMARK    1  A    between atoms: C_1  and  C_2
REMARK    2  A    between atoms: C_15  and  S_18
REMARK    3  A    between atoms: S_18  and  C_19
REMARK    4  A    between atoms: C_19  and  C_20
REMARK    5  A    between atoms: N_22  and  C_23
REMARK                            x       y       z     vdW  Elec       q    Type
REMARK                         _______ _______ _______ _____ _____    ______ ____
ROOT
ATOM      1  C   UNL     1      -0.018   1.503   0.010  0.00  0.00    +0.086 C 
ATOM      2  C   UNL     1       0.002  -0.004   0.002  0.00  0.00    +0.115 A 
ATOM      3  N   UNL     1       0.005  -0.635  -1.137  0.00  0.00    -0.226 NA
ATOM      4  C   UNL     1       0.022  -1.963  -1.216  0.00  0.00    +0.114 A 
ATOM      5  C   UNL     1       0.040  -2.783  -0.078  0.00  0.00    +0.056 A 
ATOM      6  C   UNL     1       0.056  -4.183  -0.300  0.00  0.00    -0.024 A 
ATOM      7  C   UNL     1       0.054  -4.615  -1.582  0.00  0.00    -0.004 A 
ATOM      8  S   UNL     1       0.030  -3.132  -2.553  0.00  0.00    -0.073 S 
ATOM      9  C   UNL     1       0.068  -6.032  -2.066  0.00  0.00    +0.043 C 
ATOM     10  C   UNL     1       0.457  -6.941  -0.891  0.00  0.00    +0.005 C 
ATOM     11  C   UNL     1      -0.377  -6.547   0.331  0.00  0.00    +0.005 C 
ATOM     12  C   UNL     1       0.074  -5.183   0.854  0.00  0.00    +0.037 C 
ATOM     13  C   UNL     1       0.037  -2.056   1.211  0.00  0.00    +0.173 A 
ATOM     14  N   UNL     1       0.022  -0.678   1.188  0.00  0.00    -0.258 N 
ATOM     15  C   UNL     1       0.029  -0.293   2.500  0.00  0.00    +0.198 A 
ATOM     16  N   UNL     1       0.053  -1.387   3.227  0.00  0.00    -0.122 NA
ATOM     17  N   UNL     1       0.050  -2.428   2.467  0.00  0.00    -0.128 NA
ENDROOT
BRANCH  15  18
ATOM     18  S   UNL     1       0.010   1.362   3.104  0.00  0.00    -0.076 S 
BRANCH  18  19
ATOM     19  C   UNL     1       0.030   1.171   4.908  0.00  0.00    +0.173 C 
BRANCH  19  20
ATOM     20  C   UNL     1       0.015   2.531   5.557  0.00  0.00    +0.224 C 
ATOM     21  O   UNL     1      -0.006   3.531   4.871  0.00  0.00    -0.275 OA
ATOM     22  N   UNL     1       0.027   2.637   6.901  0.00  0.00    -0.312 N 
ATOM     23  H   UNL     1       0.045   1.837   7.450  0.00  0.00    +0.149 HD
BRANCH  22  24
ATOM     24  C   UNL     1       0.013   3.959   7.532  0.00  0.00    +0.073 C 
ATOM     25  C   UNL     1      -1.431   4.451   7.652  0.00  0.00    +0.022 C 
ATOM     26  C   UNL     1      -1.446   5.832   8.311  0.00  0.00    +0.002 C 
ATOM     27  C   UNL     1      -0.821   5.738   9.705  0.00  0.00    +0.000 C 
ATOM     28  C   UNL     1       0.623   5.246   9.585  0.00  0.00    +0.002 C 
ATOM     29  C   UNL     1       0.637   3.865   8.925  0.00  0.00    +0.022 C 
ENDBRANCH  22  24
ENDBRANCH  19  20
ENDBRANCH  18  19
ENDBRANCH  15  18
TORSDOF 4
