REMARK  Name = ZINC63137563
REMARK  9 active torsions:
REMARK  status: ('A' for Active; 'I' for Inactive)
REMARK    1  A    between atoms: C_1  and  O_2
REMARK    2  A    between atoms: O_2  and  C_3
REMARK    3  A    between atoms: C_6  and  C_9
REMARK    4  A    between atoms: C_9  and  N_10
REMARK    5  A    between atoms: C_30  and  C_32
REMARK    6  A    between atoms: C_36  and  O_40
REMARK    7  A    between atoms: C_37  and  O_38
REMARK    8  A    between atoms: O_38  and  C_39
REMARK    9  A    between atoms: O_40  and  C_41
REMARK                            x       y       z     vdW  Elec       q    Type
REMARK                         _______ _______ _______ _____ _____    ______ ____
ROOT
ATOM      1  N   UNL     1       1.620  -2.797   5.383  0.00  0.00    -0.287 N 
ATOM      2  C   UNL     1       1.374  -1.805   6.446  0.00  0.00    +0.204 C 
ATOM      3  C   UNL     1      -0.121  -1.667   6.638  0.00  0.00    +0.234 C 
ATOM      4  O   UNL     1      -0.648  -0.581   6.762  0.00  0.00    -0.274 OA
ATOM      5  N   UNL     1      -0.855  -2.828   6.665  0.00  0.00    -0.279 N 
ATOM      6  C   UNL     1      -0.084  -4.051   6.585  0.00  0.00    +0.167 C 
ATOM      7  C   UNL     1       0.897  -3.954   5.445  0.00  0.00    +0.237 C 
ATOM      8  O   UNL     1       1.039  -4.848   4.637  0.00  0.00    -0.274 OA
ATOM      9  C   UNL     1      -0.824  -5.364   6.593  0.00  0.00    +0.065 C 
ATOM     10  C   UNL     1      -2.302  -5.120   6.457  0.00  0.00    -0.034 C 
ATOM     11  C   UNL     1      -3.246  -5.742   5.765  0.00  0.00    -0.001 A 
ATOM     12  C   UNL     1      -3.206  -6.936   4.905  0.00  0.00    +0.010 A 
ATOM     13  C   UNL     1      -4.382  -7.301   4.329  0.00  0.00    +0.001 A 
ATOM     14  C   UNL     1      -5.581  -6.607   4.521  0.00  0.00    +0.002 A 
ATOM     15  C   UNL     1      -5.711  -5.502   5.299  0.00  0.00    +0.026 A 
ATOM     16  C   UNL     1      -4.542  -5.023   5.960  0.00  0.00    +0.043 A 
ATOM     17  N   UNL     1      -4.385  -4.011   6.759  0.00  0.00    -0.375 N 
ATOM     18  C   UNL     1      -2.983  -3.969   7.195  0.00  0.00    +0.131 C 
ATOM     19  C   UNL     1      -2.303  -2.694   6.719  0.00  0.00    +0.137 C 
ATOM     20  H   UNL     1      -5.078  -3.386   7.023  0.00  0.00    +0.160 HD
ENDROOT
BRANCH  19  21
ATOM     21  C   UNL     1      -2.820  -2.396   5.335  0.00  0.00    +0.021 A 
ATOM     22  C   UNL     1      -2.095  -2.792   4.226  0.00  0.00    +0.009 A 
ATOM     23  C   UNL     1      -2.567  -2.520   2.955  0.00  0.00    +0.004 A 
ATOM     24  C   UNL     1      -3.765  -1.851   2.788  0.00  0.00    +0.049 A 
ATOM     25  C   UNL     1      -4.496  -1.451   3.894  0.00  0.00    +0.162 A 
ATOM     26  C   UNL     1      -4.024  -1.730   5.174  0.00  0.00    +0.166 A 
BRANCH  26  27
ATOM     27  O   UNL     1      -4.741  -1.345   6.264  0.00  0.00    -0.491 OA
ATOM     28  C   UNL     1      -4.468  -0.047   6.794  0.00  0.00    +0.277 C 
ENDBRANCH  26  27
BRANCH  25  29
ATOM     29  O   UNL     1      -5.675  -0.793   3.731  0.00  0.00    -0.491 OA
ATOM     30  C   UNL     1      -6.100  -0.546   2.390  0.00  0.00    +0.277 C 
ENDBRANCH  25  29
ENDBRANCH  19  21
BRANCH   1  31
ATOM     31  C   UNL     1       2.587  -2.550   4.310  0.00  0.00    +0.143 C 
BRANCH  31  35
ATOM     32  C   UNL     1       0.626  -0.618   1.042  0.00  0.00    +0.120 A 
ATOM     33  C   UNL     1       1.202   0.138   2.051  0.00  0.00    +0.046 A 
ATOM     34  C   UNL     1       1.835  -0.488   3.107  0.00  0.00    +0.009 A 
ATOM     35  C   UNL     1       1.895  -1.869   3.158  0.00  0.00    -0.030 A 
ATOM     36  C   UNL     1       1.322  -2.625   2.152  0.00  0.00    +0.009 A 
ATOM     37  C   UNL     1       0.682  -2.003   1.098  0.00  0.00    +0.046 A 
BRANCH  32  39
ATOM     38  C   UNL     1      -0.017   1.425   0.010  0.00  0.00    +0.277 C 
ATOM     39  O   UNL     1       0.002  -0.004   0.002  0.00  0.00    -0.495 OA
ENDBRANCH  32  39
ENDBRANCH  31  35
ENDBRANCH   1  31
TORSDOF 6
