REMARK  Name = ZINC36569527
REMARK  9 active torsions:
REMARK  status: ('A' for Active; 'I' for Inactive)
REMARK    1  A    between atoms: C_1  and  C_2
REMARK    2  A    between atoms: C_2  and  C_3
REMARK    3  A    between atoms: C_3  and  C_5
REMARK    4  A    between atoms: C_3  and  C_6
REMARK    5  A    between atoms: C_6  and  C_8
REMARK    6  A    between atoms: C_6  and  N_12
REMARK    7  A    between atoms: C_8  and  O_10
REMARK    8  A    between atoms: O_10  and  C_11
REMARK    9  A    between atoms: C_24  and  C_26
REMARK                            x       y       z     vdW  Elec       q    Type
REMARK                         _______ _______ _______ _____ _____    ______ ____
ROOT
ATOM      1  N   UNL     1      -0.579   1.277  -3.558  0.00  0.00    -0.286 N 
ATOM      2  C   UNL     1      -1.578   1.929  -2.929  0.00  0.00    +0.304 C 
ATOM      3  O   UNL     1      -1.874   1.631  -1.788  0.00  0.00    -0.253 OA
ATOM      4  N   UNL     1      -2.248   2.909  -3.566  0.00  0.00    -0.273 N 
ATOM      5  C   UNL     1      -1.985   3.204  -4.982  0.00  0.00    +0.116 C 
ATOM      6  C   UNL     1      -3.249   2.906  -5.800  0.00  0.00    +0.074 C 
ATOM      7  C   UNL     1      -4.440   3.480  -5.079  0.00  0.00    +0.040 A 
ATOM      8  C   UNL     1      -4.456   3.835  -3.776  0.00  0.00    +0.062 A 
ATOM      9  N   UNL     1      -5.675   4.297  -3.486  0.00  0.00    -0.348 N 
ATOM     10  C   UNL     1      -6.418   4.245  -4.561  0.00  0.00    +0.171 A 
ATOM     11  N   UNL     1      -5.681   3.741  -5.577  0.00  0.00    -0.349 N 
ATOM     12  H   UNL     1      -5.979   3.594  -6.488  0.00  0.00    +0.166 HD
ATOM     13  C   UNL     1      -3.267   3.708  -2.861  0.00  0.00    +0.159 C 
ATOM     14  H   UNL     1      -0.294   1.562  -4.440  0.00  0.00    +0.151 HD
ATOM     15  H   UNL     1      -5.962   4.619  -2.618  0.00  0.00    +0.167 HD
ENDROOT
BRANCH  13  16
ATOM     16  C   UNL     1      -2.719   5.076  -2.547  0.00  0.00    +0.015 A 
ATOM     17  C   UNL     1      -3.128   6.171  -3.284  0.00  0.00    +0.028 A 
ATOM     18  C   UNL     1      -2.626   7.427  -2.996  0.00  0.00    +0.041 A 
ATOM     19  C   UNL     1      -1.712   7.588  -1.969  0.00  0.00    +0.023 A 
ATOM     20  C   UNL     1      -1.301   6.494  -1.232  0.00  0.00    +0.040 A 
ATOM     21  C   UNL     1      -1.809   5.238  -1.516  0.00  0.00    +0.129 A 
ATOM     22  F   UNL     1      -1.412   4.169  -0.791  0.00  0.00    -0.205 F 
ATOM     23 CL   UNL     1      -3.140   8.802  -3.923  0.00  0.00    -0.084 Cl
ENDBRANCH  13  16
BRANCH   1  24
ATOM     24  C   UNL     1       0.076   0.139  -2.908  0.00  0.00    +0.186 C 
BRANCH  24  25
ATOM     25  C   UNL     1       1.172   0.650  -1.970  0.00  0.00    +0.017 C 
ATOM     26  C   UNL     1       2.270   1.329  -2.790  0.00  0.00    +0.010 C 
BRANCH  25  28
ATOM     27  C   UNL     1       0.700  -1.126  -0.276  0.00  0.00    +0.004 C 
ATOM     28  C   UNL     1       1.768  -0.527  -1.194  0.00  0.00    +0.002 C 
ENDBRANCH  25  28
ENDBRANCH  24  25
BRANCH  24  29
ATOM     29  C   UNL     1       0.688  -0.753  -3.956  0.00  0.00    +0.328 C 
ATOM     30  O   UNL     1       0.941  -0.313  -5.053  0.00  0.00    -0.249 OA
BRANCH  29  31
ATOM     31  O   UNL     1       0.953  -2.038  -3.672  0.00  0.00    -0.467 OA
ATOM     32  C   UNL     1       1.533  -2.827  -4.713  0.00  0.00    +0.280 C 
ENDBRANCH  29  31
ENDBRANCH  24  29
ENDBRANCH   1  24
TORSDOF 6
