REMARK  Name = ZINC39425461
REMARK  13 active torsions:
REMARK  status: ('A' for Active; 'I' for Inactive)
REMARK    1  A    between atoms: C_1  and  C_2
REMARK    2  A    between atoms: C_2  and  C_3
REMARK    3  A    between atoms: C_2  and  C_4
REMARK    4  A    between atoms: C_4  and  C_5
REMARK    5  A    between atoms: C_8  and  C_11
REMARK    6  A    between atoms: C_18  and  N_36
REMARK    7  A    between atoms: C_19  and  C_34
REMARK    8  A    between atoms: C_20  and  C_22
REMARK    9  A    between atoms: C_26  and  O_32
REMARK   10  A    between atoms: C_27  and  O_28
REMARK   11  A    between atoms: O_28  and  C_29
REMARK   12  A    between atoms: C_29  and  C_31
REMARK   13  A    between atoms: O_32  and  C_33
REMARK                            x       y       z     vdW  Elec       q    Type
REMARK                         _______ _______ _______ _____ _____    ______ ____
ROOT
ATOM      1  C   UNL     1      -0.566  -6.095  -0.127  0.00  0.00    +0.100 A 
ATOM      2  C   UNL     1       0.177  -6.818   0.812  0.00  0.00    +0.054 A 
ATOM      3  C   UNL     1       0.305  -8.097   0.353  0.00  0.00    +0.223 A 
ATOM      4  N   UNL     1      -0.335  -8.175  -0.831  0.00  0.00    -0.246 N 
ATOM      5  H   UNL     1      -0.411  -8.966  -1.388  0.00  0.00    +0.192 HD
ATOM      6  N   UNL     1      -0.879  -6.912  -1.114  0.00  0.00    -0.171 NA
ATOM      7  O   UNL     1       0.980  -9.055   1.037  0.00  0.00    -0.423 OA
ATOM      8  C   UNL     1       1.764  -8.658   2.060  0.00  0.00    +0.200 C 
ATOM      9  C   UNL     1       1.719  -7.423   2.606  0.00  0.00    +0.098 C 
ATOM     10  C   UNL     1       0.769  -6.357   2.119  0.00  0.00    +0.105 C 
ENDROOT
BRANCH   1  14
ATOM     11  C   UNL     1      -1.640  -1.990   0.160  0.00  0.00    -0.047 A 
ATOM     12  C   UNL     1      -2.540  -2.903  -0.359  0.00  0.00    +0.004 A 
ATOM     13  C   UNL     1      -2.196  -4.237  -0.455  0.00  0.00    +0.010 A 
ATOM     14  C   UNL     1      -0.941  -4.662  -0.027  0.00  0.00    +0.003 A 
ATOM     15  C   UNL     1      -0.038  -3.738   0.495  0.00  0.00    +0.010 A 
ATOM     16  C   UNL     1      -0.390  -2.406   0.581  0.00  0.00    +0.004 A 
BRANCH  11  17
ATOM     17  C   UNL     1      -2.021  -0.535   0.261  0.00  0.00    +0.038 C 
BRANCH  17  19
ATOM     18  C   UNL     1      -2.289   1.590  -1.026  0.00  0.00    +0.007 C 
ATOM     19  C   UNL     1      -1.761   0.154  -1.080  0.00  0.00    -0.013 C 
ATOM     20  C   UNL     1      -0.257   0.174  -1.360  0.00  0.00    +0.007 C 
ENDBRANCH  17  19
ENDBRANCH  11  17
ENDBRANCH   1  14
BRANCH  10  21
ATOM     21  C   UNL     1      -0.330  -6.154   3.130  0.00  0.00    +0.011 A 
ATOM     22  C   UNL     1      -0.355  -5.006   3.901  0.00  0.00    +0.008 A 
ATOM     23  C   UNL     1      -1.361  -4.816   4.830  0.00  0.00    +0.004 A 
ATOM     24  C   UNL     1      -2.346  -5.772   4.992  0.00  0.00    +0.049 A 
ATOM     25  C   UNL     1      -2.327  -6.924   4.223  0.00  0.00    +0.163 A 
ATOM     26  C   UNL     1      -1.317  -7.113   3.284  0.00  0.00    +0.177 A 
BRANCH  25  27
ATOM     27  O   UNL     1      -3.295  -7.866   4.382  0.00  0.00    -0.491 OA
ATOM     28  C   UNL     1      -4.302  -7.602   5.360  0.00  0.00    +0.277 C 
ENDBRANCH  25  27
BRANCH  26  29
ATOM     29  O   UNL     1      -1.296  -8.240   2.523  0.00  0.00    -0.422 OA
BRANCH  29  30
ATOM     30  C   UNL     1      -0.868  -9.378   3.093  0.00  0.00    +0.309 C 
ATOM     31  O   UNL     1      -0.417  -9.359   4.214  0.00  0.00    -0.251 OA
ATOM     32  C   UNL     1      -0.950 -10.678   2.335  0.00  0.00    +0.136 C 
ENDBRANCH  29  30
ENDBRANCH  26  29
ENDBRANCH  10  21
BRANCH   8  33
ATOM     33  N   UNL     1       2.660  -9.561   2.576  0.00  0.00    -0.328 N 
ATOM     34  H   UNL     1       2.716 -10.455   2.204  0.00  0.00    +0.145 HD
ATOM     35  H   UNL     1       3.237  -9.305   3.312  0.00  0.00    +0.145 HD
ENDBRANCH   8  33
BRANCH   9  36
ATOM     36  C   UNL     1       2.605  -7.114   3.688  0.00  0.00    +0.101 C 
ATOM     37  N   UNL     1       3.308  -6.869   4.546  0.00  0.00    -0.191 NA
ENDBRANCH   9  36
TORSDOF 9
