REMARK  Name = ZINC13115440
REMARK  10 active torsions:
REMARK  status: ('A' for Active; 'I' for Inactive)
REMARK    1  A    between atoms: C_1  and  C_2
REMARK    2  A    between atoms: C_6  and  N_9
REMARK    3  A    between atoms: C_7  and  C_8
REMARK    4  A    between atoms: C_13  and  S_15
REMARK    5  A    between atoms: S_15  and  C_16
REMARK    6  A    between atoms: C_16  and  C_17
REMARK    7  A    between atoms: C_17  and  C_19
REMARK    8  A    between atoms: C_19  and  C_29
REMARK    9  A    between atoms: C_29  and  O_31
REMARK   10  A    between atoms: O_31  and  C_32
REMARK                            x       y       z     vdW  Elec       q    Type
REMARK                         _______ _______ _______ _____ _____    ______ ____
ROOT
ATOM      1  C   UNL     1      -1.278   2.194  -0.483  0.00  0.00    +0.183 C 
ATOM      2  O   UNL     1      -1.278   3.384  -0.236  0.00  0.00    -0.291 OA
ENDROOT
BRANCH   1   3
ATOM      3  C   UNL     1      -0.069   1.536  -0.775  0.00  0.00    +0.138 C 
ATOM      4  C   UNL     1       1.140   2.258  -0.788  0.00  0.00    +0.110 C 
ATOM      5  N   UNL     1       1.265   3.586  -0.536  0.00  0.00    -0.301 N 
ATOM      6  C   UNL     1       2.609   3.925  -0.640  0.00  0.00    +0.054 A 
ATOM      7  C   UNL     1       3.300   5.119  -0.487  0.00  0.00    +0.025 A 
ATOM      8  C   UNL     1       4.668   5.149  -0.666  0.00  0.00    +0.002 A 
ATOM      9  C   UNL     1       5.355   3.992  -0.997  0.00  0.00    +0.002 A 
ATOM     10  C   UNL     1       4.678   2.800  -1.151  0.00  0.00    +0.025 A 
ATOM     11  C   UNL     1       3.301   2.759  -0.975  0.00  0.00    +0.054 A 
ATOM     12  N   UNL     1       2.363   1.737  -1.060  0.00  0.00    -0.301 N 
ATOM     13  H   UNL     1       0.541   4.193  -0.318  0.00  0.00    +0.153 HD
ATOM     14  H   UNL     1       2.550   0.810  -1.277  0.00  0.00    +0.153 HD
BRANCH   3  15
ATOM     15  C   UNL     1      -0.069   0.105  -1.071  0.00  0.00    +0.345 C 
ATOM     16  O   UNL     1       0.976  -0.463  -1.329  0.00  0.00    -0.245 OA
BRANCH  15  17
ATOM     17  O   UNL     1      -1.227  -0.587  -1.059  0.00  0.00    -0.464 OA
ATOM     18  C   UNL     1      -1.153  -1.982  -1.358  0.00  0.00    +0.280 C 
ENDBRANCH  15  17
ENDBRANCH   3  15
ENDBRANCH   1   3
BRANCH   1  19
ATOM     19  C   UNL     1      -2.572   1.422  -0.475  0.00  0.00    +0.156 C 
BRANCH  19  20
ATOM     20  S   UNL     1      -3.940   2.541  -0.066  0.00  0.00    -0.089 S 
BRANCH  20  25
ATOM     21  N   UNL     1      -9.084  -0.133   0.043  0.00  0.00    -0.292 N 
ATOM     22  C   UNL     1      -7.761   0.288  -0.041  0.00  0.00    +0.187 A 
ATOM     23  N   UNL     1      -6.679  -0.409  -0.325  0.00  0.00    -0.125 NA
ATOM     24  N   UNL     1      -5.452   0.213  -0.359  0.00  0.00    -0.133 NA
ATOM     25  C   UNL     1      -5.364   1.503  -0.097  0.00  0.00    +0.160 A 
ATOM     26  S   UNL     1      -7.074   1.918   0.209  0.00  0.00    -0.024 S 
ATOM     27  H   UNL     1      -9.791   0.516   0.178  0.00  0.00    +0.154 HD
BRANCH  21  33
ATOM     28  C   UNL     1     -12.456  -3.680  -0.404  0.00  0.00    +0.044 C 
ATOM     29  C   UNL     1     -11.020  -3.239  -0.288  0.00  0.00    -0.046 A 
ATOM     30  C   UNL     1     -10.006  -4.180  -0.291  0.00  0.00    +0.004 A 
ATOM     31  C   UNL     1      -8.687  -3.780  -0.185  0.00  0.00    +0.002 A 
ATOM     32  C   UNL     1      -8.377  -2.438  -0.080  0.00  0.00    +0.023 A 
ATOM     33  C   UNL     1      -9.393  -1.490  -0.070  0.00  0.00    +0.036 A 
ATOM     34  C   UNL     1     -10.718  -1.896  -0.177  0.00  0.00    -0.026 A 
ATOM     35  C   UNL     1     -11.823  -0.872  -0.172  0.00  0.00    +0.046 C 
ENDBRANCH  21  33
ENDBRANCH  20  25
ENDBRANCH  19  20
ENDBRANCH   1  19
TORSDOF 7
