REMARK  Name = ZINC03061631
REMARK  7 active torsions:
REMARK  status: ('A' for Active; 'I' for Inactive)
REMARK    1  A    between atoms: C_1  and  C_2
REMARK    2  A    between atoms: C_5  and  C_8
REMARK    3  A    between atoms: C_8  and  N_9
REMARK    4  A    between atoms: C_10  and  C_12
REMARK    5  A    between atoms: C_12  and  S_13
REMARK    6  A    between atoms: S_13  and  C_14
REMARK    7  A    between atoms: C_26  and  C_29
REMARK                            x       y       z     vdW  Elec       q    Type
REMARK                         _______ _______ _______ _____ _____    ______ ____
ROOT
ATOM      1  C   UNL     1      -1.709  -0.604  -0.038  0.00  0.00    +0.084 C 
ATOM      2  C   UNL     1      -1.722  -2.122   0.164  0.00  0.00    +0.067 C 
ATOM      3  C   UNL     1      -3.118  -2.641  -0.183  0.00  0.00    +0.112 C 
ATOM      4  C   UNL     1      -4.171  -1.928   0.684  0.00  0.00    +0.048 C 
ATOM      5  C   UNL     1      -5.213  -3.032   0.996  0.00  0.00    +0.004 C 
ATOM      6  C   UNL     1      -4.332  -4.291   1.190  0.00  0.00    +0.004 C 
ATOM      7  C   UNL     1      -3.217  -4.140   0.133  0.00  0.00    +0.048 C 
ATOM      8  O   UNL     1      -3.381  -2.406  -1.563  0.00  0.00    -0.485 OA
ATOM      9  C   UNL     1      -3.124  -1.165  -2.053  0.00  0.00    +0.126 A 
ATOM     10  C   UNL     1      -2.329  -0.263  -1.370  0.00  0.00    +0.008 A 
ATOM     11  C   UNL     1      -2.092   0.992  -1.910  0.00  0.00    +0.011 A 
ATOM     12  C   UNL     1      -2.647   1.344  -3.125  0.00  0.00    -0.050 A 
ATOM     13  C   UNL     1      -3.444   0.444  -3.808  0.00  0.00    +0.007 A 
ATOM     14  C   UNL     1      -3.683  -0.807  -3.275  0.00  0.00    +0.046 A 
ATOM     15  C   UNL     1      -2.382   2.709  -3.707  0.00  0.00    +0.044 C 
ENDROOT
BRANCH   1  16
ATOM     16  S   UNL     1       0.002  -0.004   0.002  0.00  0.00    -0.143 S 
BRANCH  16  17
ATOM     17  C   UNL     1       0.528  -0.293   1.714  0.00  0.00    +0.165 C 
BRANCH  17  19
ATOM     18  N   UNL     1       2.504   0.182   3.123  0.00  0.00    -0.311 N 
ATOM     19  C   UNL     1       1.906   0.280   1.920  0.00  0.00    +0.223 C 
ATOM     20  O   UNL     1       2.478   0.830   1.002  0.00  0.00    -0.275 OA
ATOM     21  H   UNL     1       2.047  -0.257   3.858  0.00  0.00    +0.149 HD
BRANCH  18  22
ATOM     22  C   UNL     1       3.844   0.740   3.324  0.00  0.00    +0.139 C 
BRANCH  22  27
ATOM     23  C   UNL     1       5.519  -0.181   8.777  0.00  0.00    +0.044 C 
ATOM     24  C   UNL     1       5.083   0.059   7.355  0.00  0.00    -0.050 A 
ATOM     25  C   UNL     1       5.365  -0.876   6.377  0.00  0.00    +0.003 A 
ATOM     26  C   UNL     1       4.965  -0.656   5.073  0.00  0.00    +0.005 A 
ATOM     27  C   UNL     1       4.281   0.500   4.746  0.00  0.00    -0.030 A 
ATOM     28  C   UNL     1       4.003   1.438   5.722  0.00  0.00    +0.005 A 
ATOM     29  C   UNL     1       4.400   1.216   7.027  0.00  0.00    +0.003 A 
ENDBRANCH  22  27
ENDBRANCH  18  22
ENDBRANCH  17  19
ENDBRANCH  16  17
ENDBRANCH   1  16
TORSDOF 5
