REMARK  Name = ZINC45962117
REMARK  6 active torsions:
REMARK  status: ('A' for Active; 'I' for Inactive)
REMARK    1  A    between atoms: C_1  and  N_2
REMARK    2  A    between atoms: N_2  and  C_3
REMARK    3  A    between atoms: C_13  and  N_14
REMARK    4  A    between atoms: N_14  and  S_15
REMARK    5  A    between atoms: S_15  and  C_18
REMARK    6  A    between atoms: C_21  and  C_24
REMARK                            x       y       z     vdW  Elec       q    Type
REMARK                         _______ _______ _______ _____ _____    ______ ____
ROOT
ATOM      1  C   UNL     1      -0.247   0.949   0.990  0.00  0.00    +0.067 A 
ATOM      2  C   UNL     1       0.380  -0.284   1.492  0.00  0.00    +0.040 A 
ATOM      3  C   UNL     1       1.753  -0.342   1.742  0.00  0.00    +0.013 A 
ATOM      4  C   UNL     1       2.311  -1.510   2.212  0.00  0.00    +0.001 A 
ATOM      5  C   UNL     1       1.515  -2.625   2.436  0.00  0.00    +0.004 A 
ATOM      6  C   UNL     1       0.159  -2.581   2.193  0.00  0.00    +0.047 A 
ATOM      7  C   UNL     1      -0.424  -1.412   1.719  0.00  0.00    +0.141 A 
ATOM      8  O   UNL     1      -1.751  -1.355   1.477  0.00  0.00    -0.421 OA
ATOM      9  C   UNL     1      -2.342  -0.240   1.019  0.00  0.00    +0.362 A 
ATOM     10  O   UNL     1      -3.545  -0.246   0.818  0.00  0.00    -0.243 OA
ATOM     11  C   UNL     1      -1.612   0.936   0.770  0.00  0.00    +0.154 A 
ENDROOT
BRANCH   1  13
ATOM     12  C   UNL     1      -0.157   3.329   0.348  0.00  0.00    +0.125 C 
ATOM     13  N   UNL     1       0.504   2.086   0.752  0.00  0.00    -0.345 N 
ATOM     14  H   UNL     1       1.469   2.060   0.852  0.00  0.00    +0.146 HD
ENDBRANCH   1  13
BRANCH  11  15
ATOM     15  N   UNL     1      -2.265   2.089   0.296  0.00  0.00    -0.208 N 
ATOM     16  H   UNL     1      -1.747   2.867   0.037  0.00  0.00    +0.174 HD
BRANCH  15  17
ATOM     17  S   UNL     1      -3.916   2.117   0.181  0.00  0.00    +0.073 S 
ATOM     18  O   UNL     1      -4.282   3.463  -0.088  0.00  0.00    -0.150 OA
ATOM     19  O   UNL     1      -4.282   1.043  -0.675  0.00  0.00    -0.150 OA
BRANCH  17  20
ATOM     20  C   UNL     1      -4.557   1.730   1.776  0.00  0.00    +0.109 A 
ATOM     21  C   UNL     1      -5.275   0.562   1.965  0.00  0.00    +0.030 A 
ATOM     22  C   UNL     1      -5.779   0.253   3.211  0.00  0.00    +0.021 A 
ATOM     23  C   UNL     1      -5.563   1.121   4.283  0.00  0.00    +0.052 A 
ATOM     24  C   UNL     1      -4.837   2.298   4.085  0.00  0.00    +0.021 A 
ATOM     25  C   UNL     1      -4.334   2.592   2.835  0.00  0.00    +0.030 A 
BRANCH  23  26
ATOM     26  C   UNL     1      -6.084   0.807   5.580  0.00  0.00    +0.099 C 
ATOM     27  N   UNL     1      -6.497   0.558   6.608  0.00  0.00    -0.191 NA
ENDBRANCH  23  26
ENDBRANCH  17  20
ENDBRANCH  15  17
ENDBRANCH  11  15
TORSDOF 5
