REMARK  Name = ZINC48355001
REMARK  19 active torsions:
REMARK  status: ('A' for Active; 'I' for Inactive)
REMARK    1  A    between atoms: C_1  and  C_2
REMARK    2  A    between atoms: C_5  and  S_8
REMARK    3  A    between atoms: S_8  and  N_11
REMARK    4  A    between atoms: N_11  and  C_12
REMARK    5  A    between atoms: C_12  and  C_14
REMARK    6  A    between atoms: C_12  and  C_18
REMARK    7  A    between atoms: C_14  and  C_15
REMARK    8  A    between atoms: C_15  and  C_16
REMARK    9  A    between atoms: C_15  and  C_17
REMARK   10  A    between atoms: N_20  and  C_21
REMARK   11  A    between atoms: C_21  and  C_22
REMARK   12  A    between atoms: C_22  and  C_24
REMARK   13  A    between atoms: C_22  and  O_36
REMARK   14  A    between atoms: C_24  and  O_25
REMARK   15  A    between atoms: O_25  and  C_26
REMARK   16  A    between atoms: C_27  and  O_34
REMARK   17  A    between atoms: C_31  and  O_32
REMARK   18  A    between atoms: O_32  and  C_33
REMARK   19  A    between atoms: O_34  and  C_35
REMARK                            x       y       z     vdW  Elec       q    Type
REMARK                         _______ _______ _______ _____ _____    ______ ____
ROOT
ATOM      1  C   UNL     1       3.711  -5.636   1.134  0.00  0.00    +0.232 C 
ATOM      2  O   UNL     1       3.741  -6.600   0.398  0.00  0.00    -0.274 OA
ATOM      3  N   UNL     1       4.679  -5.463   2.056  0.00  0.00    -0.311 N 
ATOM      4  H   UNL     1       4.655  -4.692   2.644  0.00  0.00    +0.149 HD
ENDROOT
BRANCH   1   5
ATOM      5  C   UNL     1       2.592  -4.634   1.018  0.00  0.00    +0.162 C 
BRANCH   5   6
ATOM      6  N   UNL     1       1.677  -5.045  -0.049  0.00  0.00    -0.178 NA
ATOM      7  H   UNL     1       1.859  -4.795  -0.968  0.00  0.00    +0.149 HD
BRANCH   6   8
ATOM      8  S   UNL     1       0.330  -5.938   0.314  0.00  0.00    +0.059 S 
ATOM      9  O   UNL     1       0.765  -7.012   1.137  0.00  0.00    -0.153 OA
ATOM     10  O   UNL     1      -0.361  -6.147  -0.910  0.00  0.00    -0.153 OA
BRANCH   8  15
ATOM     11  C   UNL     1      -3.237  -2.480   3.737  0.00  0.00    +0.044 C 
ATOM     12  C   UNL     1      -2.346  -3.343   2.882  0.00  0.00    -0.050 A 
ATOM     13  C   UNL     1      -2.405  -3.246   1.505  0.00  0.00    +0.005 A 
ATOM     14  C   UNL     1      -1.587  -4.038   0.721  0.00  0.00    +0.029 A 
ATOM     15  C   UNL     1      -0.711  -4.927   1.314  0.00  0.00    +0.105 A 
ATOM     16  C   UNL     1      -0.652  -5.024   2.692  0.00  0.00    +0.029 A 
ATOM     17  C   UNL     1      -1.467  -4.229   3.476  0.00  0.00    +0.005 A 
ENDBRANCH   8  15
ENDBRANCH   6   8
ENDBRANCH   5   6
BRANCH   5  18
ATOM     18  C   UNL     1       3.174  -3.257   0.688  0.00  0.00    +0.032 C 
BRANCH  18  19
ATOM     19  C   UNL     1       2.052  -2.216   0.693  0.00  0.00    -0.015 C 
ATOM     20  C   UNL     1       1.501  -2.066   2.112  0.00  0.00    +0.007 C 
ATOM     21  C   UNL     1       2.604  -0.871   0.215  0.00  0.00    +0.007 C 
ENDBRANCH  18  19
ENDBRANCH   5  18
ENDBRANCH   1   5
BRANCH   3  22
ATOM     22  C   UNL     1       5.767  -6.437   2.169  0.00  0.00    +0.139 C 
BRANCH  22  23
ATOM     23  C   UNL     1       6.723  -6.008   3.283  0.00  0.00    +0.169 C 
BRANCH  23  24
ATOM     24  O   UNL     1       6.043  -6.053   4.539  0.00  0.00    -0.387 OA
ATOM     25  H   UNL     1       5.707  -6.929   4.773  0.00  0.00    +0.210 HD
ENDBRANCH  23  24
BRANCH  23  26
ATOM     26  C   UNL     1       7.923  -6.956   3.319  0.00  0.00    +0.262 C 
BRANCH  26  27
ATOM     27  O   UNL     1       8.872  -6.487   4.280  0.00  0.00    -0.483 OA
BRANCH  27  28
ATOM     28  C   UNL     1      10.006  -7.223   4.437  0.00  0.00    +0.204 A 
ATOM     29  C   UNL     1      10.044  -8.256   5.366  0.00  0.00    +0.165 A 
ATOM     30  C   UNL     1      11.202  -9.002   5.523  0.00  0.00    +0.049 A 
ATOM     31  C   UNL     1      12.318  -8.720   4.758  0.00  0.00    +0.007 A 
ATOM     32  C   UNL     1      12.285  -7.693   3.833  0.00  0.00    +0.049 A 
ATOM     33  C   UNL     1      11.128  -6.946   3.665  0.00  0.00    +0.165 A 
BRANCH  33  34
ATOM     34  O   UNL     1      11.095  -5.939   2.751  0.00  0.00    -0.491 OA
ATOM     35  C   UNL     1      12.284  -5.711   1.993  0.00  0.00    +0.277 C 
ENDBRANCH  33  34
BRANCH  29  36
ATOM     36  O   UNL     1       8.947  -8.534   6.120  0.00  0.00    -0.491 OA
ATOM     37  C   UNL     1       9.058  -9.609   7.054  0.00  0.00    +0.277 C 
ENDBRANCH  29  36
ENDBRANCH  27  28
ENDBRANCH  26  27
ENDBRANCH  23  26
ENDBRANCH  22  23
ENDBRANCH   3  22
TORSDOF 14
