REMARK  Name = ZINC02520983
REMARK  4 active torsions:
REMARK  status: ('A' for Active; 'I' for Inactive)
REMARK    1  A    between atoms: C_4  and  C_7
REMARK    2  A    between atoms: C_12  and  C_26
REMARK    3  A    between atoms: C_14  and  C_24
REMARK    4  A    between atoms: C_15  and  N_23
REMARK                            x       y       z     vdW  Elec       q    Type
REMARK                         _______ _______ _______ _____ _____    ______ ____
ROOT
ATOM      1  C   UNL     1       3.324  -0.797  -0.644  0.00  0.00    +0.032 C 
ATOM      2  C   UNL     1       3.543  -1.971  -1.601  0.00  0.00    +0.060 C 
ATOM      3  C   UNL     1       4.932  -2.528  -1.410  0.00  0.00    +0.028 C 
ATOM      4  C   UNL     1       5.539  -2.483  -0.206  0.00  0.00    +0.025 C 
ATOM      5  C   UNL     1       6.922  -3.053  -0.013  0.00  0.00    +0.097 C 
ATOM      6  C   UNL     1       7.625  -3.225  -1.327  0.00  0.00    +0.077 C 
ATOM      7  C   UNL     1       6.936  -3.237  -2.496  0.00  0.00    +0.109 C 
ATOM      8  N   UNL     1       5.567  -3.081  -2.493  0.00  0.00    -0.229 N 
ATOM      9  C   UNL     1       4.824  -3.487  -3.595  0.00  0.00    +0.223 A 
ATOM     10  H   UNL     1       2.847  -3.259  -2.988  0.00  0.00    +0.192 HD
ATOM     11  N   UNL     1       5.309  -3.918  -4.739  0.00  0.00    -0.201 NA
ATOM     12  C   UNL     1       4.309  -4.220  -5.566  0.00  0.00    +0.246 A 
ATOM     13  N   UNL     1       3.172  -3.988  -4.965  0.00  0.00    -0.160 NA
ATOM     14  N   UNL     1       3.478  -3.516  -3.678  0.00  0.00    -0.246 N 
ATOM     15  C   UNL     1       4.903  -1.900   0.905  0.00  0.00    +0.162 C 
ATOM     16  O   UNL     1       5.473  -1.885   1.978  0.00  0.00    -0.292 OA
ATOM     17  C   UNL     1       3.532  -1.291   0.791  0.00  0.00    +0.088 C 
ENDROOT
BRANCH   5  18
ATOM     18  C   UNL     1       6.813  -4.393   0.667  0.00  0.00    -0.035 A 
ATOM     19  C   UNL     1       6.109  -5.419   0.064  0.00  0.00    +0.005 A 
ATOM     20  C   UNL     1       6.010  -6.649   0.688  0.00  0.00    +0.015 A 
ATOM     21  C   UNL     1       6.614  -6.853   1.915  0.00  0.00    +0.018 A 
ATOM     22  C   UNL     1       7.318  -5.826   2.518  0.00  0.00    +0.015 A 
ATOM     23  C   UNL     1       7.421  -4.598   1.891  0.00  0.00    +0.005 A 
ATOM     24 BR   UNL     1       6.478  -8.534   2.769  0.00  0.00    -0.050 Br
ENDBRANCH   5  18
BRANCH   1  28
ATOM     25  C   UNL     1      -0.655   0.692  -1.089  0.00  0.00    +0.000 A 
ATOM     26  C   UNL     1       0.424   1.524  -1.319  0.00  0.00    +0.000 A 
ATOM     27  C   UNL     1       1.712   1.042  -1.175  0.00  0.00    +0.004 A 
ATOM     28  C   UNL     1       1.920  -0.272  -0.800  0.00  0.00    -0.044 A 
ATOM     29  C   UNL     1       0.841  -1.104  -0.569  0.00  0.00    +0.004 A 
ATOM     30  C   UNL     1      -0.447  -0.622  -0.714  0.00  0.00    +0.000 A 
ENDBRANCH   1  28
BRANCH   7  31
ATOM     31  N   UNL     1       7.605  -3.403  -3.685  0.00  0.00    -0.345 N 
ATOM     32  H   UNL     1       8.519  -3.727  -3.686  0.00  0.00    +0.144 HD
ATOM     33  H   UNL     1       7.162  -3.197  -4.524  0.00  0.00    +0.144 HD
ENDBRANCH   7  31
BRANCH   6  34
ATOM     34  C   UNL     1       9.049  -3.380  -1.347  0.00  0.00    +0.099 C 
ATOM     35  N   UNL     1      10.178  -3.502  -1.364  0.00  0.00    -0.191 NA
ENDBRANCH   6  34
TORSDOF 4
