REMARK  Name = ZINC67389684
REMARK  10 active torsions:
REMARK  status: ('A' for Active; 'I' for Inactive)
REMARK    1  A    between atoms: C_1  and  C_2
REMARK    2  A    between atoms: N_7  and  C_9
REMARK    3  A    between atoms: C_9  and  C_10
REMARK    4  A    between atoms: C_10  and  N_11
REMARK    5  A    between atoms: N_14  and  C_15
REMARK    6  A    between atoms: C_15  and  C_17
REMARK    7  A    between atoms: C_15  and  C_18
REMARK    8  A    between atoms: C_22  and  S_24
REMARK    9  A    between atoms: S_24  and  N_27
REMARK   10  A    between atoms: N_27  and  C_28
REMARK                            x       y       z     vdW  Elec       q    Type
REMARK                         _______ _______ _______ _____ _____    ______ ____
ROOT
ATOM      1  N   UNL     1       1.963  -4.471   3.744  0.00  0.00    -0.301 N 
ATOM      2  C   UNL     1       2.002  -5.792   4.009  0.00  0.00    +0.300 C 
ATOM      3  O   UNL     1       1.503  -6.583   3.233  0.00  0.00    -0.253 OA
ATOM      4  N   UNL     1       2.594  -6.236   5.136  0.00  0.00    -0.293 N 
ATOM      5  H   UNL     1       2.361  -3.840   4.364  0.00  0.00    +0.150 HD
ATOM      6  H   UNL     1       2.992  -5.605   5.756  0.00  0.00    +0.151 HD
ENDROOT
BRANCH   4   7
ATOM      7  C   UNL     1       2.636  -7.671   5.425  0.00  0.00    +0.102 C 
ATOM      8  C   UNL     1       3.841  -8.298   4.720  0.00  0.00    +0.033 C 
BRANCH   7   9
ATOM      9  C   UNL     1       2.759  -7.881   6.912  0.00  0.00    -0.026 A 
ATOM     10  C   UNL     1       3.577  -7.056   7.661  0.00  0.00    +0.005 A 
ATOM     11  C   UNL     1       3.690  -7.248   9.025  0.00  0.00    +0.002 A 
ATOM     12  C   UNL     1       2.985  -8.266   9.640  0.00  0.00    +0.028 A 
ATOM     13  C   UNL     1       2.167  -9.091   8.891  0.00  0.00    +0.106 A 
ATOM     14  C   UNL     1       2.050  -8.896   7.528  0.00  0.00    +0.034 A 
BRANCH  13  15
ATOM     15  S   UNL     1       1.268 -10.389   9.675  0.00  0.00    +0.058 S 
ATOM     16  O   UNL     1       1.000 -11.359   8.673  0.00  0.00    -0.153 OA
ATOM     17  O   UNL     1       1.969 -10.702  10.871  0.00  0.00    -0.153 OA
BRANCH  15  18
ATOM     18  N   UNL     1      -0.195  -9.764  10.134  0.00  0.00    -0.193 NA
ATOM     19  C   UNL     1      -1.150  -9.315   9.118  0.00  0.00    +0.127 C 
ATOM     20  H   UNL     1      -0.419  -9.695  11.075  0.00  0.00    +0.148 HD
ENDBRANCH  15  18
ENDBRANCH  13  15
ENDBRANCH   7   9
ENDBRANCH   4   7
BRANCH   1  21
ATOM     21  C   UNL     1       1.320  -3.989   2.519  0.00  0.00    +0.087 C 
BRANCH  21  22
ATOM     22  C   UNL     1       1.413  -2.463   2.461  0.00  0.00    -0.060 C 
BRANCH  22  28
ATOM     23  C   UNL     1      -0.019   1.526   0.010  0.00  0.00    +0.005 C 
ATOM     24  C   UNL     1       0.002  -0.004   0.002  0.00  0.00    -0.031 C 
ATOM     25  C   UNL     1       0.721  -0.499  -1.257  0.00  0.00    -0.001 C 
ATOM     26  C   UNL     1       0.805  -2.027  -1.217  0.00  0.00    -0.018 C 
ATOM     27  C   UNL     1       1.518  -2.460   0.066  0.00  0.00    -0.079 C 
ATOM     28  N   UNL     1       0.768  -1.979   1.233  0.00  0.00    +0.381 N 
ATOM     29  C   UNL     1       0.744  -0.512   1.240  0.00  0.00    -0.076 C 
ATOM     30  H   UNL     1      -0.177  -2.330   1.192  0.00  0.00    -0.082 HD
ENDBRANCH  22  28
ENDBRANCH  21  22
ENDBRANCH   1  21
TORSDOF 7
