REMARK  Name = ZINC18266021
REMARK  5 active torsions:
REMARK  status: ('A' for Active; 'I' for Inactive)
REMARK    1  A    between atoms: C_2  and  C_3
REMARK    2  A    between atoms: C_3  and  N_4
REMARK    3  A    between atoms: N_12  and  N_13
REMARK    4  A    between atoms: C_14  and  C_16
REMARK    5  A    between atoms: C_21  and  O_22
REMARK                            x       y       z     vdW  Elec       q    Type
REMARK                         _______ _______ _______ _____ _____    ______ ____
ROOT
ATOM      1  N   UNL     1       1.367  -1.676   1.111  0.00  0.00    -0.262 N 
ATOM      2  C   UNL     1       1.855  -1.356   2.374  0.00  0.00    +0.046 A 
ATOM      3  C   UNL     1       2.384  -0.178   2.889  0.00  0.00    +0.025 A 
ATOM      4  C   UNL     1       2.805  -0.123   4.203  0.00  0.00    +0.017 A 
ATOM      5  C   UNL     1       2.705  -1.236   5.023  0.00  0.00    +0.019 A 
ATOM      6  C   UNL     1       2.182  -2.414   4.528  0.00  0.00    +0.027 A 
ATOM      7  C   UNL     1       1.756  -2.479   3.206  0.00  0.00    +0.029 A 
ATOM      8  C   UNL     1       1.164  -3.559   2.383  0.00  0.00    +0.153 C 
ATOM      9  N   UNL     1       0.890  -4.787   2.753  0.00  0.00    -0.174 NA
ATOM     10  C   UNL     1       0.943  -2.949   1.056  0.00  0.00    +0.272 C 
ATOM     11  O   UNL     1       0.463  -3.503   0.085  0.00  0.00    -0.268 OA
ATOM     12 BR   UNL     1       3.288  -1.140   6.819  0.00  0.00    -0.050 Br
ENDROOT
BRANCH   9  13
ATOM     13  N   UNL     1       0.327  -5.685   1.838  0.00  0.00    -0.202 N 
ATOM     14  C   UNL     1       0.046  -6.947   2.219  0.00  0.00    +0.267 C 
ATOM     15  O   UNL     1       0.281  -7.306   3.357  0.00  0.00    -0.268 OA
ATOM     16  H   UNL     1       0.139  -5.399   0.931  0.00  0.00    +0.178 HD
BRANCH  14  17
ATOM     17  C   UNL     1      -0.547  -7.893   1.256  0.00  0.00    +0.080 A 
ATOM     18  C   UNL     1      -0.815  -7.487  -0.054  0.00  0.00    +0.017 A 
ATOM     19  C   UNL     1      -1.369  -8.376  -0.949  0.00  0.00    +0.001 A 
ATOM     20  C   UNL     1      -1.663  -9.671  -0.556  0.00  0.00    +0.004 A 
ATOM     21  C   UNL     1      -1.405 -10.086   0.735  0.00  0.00    +0.046 A 
ATOM     22  C   UNL     1      -0.841  -9.207   1.648  0.00  0.00    +0.129 A 
BRANCH  22  23
ATOM     23  O   UNL     1      -0.581  -9.614   2.915  0.00  0.00    -0.506 OA
ATOM     24  H   UNL     1      -1.315  -9.478   3.530  0.00  0.00    +0.292 HD
ENDBRANCH  22  23
ENDBRANCH  14  17
ENDBRANCH   9  13
BRANCH   1  25
ATOM     25  C   UNL     1       1.317  -0.740  -0.015  0.00  0.00    +0.140 C 
BRANCH  25  27
ATOM     26  C   UNL     1      -0.016   1.306   0.009  0.00  0.00    +0.005 C 
ATOM     27  C   UNL     1       0.002  -0.004   0.002  0.00  0.00    -0.015 C 
ENDBRANCH  25  27
ENDBRANCH   1  25
TORSDOF 5
