REMARK  Name = ZINC08567389
REMARK  9 active torsions:
REMARK  status: ('A' for Active; 'I' for Inactive)
REMARK    1  A    between atoms: C_1  and  O_2
REMARK    2  A    between atoms: O_2  and  C_3
REMARK    3  A    between atoms: C_6  and  C_9
REMARK    4  A    between atoms: C_16  and  N_36
REMARK    5  A    between atoms: C_17  and  C_34
REMARK    6  A    between atoms: C_18  and  C_20
REMARK    7  A    between atoms: C_24  and  O_26
REMARK    8  A    between atoms: O_26  and  C_27
REMARK    9  A    between atoms: C_27  and  C_29
REMARK                            x       y       z     vdW  Elec       q    Type
REMARK                         _______ _______ _______ _____ _____    ______ ____
ROOT
ATOM      1  C   UNL     1      -5.005  -2.330  -0.018  0.00  0.00    +0.100 A 
ATOM      2  C   UNL     1      -5.271  -3.588  -0.566  0.00  0.00    +0.054 A 
ATOM      3  C   UNL     1      -6.574  -3.898  -0.299  0.00  0.00    +0.223 A 
ATOM      4  N   UNL     1      -7.107  -2.869   0.392  0.00  0.00    -0.246 N 
ATOM      5  H   UNL     1      -8.019  -2.812   0.716  0.00  0.00    +0.192 HD
ATOM      6  N   UNL     1      -6.108  -1.898   0.563  0.00  0.00    -0.171 NA
ATOM      7  O   UNL     1      -7.146  -5.062  -0.697  0.00  0.00    -0.423 OA
ATOM      8  C   UNL     1      -6.329  -6.043  -1.131  0.00  0.00    +0.200 C 
ATOM      9  C   UNL     1      -5.026  -5.856  -1.439  0.00  0.00    +0.098 C 
ATOM     10  C   UNL     1      -4.355  -4.510  -1.329  0.00  0.00    +0.102 C 
ENDROOT
BRANCH   1  14
ATOM     11  C   UNL     1      -1.288  -0.267  -0.177  0.00  0.00    +0.120 A 
ATOM     12  C   UNL     1      -2.478   0.445  -0.233  0.00  0.00    +0.046 A 
ATOM     13  C   UNL     1      -3.685  -0.221  -0.182  0.00  0.00    +0.013 A 
ATOM     14  C   UNL     1      -3.708  -1.610  -0.074  0.00  0.00    +0.003 A 
ATOM     15  C   UNL     1      -2.511  -2.322  -0.019  0.00  0.00    +0.013 A 
ATOM     16  C   UNL     1      -1.308  -1.651  -0.075  0.00  0.00    +0.046 A 
BRANCH  11  18
ATOM     17  C   UNL     1      -0.153   1.817  -0.333  0.00  0.00    +0.277 C 
ATOM     18  O   UNL     1      -0.101   0.393  -0.228  0.00  0.00    -0.495 OA
ENDBRANCH  11  18
ENDBRANCH   1  14
BRANCH  10  19
ATOM     19  C   UNL     1      -4.106  -3.951  -2.707  0.00  0.00    -0.031 A 
ATOM     20  C   UNL     1      -5.165  -3.742  -3.570  0.00  0.00    +0.005 A 
ATOM     21  C   UNL     1      -4.940  -3.230  -4.834  0.00  0.00    +0.004 A 
ATOM     22  C   UNL     1      -3.654  -2.927  -5.239  0.00  0.00    +0.046 A 
ATOM     23  C   UNL     1      -2.589  -3.136  -4.375  0.00  0.00    +0.132 A 
ATOM     24  C   UNL     1      -2.819  -3.645  -3.104  0.00  0.00    +0.051 A 
BRANCH  23  25
ATOM     25  O   UNL     1      -1.323  -2.838  -4.770  0.00  0.00    -0.422 OA
BRANCH  25  26
ATOM     26  C   UNL     1      -0.468  -3.861  -4.978  0.00  0.00    +0.351 C 
ATOM     27  O   UNL     1      -0.865  -5.009  -4.914  0.00  0.00    -0.244 OA
BRANCH  26  28
ATOM     28  C   UNL     1       0.938  -3.588  -5.282  0.00  0.00    +0.097 A 
ATOM     29  C   UNL     1       1.968  -4.484  -5.532  0.00  0.00    +0.022 A 
ATOM     30  C   UNL     1       3.196  -3.924  -5.789  0.00  0.00    +0.008 A 
ATOM     31  C   UNL     1       3.319  -2.573  -5.782  0.00  0.00    +0.046 A 
ATOM     32  S   UNL     1       1.771  -2.020  -5.435  0.00  0.00    -0.090 S 
ENDBRANCH  26  28
ENDBRANCH  25  26
ENDBRANCH  23  25
ENDBRANCH  10  19
BRANCH   8  33
ATOM     33  N   UNL     1      -6.851  -7.306  -1.268  0.00  0.00    -0.328 N 
ATOM     34  H   UNL     1      -7.782  -7.471  -1.054  0.00  0.00    +0.145 HD
ATOM     35  H   UNL     1      -6.288  -8.032  -1.578  0.00  0.00    +0.145 HD
ENDBRANCH   8  33
BRANCH   9  36
ATOM     36  C   UNL     1      -4.255  -6.977  -1.886  0.00  0.00    +0.101 C 
ATOM     37  N   UNL     1      -3.643  -7.866  -2.240  0.00  0.00    -0.191 NA
ENDBRANCH   9  36
TORSDOF 8
