REMARK  Name = ZINC23381992
REMARK  9 active torsions:
REMARK  status: ('A' for Active; 'I' for Inactive)
REMARK    1  A    between atoms: C_1  and  C_2
REMARK    2  A    between atoms: C_4  and  C_25
REMARK    3  A    between atoms: C_5  and  O_9
REMARK    4  A    between atoms: O_9  and  C_10
REMARK    5  A    between atoms: C_10  and  C_11
REMARK    6  A    between atoms: N_13  and  N_14
REMARK    7  A    between atoms: C_15  and  C_16
REMARK    8  A    between atoms: C_16  and  C_24
REMARK    9  A    between atoms: C_17  and  C_18
REMARK                            x       y       z     vdW  Elec       q    Type
REMARK                         _______ _______ _______ _____ _____    ______ ____
ROOT
ATOM      1  C   UNL     1      -4.406  -3.186   1.048  0.00  0.00    +0.270 C 
ATOM      2  O   UNL     1      -4.233  -4.304   1.486  0.00  0.00    -0.270 OA
ATOM      3  N   UNL     1      -3.354  -2.456   0.628  0.00  0.00    -0.204 N 
ATOM      4  H   UNL     1      -3.511  -1.442   0.232  0.00  0.00    +0.177 HD
ENDROOT
BRANCH   3   5
ATOM      5  N   UNL     1      -2.060  -2.989   0.697  0.00  0.00    -0.188 NA
ATOM      6  C   UNL     1      -1.032  -2.242   0.410  0.00  0.00    +0.133 C 
BRANCH   6   7
ATOM      7  C   UNL     1      -1.148  -0.829   0.457  0.00  0.00    -0.030 C 
ATOM      8  C   UNL     1      -0.127  -0.055   0.035  0.00  0.00    +0.012 C 
ATOM      9  C   UNL     1      -2.411  -0.193   0.978  0.00  0.00    +0.045 C 
BRANCH   8  10
ATOM     10  C   UNL     1      -0.255   1.411   0.065  0.00  0.00    -0.025 A 
ATOM     11  C   UNL     1      -1.471   2.018  -0.263  0.00  0.00    +0.008 A 
ATOM     12  C   UNL     1      -1.585   3.391  -0.227  0.00  0.00    +0.001 A 
ATOM     13  C   UNL     1      -0.495   4.170   0.121  0.00  0.00    +0.000 A 
ATOM     14  C   UNL     1       0.715   3.578   0.440  0.00  0.00    +0.001 A 
ATOM     15  C   UNL     1       0.842   2.205   0.415  0.00  0.00    +0.008 A 
ENDBRANCH   8  10
ENDBRANCH   6   7
ENDBRANCH   3   5
BRANCH   1  16
ATOM     16  C   UNL     1      -5.798  -2.613   0.975  0.00  0.00    +0.326 C 
BRANCH  16  17
ATOM     17  O   UNL     1      -6.734  -3.571   1.475  0.00  0.00    -0.481 OA
BRANCH  17  22
ATOM     18  C   UNL     1     -12.165  -2.074   1.489  0.00  0.00    +0.044 C 
ATOM     19  C   UNL     1     -10.712  -2.474   1.486  0.00  0.00    -0.049 A 
ATOM     20  C   UNL     1     -10.173  -3.108   0.381  0.00  0.00    +0.010 A 
ATOM     21  C   UNL     1      -8.842  -3.476   0.375  0.00  0.00    -0.007 A 
ATOM     22  C   UNL     1      -8.044  -3.209   1.478  0.00  0.00    +0.138 A 
ATOM     23  C   UNL     1      -8.588  -2.577   2.588  0.00  0.00    +0.060 A 
ATOM     24  C   UNL     1      -9.919  -2.205   2.586  0.00  0.00    +0.022 A 
ATOM     25 BR   UNL     1      -7.506  -2.217   4.097  0.00  0.00    -0.047 Br
ATOM     26  C   UNL     1      -8.256  -4.167  -0.829  0.00  0.00    +0.047 C 
ENDBRANCH  17  22
ENDBRANCH  16  17
ENDBRANCH   1  16
TORSDOF 6
