REMARK  Name = ZINC10693307
REMARK  8 active torsions:
REMARK  status: ('A' for Active; 'I' for Inactive)
REMARK    1  A    between atoms: C_1  and  C_2
REMARK    2  A    between atoms: N_11  and  C_15
REMARK    3  A    between atoms: C_15  and  C_16
REMARK    4  A    between atoms: C_16  and  O_18
REMARK    5  A    between atoms: O_18  and  C_19
REMARK    6  A    between atoms: C_19  and  C_21
REMARK    7  A    between atoms: C_19  and  C_27
REMARK    8  A    between atoms: C_27  and  C_29
REMARK                            x       y       z     vdW  Elec       q    Type
REMARK                         _______ _______ _______ _____ _____    ______ ____
ROOT
ATOM      1  C   UNL     1       3.940   7.096   0.619  0.00  0.00    +0.326 C 
ATOM      2  O   UNL     1       2.985   7.787   0.887  0.00  0.00    -0.249 OA
ENDROOT
BRANCH   1   3
ATOM      3  C   UNL     1       5.335   7.611   0.864  0.00  0.00    +0.238 C 
BRANCH   3  13
ATOM      4  C   UNL     1       2.683  11.111   1.631  0.00  0.00    +0.010 C 
ATOM      5  C   UNL     1       3.897  12.030   1.478  0.00  0.00    +0.018 C 
ATOM      6  C   UNL     1       3.823  13.149   2.520  0.00  0.00    +0.006 C 
ATOM      7  C   UNL     1       5.048  14.056   2.379  0.00  0.00    +0.000 C 
ATOM      8  C   UNL     1       6.320  13.239   2.611  0.00  0.00    +0.003 C 
ATOM      9  C   UNL     1       6.403  12.120   1.569  0.00  0.00    +0.035 C 
ATOM     10  C   UNL     1       5.174  11.224   1.685  0.00  0.00    +0.115 C 
ATOM     11  C   UNL     1       5.256  10.091   0.689  0.00  0.00    +0.247 C 
ATOM     12  O   UNL     1       5.303  10.178  -0.520  0.00  0.00    -0.273 OA
ATOM     13  N   UNL     1       5.265   8.962   1.427  0.00  0.00    -0.213 N 
ATOM     14  C   UNL     1       5.208   9.229   2.737  0.00  0.00    +0.310 C 
ATOM     15  O   UNL     1       5.207   8.375   3.602  0.00  0.00    -0.252 OA
ATOM     16  N   UNL     1       5.151  10.550   2.990  0.00  0.00    -0.285 N 
ATOM     17  H   UNL     1       5.104  10.974   3.862  0.00  0.00    +0.151 HD
ENDBRANCH   3  13
ENDBRANCH   1   3
BRANCH   1  18
ATOM     18  O   UNL     1       3.758   5.870   0.103  0.00  0.00    -0.447 OA
BRANCH  18  19
ATOM     19  C   UNL     1       2.387   5.440  -0.106  0.00  0.00    +0.277 C 
BRANCH  19  20
ATOM     20  C   UNL     1       1.941   5.838  -1.489  0.00  0.00    +0.000 A 
ATOM     21  C   UNL     1       2.812   5.721  -2.556  0.00  0.00    +0.008 A 
ATOM     22  C   UNL     1       2.401   6.083  -3.826  0.00  0.00    +0.000 A 
ATOM     23  C   UNL     1       1.123   6.570  -4.027  0.00  0.00    +0.000 A 
ATOM     24  C   UNL     1       0.254   6.692  -2.958  0.00  0.00    +0.000 A 
ATOM     25  C   UNL     1       0.663   6.326  -1.689  0.00  0.00    +0.008 A 
ENDBRANCH  19  20
BRANCH  19  26
ATOM     26  C   UNL     1       2.303   3.942   0.037  0.00  0.00    +0.208 C 
ATOM     27  O   UNL     1       3.302   3.265  -0.081  0.00  0.00    -0.288 OA
BRANCH  26  28
ATOM     28  C   UNL     1       1.009   3.301   0.320  0.00  0.00    +0.022 A 
ATOM     29  C   UNL     1       0.903   1.907   0.330  0.00  0.00    +0.011 A 
ATOM     30  C   UNL     1      -0.313   1.313   0.596  0.00  0.00    +0.001 A 
ATOM     31  C   UNL     1      -1.428   2.094   0.847  0.00  0.00    +0.000 A 
ATOM     32  C   UNL     1      -1.330   3.475   0.844  0.00  0.00    +0.001 A 
ATOM     33  C   UNL     1      -0.121   4.083   0.579  0.00  0.00    +0.011 A 
ENDBRANCH  26  28
ENDBRANCH  19  26
ENDBRANCH  18  19
ENDBRANCH   1  18
TORSDOF 7
