REMARK  Name = ZINC20776219
REMARK  14 active torsions:
REMARK  status: ('A' for Active; 'I' for Inactive)
REMARK    1  A    between atoms: C_1  and  C_2
REMARK    2  A    between atoms: C_2  and  O_3
REMARK    3  A    between atoms: O_3  and  C_4
REMARK    4  A    between atoms: C_4  and  C_6
REMARK    5  A    between atoms: C_13  and  C_26
REMARK    6  A    between atoms: C_16  and  O_24
REMARK    7  A    between atoms: C_19  and  O_22
REMARK    8  A    between atoms: O_22  and  C_23
REMARK    9  A    between atoms: O_24  and  C_25
REMARK   10  A    between atoms: C_26  and  N_27
REMARK   11  A    between atoms: N_27  and  CA_28
REMARK   12  A    between atoms: CA_28  and  CB_30
REMARK   13  A    between atoms: CA_28  and  C_31
REMARK   14  A    between atoms: C_31  and  O_32
REMARK                            x       y       z     vdW  Elec       q    Type
REMARK                         _______ _______ _______ _____ _____    ______ ____
ROOT
ATOM      1  C   UNL     1      -0.245   3.806  -6.709  0.00  0.00    +0.101 C 
ATOM      2  C   UNL     1      -0.168   5.243  -6.187  0.00  0.00    +0.033 C 
ATOM      3  C   UNL     1       1.158   5.443  -5.449  0.00  0.00    +0.107 C 
ATOM      4  N   UNL     1       1.247   4.493  -4.333  0.00  0.00    -0.315 N 
ATOM      5  C   UNL     1       1.223   3.105  -4.814  0.00  0.00    +0.107 C 
ATOM      6  C   UNL     1      -0.101   2.836  -5.533  0.00  0.00    +0.033 C 
ATOM      7  C   UNL     1       2.376   4.733  -3.564  0.00  0.00    +0.123 A 
ATOM      8  C   UNL     1       2.231   4.970  -2.190  0.00  0.00    -0.024 A 
ATOM      9  C   UNL     1       3.333   5.202  -1.421  0.00  0.00    +0.018 A 
ATOM     10  C   UNL     1       4.595   5.201  -2.046  0.00  0.00    +0.046 A 
ATOM     11  C   UNL     1       5.774   5.433  -1.310  0.00  0.00    +0.129 A 
ATOM     12  C   UNL     1       6.989   5.423  -1.957  0.00  0.00    +0.050 A 
ATOM     13  C   UNL     1       7.064   5.187  -3.326  0.00  0.00    +0.051 A 
ATOM     14  C   UNL     1       5.938   4.958  -4.064  0.00  0.00    +0.146 A 
ATOM     15  C   UNL     1       4.676   4.961  -3.438  0.00  0.00    +0.118 A 
ATOM     16  N   UNL     1       3.559   4.739  -4.143  0.00  0.00    -0.228 NA
ENDROOT
BRANCH   1  17
ATOM     17  C   UNL     1      -1.573   3.586  -7.386  0.00  0.00    +0.310 C 
ATOM     18  O   UNL     1      -2.377   4.486  -7.445  0.00  0.00    -0.251 OA
BRANCH  17  19
ATOM     19  O   UNL     1      -1.863   2.390  -7.922  0.00  0.00    -0.465 OA
BRANCH  19  21
ATOM     20  C   UNL     1      -3.309   0.830  -9.107  0.00  0.00    +0.048 C 
ATOM     21  C   UNL     1      -3.161   2.251  -8.558  0.00  0.00    +0.229 C 
ENDBRANCH  19  21
ENDBRANCH  17  19
ENDBRANCH   1  17
BRANCH  14  22
ATOM     22  O   UNL     1       6.035   4.728  -5.401  0.00  0.00    -0.493 OA
ATOM     23  C   UNL     1       7.347   4.740  -5.968  0.00  0.00    +0.277 C 
ENDBRANCH  14  22
BRANCH  11  24
ATOM     24  O   UNL     1       5.711   5.664   0.027  0.00  0.00    -0.494 OA
ATOM     25  C   UNL     1       6.949   5.891   0.705  0.00  0.00    +0.277 C 
ENDBRANCH  11  24
BRANCH   8  26
ATOM     26  C   ACE A   0       0.861   4.962  -1.563  0.00  0.00    -0.043 C 
BRANCH  26  27
ATOM     27  N   UNL     1       0.382   3.578  -1.450  0.00  0.00    +0.385 N 
ATOM     28  H1  UNL     1      -0.718   3.570  -1.447  0.00  0.00    -0.085 HD
ATOM     29  H2  UNL     1       0.751   2.992  -2.304  0.00  0.00    -0.085 HD
BRANCH  27  30
ATOM     30  CA  UNL     1       0.861   2.955  -0.208  0.00  0.00    -0.049 C 
ATOM     31  CB  UNL     1      -0.089   3.308   0.938  0.00  0.00    -0.011 C 
BRANCH  30  32
ATOM     32  C   UNL     1       0.905   1.436  -0.385  0.00  0.00    +0.140 C 
BRANCH  32  33
ATOM     33  O   UNL     1      -0.421   0.939  -0.570  0.00  0.00    -0.397 OA
ATOM     34  H   UNL     1      -0.590  -0.139  -0.714  0.00  0.00    +0.209 HD
ENDBRANCH  32  33
ENDBRANCH  30  32
ENDBRANCH  27  30
ENDBRANCH  26  27
ENDBRANCH   8  26
TORSDOF 10
