REMARK  Name = ZINC04997683
REMARK  7 active torsions:
REMARK  status: ('A' for Active; 'I' for Inactive)
REMARK    1  A    between atoms: C_1  and  C_2
REMARK    2  A    between atoms: C_2  and  C_3
REMARK    3  A    between atoms: C_10  and  N_26
REMARK    4  A    between atoms: C_11  and  C_24
REMARK    5  A    between atoms: C_12  and  C_14
REMARK    6  A    between atoms: C_19  and  O_20
REMARK    7  A    between atoms: O_20  and  C_21
REMARK                            x       y       z     vdW  Elec       q    Type
REMARK                         _______ _______ _______ _____ _____    ______ ____
ROOT
ATOM      1  C   UNL     1      -0.742   1.585  -1.213  0.00  0.00    +0.070 A 
ATOM      2  C   UNL     1      -1.768   0.926  -1.875  0.00  0.00    +0.050 A 
ATOM      3  C   UNL     1      -2.163   1.706  -2.926  0.00  0.00    +0.222 A 
ATOM      4  N   UNL     1      -1.399   2.810  -2.922  0.00  0.00    -0.246 N 
ATOM      5  H   UNL     1      -1.452   3.565  -3.576  0.00  0.00    +0.192 HD
ATOM      6  N   UNL     1      -0.512   2.715  -1.838  0.00  0.00    -0.176 NA
ATOM      7  O   UNL     1      -3.159   1.344  -3.773  0.00  0.00    -0.423 OA
ATOM      8  C   UNL     1      -3.953   0.319  -3.402  0.00  0.00    +0.200 C 
ATOM      9  C   UNL     1      -3.666  -0.525  -2.387  0.00  0.00    +0.098 C 
ATOM     10  C   UNL     1      -2.409  -0.401  -1.562  0.00  0.00    +0.105 C 
ENDROOT
BRANCH  10  11
ATOM     11  C   UNL     1      -1.458  -1.516  -1.914  0.00  0.00    +0.010 A 
ATOM     12  C   UNL     1      -0.997  -1.647  -3.210  0.00  0.00    +0.028 A 
ATOM     13  C   UNL     1      -0.120  -2.667  -3.534  0.00  0.00    +0.043 A 
ATOM     14  C   UNL     1       0.289  -3.565  -2.563  0.00  0.00    +0.043 A 
ATOM     15  C   UNL     1      -0.175  -3.440  -1.267  0.00  0.00    +0.084 A 
ATOM     16  C   UNL     1      -1.050  -2.414  -0.940  0.00  0.00    +0.142 A 
ATOM     17 CL   UNL     1       0.339  -4.566  -0.049  0.00  0.00    -0.080 Cl
ATOM     18 CL   UNL     1       0.463  -2.825  -5.161  0.00  0.00    -0.083 Cl
BRANCH  16  19
ATOM     19  O   UNL     1      -1.508  -2.290   0.335  0.00  0.00    -0.493 OA
ATOM     20  C   UNL     1      -2.713  -2.984   0.661  0.00  0.00    +0.277 C 
ENDBRANCH  16  19
ENDBRANCH  10  11
BRANCH   8  21
ATOM     21  N   UNL     1      -5.120   0.121  -4.097  0.00  0.00    -0.328 N 
ATOM     22  H   UNL     1      -5.353   0.711  -4.832  0.00  0.00    +0.145 HD
ATOM     23  H   UNL     1      -5.712  -0.608  -3.854  0.00  0.00    +0.145 HD
ENDBRANCH   8  21
BRANCH   1  25
ATOM     24  C   UNL     1      -0.729   1.579   1.267  0.00  0.00    +0.010 C 
ATOM     25  C   UNL     1      -0.013   1.086   0.008  0.00  0.00    +0.054 C 
ENDBRANCH   1  25
BRANCH   9  26
ATOM     26  C   UNL     1      -4.590  -1.576  -2.082  0.00  0.00    +0.101 C 
ATOM     27  N   UNL     1      -5.323  -2.410  -1.841  0.00  0.00    -0.191 NA
ENDBRANCH   9  26
TORSDOF 5
