REMARK  Name = ZINC63399226
REMARK  10 active torsions:
REMARK  status: ('A' for Active; 'I' for Inactive)
REMARK    1  A    between atoms: C_1  and  C_2
REMARK    2  A    between atoms: C_4  and  C_12
REMARK    3  A    between atoms: C_12  and  C_14
REMARK    4  A    between atoms: C_14  and  C_16
REMARK    5  A    between atoms: C_14  and  N_17
REMARK    6  A    between atoms: N_17  and  C_18
REMARK    7  A    between atoms: C_21  and  O_26
REMARK    8  A    between atoms: C_23  and  O_24
REMARK    9  A    between atoms: O_24  and  C_25
REMARK   10  A    between atoms: O_26  and  C_27
REMARK                            x       y       z     vdW  Elec       q    Type
REMARK                         _______ _______ _______ _____ _____    ______ ____
ROOT
ATOM      1  C   UNL     1      -3.787  -0.953  -0.721  0.00  0.00    +0.138 C 
ATOM      2  C   UNL     1      -3.714  -2.450  -1.030  0.00  0.00    +0.036 C 
ENDROOT
BRANCH   1   3
ATOM      3  C   UNL     1      -2.428  -0.333  -0.919  0.00  0.00    +0.181 C 
ATOM      4  O   UNL     1      -2.209   0.349  -1.899  0.00  0.00    -0.290 OA
BRANCH   3   7
ATOM      5  C   UNL     1      -0.019   1.526   0.010  0.00  0.00    +0.035 C 
ATOM      6  C   UNL     1       0.002  -0.004   0.002  0.00  0.00    +0.111 C 
ATOM      7  C   UNL     1      -1.411  -0.544   0.036  0.00  0.00    +0.028 C 
ATOM      8  C   UNL     1      -1.496  -1.289   1.198  0.00  0.00    +0.006 A 
ATOM      9  C   UNL     1      -2.543  -2.035   1.788  0.00  0.00    +0.010 A 
ATOM     10  C   UNL     1      -2.344  -2.680   2.960  0.00  0.00    +0.001 A 
ATOM     11  C   UNL     1      -1.116  -2.646   3.640  0.00  0.00    +0.002 A 
ATOM     12  C   UNL     1      -0.053  -1.963   3.162  0.00  0.00    +0.026 A 
ATOM     13  C   UNL     1      -0.185  -1.232   1.891  0.00  0.00    +0.043 A 
ATOM     14  N   UNL     1       0.660  -0.506   1.212  0.00  0.00    -0.377 N 
ATOM     15  H   UNL     1       1.578  -0.327   1.468  0.00  0.00    +0.160 HD
ENDBRANCH   3   7
ENDBRANCH   1   3
BRANCH   1  16
ATOM     16  N   UNL     1      -4.751  -0.316  -1.622  0.00  0.00    -0.331 N 
ATOM     17  H   UNL     1      -4.445   0.104  -2.441  0.00  0.00    +0.147 HD
BRANCH  16  18
ATOM     18  C   UNL     1      -6.116  -0.312  -1.300  0.00  0.00    +0.072 A 
ATOM     19  C   UNL     1      -6.553  -0.907  -0.126  0.00  0.00    +0.050 A 
ATOM     20  C   UNL     1      -7.899  -0.903   0.192  0.00  0.00    +0.084 A 
ATOM     21  C   UNL     1      -8.814  -0.303  -0.662  0.00  0.00    +0.142 A 
ATOM     22  C   UNL     1      -8.380   0.292  -1.837  0.00  0.00    +0.094 A 
ATOM     23  C   UNL     1      -7.032   0.294  -2.155  0.00  0.00    +0.144 A 
ATOM     24 CL   UNL     1      -8.445  -1.648   1.662  0.00  0.00    -0.080 Cl
BRANCH  23  25
ATOM     25  O   UNL     1      -6.605   0.883  -3.305  0.00  0.00    -0.493 OA
ATOM     26  C   UNL     1      -7.600   1.485  -4.134  0.00  0.00    +0.277 C 
ENDBRANCH  23  25
BRANCH  21  27
ATOM     27  O   UNL     1     -10.137  -0.301  -0.347  0.00  0.00    -0.494 OA
ATOM     28  C   UNL     1     -11.023   0.334  -1.272  0.00  0.00    +0.277 C 
ENDBRANCH  21  27
ENDBRANCH  16  18
ENDBRANCH   1  16
TORSDOF 6
