REMARK  Name = ZINC27627999
REMARK  10 active torsions:
REMARK  status: ('A' for Active; 'I' for Inactive)
REMARK    1  A    between atoms: C_1  and  C_2
REMARK    2  A    between atoms: C_2  and  C_3
REMARK    3  A    between atoms: C_2  and  C_4
REMARK    4  A    between atoms: C_4  and  C_6
REMARK    5  A    between atoms: C_4  and  C_22
REMARK    6  A    between atoms: C_6  and  N_7
REMARK    7  A    between atoms: C_8  and  C_10
REMARK    8  A    between atoms: C_10  and  N_18
REMARK    9  A    between atoms: C_11  and  C_12
REMARK   10  A    between atoms: C_19  and  C_21
REMARK                            x       y       z     vdW  Elec       q    Type
REMARK                         _______ _______ _______ _____ _____    ______ ____
ROOT
ATOM      1  N   UNL     1       2.639  -0.158  -0.312  0.00  0.00    -0.310 N 
ATOM      2  C   UNL     1       1.393  -0.649  -0.160  0.00  0.00    +0.258 C 
ATOM      3  O   UNL     1       1.211  -1.852  -0.149  0.00  0.00    -0.269 OA
ATOM      4  H   UNL     1       2.803   0.930  -0.322  0.00  0.00    +0.149 HD
ENDROOT
BRANCH   2   5
ATOM      5  C   UNL     1       0.254   0.268  -0.007  0.00  0.00    +0.096 C 
ATOM      6  C   UNL     1      -0.996  -0.226   0.146  0.00  0.00    +0.036 C 
BRANCH   6   7
ATOM      7  C   UNL     1      -2.150   0.686   0.160  0.00  0.00    -0.023 A 
ATOM      8  C   UNL     1      -3.354   0.288   0.751  0.00  0.00    +0.008 A 
ATOM      9  C   UNL     1      -4.429   1.150   0.765  0.00  0.00    +0.001 A 
ATOM     10  C   UNL     1      -4.324   2.403   0.187  0.00  0.00    +0.000 A 
ATOM     11  C   UNL     1      -3.138   2.803  -0.405  0.00  0.00    +0.001 A 
ATOM     12  C   UNL     1      -2.052   1.954  -0.423  0.00  0.00    +0.008 A 
ENDBRANCH   6   7
BRANCH   5  13
ATOM     13  N   UNL     1       0.463   1.651  -0.019  0.00  0.00    -0.282 N 
ATOM     14  C   UNL     1       1.053   2.233  -1.082  0.00  0.00    +0.214 C 
ATOM     15  O   UNL     1       1.323   1.574  -2.063  0.00  0.00    -0.276 OA
ATOM     16  C   UNL     1       1.379   3.704  -1.050  0.00  0.00    +0.109 C 
ATOM     17  H   UNL     1       0.146   2.263   0.838  0.00  0.00    +0.155 HD
ENDBRANCH   5  13
ENDBRANCH   2   5
BRANCH   1  18
ATOM     18  C   UNL     1       3.773  -1.071  -0.465  0.00  0.00    +0.113 C 
BRANCH  18  19
ATOM     19  C   UNL     1       5.075  -0.268  -0.494  0.00  0.00    +0.039 C 
BRANCH  19  20
ATOM     20  C   UNL     1       5.073   0.647  -1.692  0.00  0.00    -0.043 A 
ATOM     21  C   UNL     1       4.984   0.118  -2.966  0.00  0.00    +0.004 A 
ATOM     22  C   UNL     1       4.978   0.958  -4.064  0.00  0.00    +0.000 A 
ATOM     23  C   UNL     1       5.071   2.326  -3.889  0.00  0.00    +0.000 A 
ATOM     24  C   UNL     1       5.165   2.855  -2.615  0.00  0.00    +0.000 A 
ATOM     25  C   UNL     1       5.167   2.015  -1.516  0.00  0.00    +0.004 A 
ENDBRANCH  19  20
BRANCH  19  27
ATOM     26  C   UNL     1       7.568  -0.429  -0.510  0.00  0.00    +0.008 C 
ATOM     27  C   UNL     1       6.264  -1.226  -0.586  0.00  0.00    -0.008 C 
ATOM     28  C   UNL     1       6.207  -2.223   0.573  0.00  0.00    +0.008 C 
ENDBRANCH  19  27
ENDBRANCH  18  19
ENDBRANCH   1  18
TORSDOF 7
