REMARK  Name = ZINC24830828
REMARK  7 active torsions:
REMARK  status: ('A' for Active; 'I' for Inactive)
REMARK    1  A    between atoms: C_1  and  O_2
REMARK    2  A    between atoms: O_2  and  C_3
REMARK    3  A    between atoms: C_6  and  C_9
REMARK    4  A    between atoms: C_9  and  C_11
REMARK    5  A    between atoms: C_9  and  N_26
REMARK    6  A    between atoms: C_11  and  N_12
REMARK    7  A    between atoms: C_13  and  C_15
REMARK                            x       y       z     vdW  Elec       q    Type
REMARK                         _______ _______ _______ _____ _____    ______ ____
ROOT
ATOM      1  C   UNL     1      -3.183  -4.561  -0.109  0.00  0.00    +0.094 C 
ENDROOT
BRANCH   1   2
ATOM      2  N   UNL     1      -2.611  -3.232   0.127  0.00  0.00    -0.311 N 
ATOM      3  C   UNL     1      -1.318  -2.994  -0.166  0.00  0.00    +0.260 C 
ATOM      4  O   UNL     1      -0.625  -3.881  -0.627  0.00  0.00    -0.269 OA
ATOM      5  H   UNL     1      -3.238  -2.430   0.543  0.00  0.00    +0.149 HD
BRANCH   3   6
ATOM      6  C   UNL     1      -0.744  -1.661   0.070  0.00  0.00    +0.103 A 
ATOM      7  C   UNL     1       0.541  -1.300  -0.184  0.00  0.00    +0.041 A 
ATOM      8  C   UNL     1       0.688   0.060   0.182  0.00  0.00    +0.001 A 
ATOM      9  C   UNL     1       1.765   0.956   0.145  0.00  0.00    +0.025 A 
ATOM     10  C   UNL     1       1.595   2.240   0.577  0.00  0.00    +0.019 A 
ATOM     11  C   UNL     1       0.361   2.669   1.053  0.00  0.00    +0.017 A 
ATOM     12  C   UNL     1      -0.712   1.807   1.098  0.00  0.00    +0.027 A 
ATOM     13  C   UNL     1      -0.563   0.493   0.663  0.00  0.00    +0.047 A 
ATOM     14  N   UNL     1      -1.425  -0.576   0.587  0.00  0.00    -0.351 N 
ATOM     15  H   UNL     1      -2.487  -0.671   0.858  0.00  0.00    +0.166 HD
ATOM     16 BR   UNL     1       3.051   3.445   0.526  0.00  0.00    -0.050 Br
ENDBRANCH   3   6
ENDBRANCH   1   2
BRANCH   1  17
ATOM     17  C   UNL     1      -4.691  -4.519   0.146  0.00  0.00    -0.020 C 
BRANCH  17  21
ATOM     18  C   UNL     1      -6.322  -8.442  -0.318  0.00  0.00    +0.120 A 
ATOM     19  C   UNL     1      -6.177  -7.895   0.949  0.00  0.00    +0.046 A 
ATOM     20  C   UNL     1      -5.649  -6.627   1.096  0.00  0.00    +0.005 A 
ATOM     21  C   UNL     1      -5.266  -5.902  -0.017  0.00  0.00    -0.059 A 
ATOM     22  C   UNL     1      -5.415  -6.443  -1.281  0.00  0.00    +0.005 A 
ATOM     23  C   UNL     1      -5.937  -7.713  -1.434  0.00  0.00    +0.046 A 
BRANCH  18  25
ATOM     24  C   UNL     1      -6.963 -10.188  -1.799  0.00  0.00    +0.277 C 
ATOM     25  O   UNL     1      -6.842  -9.689  -0.466  0.00  0.00    -0.495 OA
ENDBRANCH  18  25
ENDBRANCH  17  21
BRANCH  17  26
ATOM     26  N   UNL     1      -5.326  -3.608  -0.816  0.00  0.00    +0.385 N 
ATOM     27  C   UNL     1      -6.803  -3.755  -0.793  0.00  0.00    -0.078 C 
ATOM     28  C   UNL     1      -7.302  -2.428  -1.418  0.00  0.00    -0.020 C 
ATOM     29  C   UNL     1      -6.305  -1.387  -0.859  0.00  0.00    -0.020 C 
ATOM     30  C   UNL     1      -5.056  -2.197  -0.466  0.00  0.00    -0.078 C 
ATOM     31  H   UNL     1      -4.904  -3.868  -1.798  0.00  0.00    -0.081 HD
ENDBRANCH  17  26
ENDBRANCH   1  17
TORSDOF 6
