REMARK  Name = ZINC57797668
REMARK  9 active torsions:
REMARK  status: ('A' for Active; 'I' for Inactive)
REMARK    1  A    between atoms: C_1  and  C_2
REMARK    2  A    between atoms: C_7  and  C_9
REMARK    3  A    between atoms: C_7  and  N_25
REMARK    4  A    between atoms: C_9  and  N_10
REMARK    5  A    between atoms: N_13  and  C_14
REMARK    6  A    between atoms: C_14  and  C_15
REMARK    7  A    between atoms: N_23  and  C_24
REMARK    8  A    between atoms: N_25  and  C_26
REMARK    9  A    between atoms: N_25  and  C_27
REMARK                            x       y       z     vdW  Elec       q    Type
REMARK                         _______ _______ _______ _____ _____    ______ ____
ROOT
ATOM      1  N   UNL     1       1.172  -3.642   1.825  0.00  0.00    -0.301 N 
ATOM      2  C   UNL     1       1.456  -4.336   2.945  0.00  0.00    +0.300 C 
ATOM      3  O   UNL     1       1.777  -3.747   3.959  0.00  0.00    -0.253 OA
ATOM      4  N   UNL     1       1.382  -5.681   2.942  0.00  0.00    -0.292 N 
ATOM      5  H   UNL     1       0.916  -4.112   1.016  0.00  0.00    +0.150 HD
ATOM      6  H   UNL     1       1.126  -6.151   2.133  0.00  0.00    +0.151 HD
ENDROOT
BRANCH   1   7
ATOM      7  C   UNL     1       1.252  -2.180   1.828  0.00  0.00    +0.094 C 
BRANCH   7  13
ATOM      8  C   UNL     1       0.741   1.929  -0.969  0.00  0.00    +0.007 C 
ATOM      9  C   UNL     1       0.793   0.400  -0.993  0.00  0.00    -0.015 C 
ATOM     10  C   UNL     1      -0.520  -0.147  -1.556  0.00  0.00    +0.003 C 
ATOM     11  C   UNL     1      -0.467  -1.675  -1.580  0.00  0.00    -0.001 C 
ATOM     12  C   UNL     1      -0.264  -2.201  -0.157  0.00  0.00    -0.010 C 
ATOM     13  C   UNL     1       1.049  -1.654   0.406  0.00  0.00    -0.050 C 
ATOM     14  C   UNL     1       0.996  -0.125   0.430  0.00  0.00    -0.007 C 
BRANCH  13  15
ATOM     15  N   UNL     1       2.166  -2.092  -0.442  0.00  0.00    +0.381 N 
ATOM     16  C   UNL     1       3.437  -1.693   0.177  0.00  0.00    -0.096 C 
ATOM     17  C   UNL     1       2.128  -3.554  -0.584  0.00  0.00    -0.096 C 
ATOM     18  H   UNL     1       2.085  -1.664  -1.352  0.00  0.00    -0.082 HD
ENDBRANCH  13  15
ENDBRANCH   7  13
ENDBRANCH   1   7
BRANCH   4  19
ATOM     19  C   UNL     1       1.690  -6.435   4.160  0.00  0.00    +0.180 C 
BRANCH  19  20
ATOM     20  C   UNL     1       1.534  -7.910   3.891  0.00  0.00    +0.128 A 
ATOM     21  N   UNL     1       0.432  -8.583   4.046  0.00  0.00    -0.231 NA
ATOM     22  C   UNL     1       0.641  -9.883   3.716  0.00  0.00    +0.089 A 
ATOM     23  C   UNL     1      -0.176 -11.016   3.697  0.00  0.00    +0.030 A 
ATOM     24  C   UNL     1       0.337 -12.220   3.306  0.00  0.00    +0.002 A 
ATOM     25  C   UNL     1       1.667 -12.332   2.926  0.00  0.00    +0.002 A 
ATOM     26  C   UNL     1       2.492 -11.228   2.936  0.00  0.00    +0.028 A 
ATOM     27  C   UNL     1       1.987  -9.996   3.330  0.00  0.00    +0.069 A 
ATOM     28  N   UNL     1       2.524  -8.729   3.446  0.00  0.00    -0.329 N 
ATOM     29  C   UNL     1       3.905  -8.341   3.149  0.00  0.00    +0.150 C 
ENDBRANCH  19  20
ENDBRANCH   4  19
TORSDOF 5
