REMARK  Name = ZINC13635909
REMARK  8 active torsions:
REMARK  status: ('A' for Active; 'I' for Inactive)
REMARK    1  A    between atoms: C_1  and  O_2
REMARK    2  A    between atoms: O_2  and  C_3
REMARK    3  A    between atoms: C_6  and  C_9
REMARK    4  A    between atoms: C_20  and  O_25
REMARK    5  A    between atoms: O_25  and  C_26
REMARK    6  A    between atoms: C_26  and  C_27
REMARK    7  A    between atoms: C_27  and  O_28
REMARK    8  A    between atoms: O_28  and  C_29
REMARK                            x       y       z     vdW  Elec       q    Type
REMARK                         _______ _______ _______ _____ _____    ______ ____
ROOT
ATOM      1  C   UNL     1       1.264   2.111   0.001  0.00  0.00    +0.105 C 
ATOM      2  C   UNL     1       2.296   1.880   1.110  0.00  0.00    +0.029 C 
ATOM      3  C   UNL     1       3.573   2.686   0.729  0.00  0.00    +0.033 C 
ATOM      4  C   UNL     1       4.286   1.771  -0.248  0.00  0.00    -0.030 C 
ATOM      5  C   UNL     1       3.892   0.531  -0.088  0.00  0.00    -0.023 C 
ATOM      6  C   UNL     1       2.860   0.449   1.012  0.00  0.00    +0.049 C 
ATOM      7  C   UNL     1       1.812  -0.572   0.702  0.00  0.00    -0.016 A 
ATOM      8  C   UNL     1       2.132  -1.917   0.837  0.00  0.00    +0.051 A 
ATOM      9  C   UNL     1       1.191  -2.894   0.566  0.00  0.00    +0.121 A 
ATOM     10  C   UNL     1      -0.086  -2.538   0.155  0.00  0.00    +0.047 A 
ATOM     11  C   UNL     1      -0.411  -1.204   0.018  0.00  0.00    +0.027 A 
ATOM     12  C   UNL     1       0.535  -0.224   0.290  0.00  0.00    +0.032 A 
ATOM     13  N   UNL     1       0.187   1.126   0.143  0.00  0.00    -0.336 N 
ATOM     14  H   UNL     1      -0.743   1.401   0.130  0.00  0.00    +0.147 HD
ENDROOT
BRANCH   1  18
ATOM     15  C   UNL     1       3.135   1.650  -3.813  0.00  0.00    +0.120 A 
ATOM     16  C   UNL     1       2.567   0.553  -3.181  0.00  0.00    +0.046 A 
ATOM     17  C   UNL     1       1.963   0.705  -1.948  0.00  0.00    +0.009 A 
ATOM     18  C   UNL     1       1.924   1.948  -1.344  0.00  0.00    -0.027 A 
ATOM     19  C   UNL     1       2.484   3.044  -1.975  0.00  0.00    +0.009 A 
ATOM     20  C   UNL     1       3.094   2.896  -3.206  0.00  0.00    +0.046 A 
BRANCH  15  22
ATOM     21  C   UNL     1       4.293   2.675  -5.619  0.00  0.00    +0.277 C 
ATOM     22  O   UNL     1       3.730   1.503  -5.026  0.00  0.00    -0.495 OA
ENDBRANCH  15  22
ENDBRANCH   1  18
BRANCH   9  23
ATOM     23  O   UNL     1       1.518  -4.207   0.701  0.00  0.00    -0.489 OA
BRANCH  23  24
ATOM     24  C   UNL     1       0.499  -5.164   0.405  0.00  0.00    +0.270 C 
BRANCH  24  25
ATOM     25  C   UNL     1       1.049  -6.576   0.613  0.00  0.00    +0.270 C 
BRANCH  25  26
ATOM     26  O   UNL     1       1.357  -6.769   1.995  0.00  0.00    -0.489 OA
BRANCH  26  27
ATOM     27  C   UNL     1       1.859  -7.980   2.352  0.00  0.00    +0.121 A 
ATOM     28  C   UNL     1       2.046  -8.965   1.393  0.00  0.00    +0.045 A 
ATOM     29  C   UNL     1       2.563 -10.193   1.758  0.00  0.00    +0.004 A 
ATOM     30  C   UNL     1       2.882 -10.445   3.080  0.00  0.00    +0.000 A 
ATOM     31  C   UNL     1       2.691  -9.467   4.038  0.00  0.00    +0.004 A 
ATOM     32  C   UNL     1       2.180  -8.235   3.678  0.00  0.00    +0.045 A 
ENDBRANCH  26  27
ENDBRANCH  25  26
ENDBRANCH  24  25
ENDBRANCH  23  24
ENDBRANCH   9  23
TORSDOF 7
