REMARK  Name = ZINC35312872
REMARK  11 active torsions:
REMARK  status: ('A' for Active; 'I' for Inactive)
REMARK    1  A    between atoms: C_1  and  C_2
REMARK    2  A    between atoms: C_6  and  N_9
REMARK    3  A    between atoms: C_7  and  C_8
REMARK    4  A    between atoms: N_9  and  C_10
REMARK    5  A    between atoms: C_10  and  N_12
REMARK    6  A    between atoms: N_12  and  C_13
REMARK    7  A    between atoms: C_13  and  C_14
REMARK    8  A    between atoms: C_14  and  N_15
REMARK    9  A    between atoms: C_17  and  C_28
REMARK   10  A    between atoms: C_21  and  C_27
REMARK   11  A    between atoms: C_23  and  C_26
REMARK                            x       y       z     vdW  Elec       q    Type
REMARK                         _______ _______ _______ _____ _____    ______ ____
ROOT
ATOM      1  C   UNL     1      -0.297  -6.794   4.979  0.00  0.00    +0.121 C 
ENDROOT
BRANCH   1   2
ATOM      2  N   UNL     1      -0.388  -8.256   4.971  0.00  0.00    -0.327 N 
ATOM      3  C   UNL     1      -0.477  -8.950   6.164  0.00  0.00    +0.137 A 
ATOM      4  C   UNL     1      -0.558 -10.363   6.140  0.00  0.00    +0.092 A 
ATOM      5  C   UNL     1      -0.648 -11.060   7.338  0.00  0.00    +0.032 A 
ATOM      6  C   UNL     1      -0.654 -10.322   8.535  0.00  0.00    +0.002 A 
ATOM      7  C   UNL     1      -0.742 -10.963   9.782  0.00  0.00    +0.013 A 
ATOM      8  C   UNL     1      -0.745 -10.220  10.923  0.00  0.00    -0.050 A 
ATOM      9  C   UNL     1      -0.662  -8.830  10.870  0.00  0.00    +0.008 A 
ATOM     10  C   UNL     1      -0.576  -8.177   9.678  0.00  0.00    -0.024 A 
ATOM     11  C   UNL     1      -0.569  -8.908   8.479  0.00  0.00    +0.076 A 
ATOM     12  N   UNL     1      -0.479  -8.284   7.298  0.00  0.00    -0.231 NA
ATOM     13  C   UNL     1      -0.488  -6.672   9.647  0.00  0.00    +0.046 C 
ATOM     14  C   UNL     1      -0.839 -10.909  12.260  0.00  0.00    +0.044 C 
ATOM     15  H   UNL     1      -0.386  -8.738   4.129  0.00  0.00    +0.148 HD
BRANCH   4  16
ATOM     16  C   UNL     1      -0.549 -11.066   4.893  0.00  0.00    +0.103 C 
ATOM     17  N   UNL     1      -0.541 -11.625   3.904  0.00  0.00    -0.191 NA
ENDBRANCH   4  16
ENDBRANCH   1   2
BRANCH   1  18
ATOM     18  C   UNL     1      -0.210  -6.281   3.540  0.00  0.00    +0.122 C 
BRANCH  18  19
ATOM     19  N   UNL     1      -0.119  -4.819   3.548  0.00  0.00    -0.325 N 
ATOM     20  H   UNL     1      -0.121  -4.337   4.390  0.00  0.00    +0.148 HD
BRANCH  19  21
ATOM     21  C   UNL     1      -0.032  -4.143   2.385  0.00  0.00    +0.135 C 
ATOM     22  S   UNL     1      -0.028  -4.992   0.899  0.00  0.00    -0.019 S 
BRANCH  21  23
ATOM     23  N   UNL     1       0.051  -2.797   2.392  0.00  0.00    -0.297 N 
ATOM     24  H   UNL     1       0.129  -2.321   3.233  0.00  0.00    +0.154 HD
BRANCH  23  30
ATOM     25  C   UNL     1       1.866   0.777  -0.454  0.00  0.00    +0.044 C 
ATOM     26  C   UNL     1       0.894  -0.351  -0.220  0.00  0.00    -0.046 A 
ATOM     27  C   UNL     1      -0.024  -0.686  -1.198  0.00  0.00    +0.004 A 
ATOM     28  C   UNL     1      -0.917  -1.721  -0.988  0.00  0.00    +0.002 A 
ATOM     29  C   UNL     1      -0.894  -2.423   0.202  0.00  0.00    +0.023 A 
ATOM     30  C   UNL     1       0.026  -2.088   1.187  0.00  0.00    +0.036 A 
ATOM     31  C   UNL     1       0.926  -1.052   0.969  0.00  0.00    -0.026 A 
ATOM     32  C   UNL     1       1.931  -0.691   2.032  0.00  0.00    +0.046 C 
ENDBRANCH  23  30
ENDBRANCH  21  23
ENDBRANCH  19  21
ENDBRANCH  18  19
ENDBRANCH   1  18
TORSDOF 7
