REMARK  Name = ZINC20679045
REMARK  7 active torsions:
REMARK  status: ('A' for Active; 'I' for Inactive)
REMARK    1  A    between atoms: C_1  and  C_2
REMARK    2  A    between atoms: C_2  and  C_3
REMARK    3  A    between atoms: C_3  and  C_4
REMARK    4  A    between atoms: N_6  and  C_7
REMARK    5  A    between atoms: C_20  and  C_23
REMARK    6  A    between atoms: C_26  and  O_29
REMARK    7  A    between atoms: O_29  and  C_30
REMARK                            x       y       z     vdW  Elec       q    Type
REMARK                         _______ _______ _______ _____ _____    ______ ____
ROOT
ATOM      1  C   UNL     1      -1.519  -3.917  -0.550  0.00  0.00    +0.039 A 
ATOM      2  C   UNL     1      -2.416  -4.455   0.363  0.00  0.00    +0.025 A 
ATOM      3  C   UNL     1      -2.832  -3.693   1.439  0.00  0.00    +0.023 A 
ATOM      4  C   UNL     1      -2.366  -2.406   1.602  0.00  0.00    +0.062 A 
ATOM      5  C   UNL     1      -1.468  -1.847   0.689  0.00  0.00    +0.052 A 
ATOM      6  C   UNL     1      -1.042  -2.627  -0.387  0.00  0.00    +0.003 A 
ATOM      7  C   UNL     1      -0.057  -2.038  -1.320  0.00  0.00    +0.050 C 
ATOM      8  C   UNL     1       0.011  -2.410  -2.755  0.00  0.00    -0.023 C 
ATOM      9  C   UNL     1       0.428  -1.371  -3.450  0.00  0.00    -0.030 C 
ATOM     10  C   UNL     1       0.612  -0.167  -2.522  0.00  0.00    +0.033 C 
ATOM     11  C   UNL     1      -0.357  -0.508  -1.385  0.00  0.00    +0.029 C 
ATOM     12  C   UNL     1      -0.032   0.003   0.003  0.00  0.00    +0.105 C 
ATOM     13  N   UNL     1      -1.057  -0.534   0.913  0.00  0.00    -0.335 N 
ATOM     14 CL   UNL     1      -2.904  -1.467   2.959  0.00  0.00    -0.082 Cl
ATOM     15  H   UNL     1      -1.459   0.095   1.721  0.00  0.00    +0.147 HD
ENDROOT
BRANCH  12  16
ATOM     16  C   UNL     1      -0.071   1.510   0.018  0.00  0.00    -0.027 A 
ATOM     17  C   UNL     1      -1.287   2.168   0.047  0.00  0.00    +0.009 A 
ATOM     18  C   UNL     1      -1.325   3.549   0.066  0.00  0.00    +0.046 A 
ATOM     19  C   UNL     1      -0.143   4.275   0.044  0.00  0.00    +0.120 A 
ATOM     20  C   UNL     1       1.075   3.612   0.008  0.00  0.00    +0.046 A 
ATOM     21  C   UNL     1       1.108   2.231  -0.005  0.00  0.00    +0.009 A 
BRANCH  19  22
ATOM     22  O   UNL     1      -0.178   5.634   0.057  0.00  0.00    -0.495 OA
ATOM     23  C   UNL     1      -1.467   6.249   0.094  0.00  0.00    +0.277 C 
ENDBRANCH  19  22
ENDBRANCH  12  16
BRANCH   1  26
ATOM     24  C   UNL     1      -1.877  -5.675  -2.114  0.00  0.00    +0.217 C 
ATOM     25  O   UNL     1      -2.990  -5.837  -1.661  0.00  0.00    -0.275 OA
ATOM     26  N   UNL     1      -1.095  -4.684  -1.642  0.00  0.00    -0.285 N 
ATOM     27  H   UNL     1      -0.123  -4.477  -2.115  0.00  0.00    +0.155 HD
BRANCH  24  28
ATOM     28  C   UNL     1      -1.367  -6.582  -3.204  0.00  0.00    +0.096 C 
BRANCH  28  30
ATOM     29  C   UNL     1      -1.925  -8.533  -4.661  0.00  0.00    +0.004 C 
ATOM     30  C   UNL     1      -2.442  -7.612  -3.554  0.00  0.00    +0.006 C 
ENDBRANCH  28  30
ENDBRANCH  24  28
ENDBRANCH   1  26
TORSDOF 5
