REMARK  Name = ZINC51397373
REMARK  5 active torsions:
REMARK  status: ('A' for Active; 'I' for Inactive)
REMARK    1  A    between atoms: C_1  and  N_2
REMARK    2  A    between atoms: N_2  and  C_3
REMARK    3  A    between atoms: C_3  and  C_4
REMARK    4  A    between atoms: C_13  and  C_16
REMARK    5  A    between atoms: C_16  and  N_17
REMARK                            x       y       z     vdW  Elec       q    Type
REMARK                         _______ _______ _______ _____ _____    ______ ____
ROOT
ATOM      1  C   UNL     1      -1.267   0.401   0.611  0.00  0.00    +0.131 C 
ATOM      2  N   UNL     1       0.002  -0.004   0.002  0.00  0.00    -0.312 N 
ATOM      3  C   UNL     1       0.004  -0.782  -1.151  0.00  0.00    +0.140 A 
ATOM      4  C   UNL     1       0.043  -0.166  -2.399  0.00  0.00    +0.081 A 
ATOM      5  C   UNL     1       0.044  -0.953  -3.537  0.00  0.00    +0.026 A 
ATOM      6  C   UNL     1       0.006  -2.333  -3.389  0.00  0.00    -0.045 A 
ATOM      7  C   UNL     1      -0.032  -2.876  -2.120  0.00  0.00    +0.114 A 
ATOM      8  N   UNL     1      -0.027  -2.102  -1.052  0.00  0.00    -0.239 NA
ATOM      9 CL   UNL     1       0.089   1.565  -2.525  0.00  0.00    -0.080 Cl
ENDROOT
BRANCH   2  10
ATOM     10  C   UNL     1       1.270   0.411   0.607  0.00  0.00    +0.148 C 
BRANCH  10  11
ATOM     11  C   UNL     1       1.711  -0.625   1.610  0.00  0.00    +0.008 A 
ATOM     12  C   UNL     1       2.492  -1.716   1.422  0.00  0.00    +0.014 A 
ATOM     13  C   UNL     1       2.769  -2.536   2.500  0.00  0.00    +0.028 A 
ATOM     14  C   UNL     1       2.249  -2.224   3.714  0.00  0.00    +0.078 A 
ATOM     15  S   UNL     1       1.345  -0.727   3.354  0.00  0.00    -0.080 S 
ATOM     16 CL   UNL     1       2.425  -3.059   5.226  0.00  0.00    -0.076 Cl
ENDBRANCH  10  11
ENDBRANCH   2  10
BRANCH   6  17
ATOM     17  C   UNL     1       0.006  -3.230  -4.600  0.00  0.00    -0.049 C 
BRANCH  17  18
ATOM     18  N   UNL     1       1.390  -3.556  -4.968  0.00  0.00    +0.381 N 
ATOM     19  H   UNL     1       1.891  -2.706  -5.179  0.00  0.00    -0.090 HD
ATOM     20  H   UNL     1       1.839  -4.030  -4.199  0.00  0.00    -0.090 HD
ATOM     21  H   UNL     1       1.390  -4.156  -5.779  0.00  0.00    -0.090 HD
ENDBRANCH  17  18
ENDBRANCH   6  17
TORSDOF 4
