REMARK  Name = ZINC35747234
REMARK  13 active torsions:
REMARK  status: ('A' for Active; 'I' for Inactive)
REMARK    1  A    between atoms: C_1  and  C_2
REMARK    2  A    between atoms: C_7  and  C_8
REMARK    3  A    between atoms: C_17  and  C_19
REMARK    4  A    between atoms: C_19  and  N_20
REMARK    5  A    between atoms: N_20  and  C_21
REMARK    6  A    between atoms: N_20  and  C_28
REMARK    7  A    between atoms: C_21  and  C_22
REMARK    8  A    between atoms: C_28  and  C_29
REMARK    9  A    between atoms: C_29  and  C_31
REMARK   10  A    between atoms: C_29  and  O_40
REMARK   11  A    between atoms: C_31  and  O_32
REMARK   12  A    between atoms: O_32  and  C_33
REMARK   13  A    between atoms: C_38  and  C_39
REMARK                            x       y       z     vdW  Elec       q    Type
REMARK                         _______ _______ _______ _____ _____    ______ ____
ROOT
ATOM      1  N   UNL     1      -3.747   3.633   6.171  0.00  0.00    +0.389 N 
ATOM      2  H   UNL     1      -3.446   3.082   6.961  0.00  0.00    -0.081 HD
ENDROOT
BRANCH   1   3
ATOM      3  C   UNL     1      -4.368   2.757   5.169  0.00  0.00    -0.003 C 
BRANCH   3  13
ATOM      4  C   UNL     1      -0.594  -1.327   3.916  0.00  0.00    +0.004 A 
ATOM      5  C   UNL     1       0.564  -1.193   4.607  0.00  0.00    +0.056 A 
ATOM      6  S   UNL     1       0.285   0.261   5.600  0.00  0.00    -0.076 S 
ATOM      7  C   UNL     1      -1.362   0.650   5.071  0.00  0.00    +0.116 A 
ATOM      8  C   UNL     1      -1.656  -0.352   4.132  0.00  0.00    +0.080 A 
ATOM      9  C   UNL     1      -2.952  -0.275   3.529  0.00  0.00    +0.260 A 
ATOM     10  O   UNL     1      -3.301  -1.103   2.705  0.00  0.00    -0.267 OA
ATOM     11  N   UNL     1      -3.780   0.725   3.885  0.00  0.00    -0.312 N 
ATOM     12  H   UNL     1      -4.659   0.781   3.480  0.00  0.00    +0.170 HD
ATOM     13  C   UNL     1      -3.408   1.655   4.801  0.00  0.00    +0.094 A 
ATOM     14  N   UNL     1      -2.236   1.607   5.375  0.00  0.00    -0.229 NA
BRANCH   4  21
ATOM     15  C   UNL     1      -0.892  -0.751   1.097  0.00  0.00    +0.044 C 
ATOM     16  C   UNL     1      -0.920  -2.174   1.594  0.00  0.00    -0.043 A 
ATOM     17  C   UNL     1      -1.082  -3.215   0.703  0.00  0.00    +0.004 A 
ATOM     18  C   UNL     1      -1.108  -4.521   1.158  0.00  0.00    +0.000 A 
ATOM     19  C   UNL     1      -0.971  -4.791   2.508  0.00  0.00    +0.001 A 
ATOM     20  C   UNL     1      -0.808  -3.759   3.408  0.00  0.00    +0.009 A 
ATOM     21  C   UNL     1      -0.775  -2.440   2.955  0.00  0.00    -0.014 A 
ENDBRANCH   4  21
ENDBRANCH   3  13
ENDBRANCH   1   3
BRANCH   1  22
ATOM     22  C   UNL     1      -2.587   4.311   5.577  0.00  0.00    -0.042 C 
BRANCH  22  23
ATOM     23  C   UNL     1      -3.012   5.027   4.322  0.00  0.00    -0.064 A 
ATOM     24  C   UNL     1      -2.947   4.381   3.101  0.00  0.00    +0.002 A 
ATOM     25  C   UNL     1      -3.338   5.038   1.949  0.00  0.00    +0.000 A 
ATOM     26  C   UNL     1      -3.793   6.342   2.018  0.00  0.00    +0.000 A 
ATOM     27  C   UNL     1      -3.859   6.988   3.238  0.00  0.00    +0.000 A 
ATOM     28  C   UNL     1      -3.473   6.329   4.391  0.00  0.00    +0.002 A 
ENDBRANCH  22  23
ENDBRANCH   1  22
BRANCH   1  29
ATOM     29  C   UNL     1      -4.723   4.636   6.618  0.00  0.00    -0.043 C 
BRANCH  29  30
ATOM     30  C   UNL     1      -4.220   5.302   7.900  0.00  0.00    +0.135 C 
BRANCH  30  31
ATOM     31  O   UNL     1      -3.058   6.080   7.608  0.00  0.00    -0.390 OA
ATOM     32  H   UNL     1      -3.233   6.856   7.058  0.00  0.00    +0.210 HD
ENDBRANCH  30  31
BRANCH  30  33
ATOM     33  C   UNL     1      -5.314   6.210   8.466  0.00  0.00    +0.258 C 
BRANCH  33  34
ATOM     34  O   UNL     1      -4.889   6.741   9.723  0.00  0.00    -0.489 OA
BRANCH  34  35
ATOM     35  C   UNL     1      -5.751   7.573  10.364  0.00  0.00    +0.124 A 
ATOM     36  C   UNL     1      -6.983   7.869   9.798  0.00  0.00    +0.046 A 
ATOM     37  C   UNL     1      -7.857   8.714  10.451  0.00  0.00    +0.004 A 
ATOM     38  C   UNL     1      -7.506   9.267  11.669  0.00  0.00    +0.000 A 
ATOM     39  C   UNL     1      -6.279   8.975  12.235  0.00  0.00    +0.007 A 
ATOM     40  C   UNL     1      -5.403   8.125  11.588  0.00  0.00    -0.009 A 
ATOM     41  C   UNL     1      -4.068   7.802  12.209  0.00  0.00    +0.047 C 
ENDBRANCH  34  35
ENDBRANCH  33  34
ENDBRANCH  30  33
ENDBRANCH  29  30
ENDBRANCH   1  29
TORSDOF 11
