REMARK  Name = ZINC35078347
REMARK  5 active torsions:
REMARK  status: ('A' for Active; 'I' for Inactive)
REMARK    1  A    between atoms: C_3  and  N_21
REMARK    2  A    between atoms: C_6  and  C_7
REMARK    3  A    between atoms: N_9  and  N_10
REMARK    4  A    between atoms: C_11  and  C_12
REMARK    5  A    between atoms: C_22  and  C_23
REMARK                            x       y       z     vdW  Elec       q    Type
REMARK                         _______ _______ _______ _____ _____    ______ ____
ROOT
ATOM      1  C   UNL     1      -0.112   1.343  -1.103  0.00  0.00    +0.015 A 
ATOM      2  C   UNL     1       0.963   2.017  -1.608  0.00  0.00    +0.028 A 
ATOM      3  C   UNL     1       2.026   1.310  -2.182  0.00  0.00    +0.064 A 
ATOM      4  C   UNL     1       1.987  -0.087  -2.237  0.00  0.00    +0.028 A 
ATOM      5  C   UNL     1       0.912  -0.761  -1.732  0.00  0.00    +0.015 A 
ATOM      6  C   UNL     1      -0.150  -0.054  -1.159  0.00  0.00    +0.038 A 
ENDROOT
BRANCH   6   7
ATOM      7  C   UNL     1      -1.311  -0.783  -0.614  0.00  0.00    +0.263 C 
ATOM      8  O   UNL     1      -2.235  -0.168  -0.116  0.00  0.00    -0.268 OA
ATOM      9  N   UNL     1      -1.349  -2.129  -0.668  0.00  0.00    -0.203 N 
ATOM     10  H   UNL     1      -0.612  -2.619  -1.065  0.00  0.00    +0.178 HD
BRANCH   9  11
ATOM     11  N   UNL     1      -2.451  -2.820  -0.150  0.00  0.00    -0.187 NA
ATOM     12  C   UNL     1      -2.437  -4.117  -0.095  0.00  0.00    +0.138 C 
BRANCH  12  13
ATOM     13  C   UNL     1      -1.152  -4.841  -0.111  0.00  0.00    -0.005 A 
ATOM     14  C   UNL     1       0.045  -4.152   0.096  0.00  0.00    +0.010 A 
ATOM     15  C   UNL     1       1.240  -4.838   0.079  0.00  0.00    +0.004 A 
ATOM     16  C   UNL     1       1.262  -6.207  -0.143  0.00  0.00    -0.044 A 
ATOM     17  C   UNL     1       0.079  -6.895  -0.349  0.00  0.00    -0.044 A 
ATOM     18  C   UNL     1      -1.126  -6.220  -0.328  0.00  0.00    +0.013 A 
ATOM     19  C   UNL     1       0.374  -8.364  -0.566  0.00  0.00    +0.036 C 
ATOM     20  C   UNL     1       1.878  -8.429  -0.905  0.00  0.00    +0.009 C 
ATOM     21  C   UNL     1       2.430  -7.168  -0.207  0.00  0.00    +0.036 C 
ENDBRANCH  12  13
ENDBRANCH   9  11
ENDBRANCH   6   7
BRANCH   3  22
ATOM     22  N   UNL     1       3.101   1.984  -2.687  0.00  0.00    -0.255 NA
ATOM     23  C   UNL     1       4.310   1.575  -2.423  0.00  0.00    +0.119 C 
BRANCH  23  24
ATOM     24  C   UNL     1       5.469   2.301  -2.968  0.00  0.00    -0.007 A 
ATOM     25  C   UNL     1       5.277   3.435  -3.764  0.00  0.00    +0.010 A 
ATOM     26  C   UNL     1       6.368   4.108  -4.269  0.00  0.00    +0.004 A 
ATOM     27  C   UNL     1       7.655   3.668  -3.993  0.00  0.00    -0.044 A 
ATOM     28  C   UNL     1       7.852   2.547  -3.206  0.00  0.00    -0.044 A 
ATOM     29  C   UNL     1       6.766   1.866  -2.688  0.00  0.00    +0.013 A 
ATOM     30  C   UNL     1       9.335   2.280  -3.058  0.00  0.00    +0.036 C 
ATOM     31  C   UNL     1      10.005   3.090  -4.188  0.00  0.00    +0.009 C 
ATOM     32  C   UNL     1       8.993   4.230  -4.426  0.00  0.00    +0.036 C 
ENDBRANCH  23  24
ENDBRANCH   3  22
TORSDOF 5
