REMARK  Name = ZINC10774714
REMARK  10 active torsions:
REMARK  status: ('A' for Active; 'I' for Inactive)
REMARK    1  A    between atoms: C_1  and  C_2
REMARK    2  A    between atoms: C_2  and  N_62
REMARK    3  A    between atoms: C_8  and  N_15
REMARK    4  A    between atoms: C_9  and  C_10
REMARK    5  A    between atoms: C_10  and  O_12
REMARK    6  A    between atoms: O_12  and  C_13
REMARK    7  A    between atoms: C_13  and  C_14
REMARK    8  A    between atoms: C_16  and  C_18
REMARK    9  A    between atoms: N_24  and  S_25
REMARK   10  A    between atoms: S_25  and  C_28
REMARK                            x       y       z     vdW  Elec       q    Type
REMARK                         _______ _______ _______ _____ _____    ______ ____
ROOT
ATOM      1  N   UNL     1       0.340  -0.066   0.152  0.00  0.00    -0.278 N 
ATOM      2  C   UNL     1       0.208   1.273   0.065  0.00  0.00    +0.236 C 
ATOM      3  O   UNL     1      -0.895   1.769  -0.026  0.00  0.00    -0.274 OA
ATOM      4  H   UNL     1       1.222  -0.463   0.221  0.00  0.00    +0.155 HD
ENDROOT
BRANCH   1  10
ATOM      5  C   UNL     1      -3.905  -4.572   0.657  0.00  0.00    -0.074 C 
ATOM      6  C   UNL     1      -2.435  -4.366   0.278  0.00  0.00    +0.018 C 
ATOM      7  C   UNL     1      -2.171  -2.867   0.197  0.00  0.00    -0.025 A 
ATOM      8  C   UNL     1      -3.204  -2.001   0.091  0.00  0.00    -0.021 A 
ATOM      9  S   UNL     1      -2.450  -0.402   0.040  0.00  0.00    -0.079 S 
ATOM     10  C   UNL     1      -0.786  -0.874   0.145  0.00  0.00    +0.086 A 
ATOM     11  C   UNL     1      -0.854  -2.260   0.226  0.00  0.00    +0.091 A 
ATOM     12  C   UNL     1      -4.658  -2.355   0.038  0.00  0.00    -0.035 C 
ATOM     13  N   UNL     1      -4.762  -3.802  -0.267  0.00  0.00    +0.383 N 
ATOM     14  H   UNL     1      -4.445  -3.965  -1.230  0.00  0.00    -0.081 HD
BRANCH  13  16
ATOM     15  C   UNL     1      -6.641  -4.118   1.307  0.00  0.00    -0.017 C 
ATOM     16  C   UNL     1      -6.167  -4.246  -0.142  0.00  0.00    -0.082 C 
ENDBRANCH  13  16
BRANCH  11  17
ATOM     17  C   UNL     1       0.357  -3.076   0.335  0.00  0.00    +0.342 C 
ATOM     18  O   UNL     1       0.808  -3.351   1.431  0.00  0.00    -0.245 OA
BRANCH  17  19
ATOM     19  O   UNL     1       0.973  -3.522  -0.779  0.00  0.00    -0.461 OA
BRANCH  19  20
ATOM     20  C   UNL     1       2.169  -4.325  -0.595  0.00  0.00    +0.229 C 
ATOM     21  C   UNL     1       2.723  -4.736  -1.961  0.00  0.00    +0.048 C 
ENDBRANCH  19  20
ENDBRANCH  17  19
ENDBRANCH  11  17
ENDBRANCH   1  10
BRANCH   2  22
ATOM     22  C   UNL     1       1.432   2.152   0.073  0.00  0.00    +0.166 C 
ATOM     23  C   UNL     1       1.530   2.908  -1.256  0.00  0.00    +0.030 C 
ATOM     24  C   UNL     1       2.693   3.901  -1.189  0.00  0.00    +0.003 C 
ATOM     25  C   UNL     1       2.435   4.917  -0.073  0.00  0.00    +0.017 C 
ATOM     26  C   UNL     1       2.347   4.184   1.269  0.00  0.00    +0.110 C 
ATOM     27  N   UNL     1       1.331   3.127   1.168  0.00  0.00    -0.164 NA
BRANCH  27  28
ATOM     28  S   UNL     1       0.093   3.038   2.265  0.00  0.00    +0.068 S 
ATOM     29  O   UNL     1      -0.365   1.693   2.252  0.00  0.00    -0.152 OA
ATOM     30  O   UNL     1       0.554   3.674   3.449  0.00  0.00    -0.152 OA
BRANCH  28  31
ATOM     31  C   UNL     1      -1.226   4.026   1.643  0.00  0.00    +0.143 A 
ATOM     32  C   UNL     1      -2.332   3.641   0.960  0.00  0.00    +0.036 A 
ATOM     33  C   UNL     1      -3.245   4.602   0.567  0.00  0.00    +0.010 A 
ATOM     34  C   UNL     1      -3.008   5.900   0.876  0.00  0.00    +0.047 A 
ATOM     35  S   UNL     1      -1.457   5.793   1.755  0.00  0.00    -0.077 S 
ENDBRANCH  28  31
ENDBRANCH  27  28
ENDBRANCH   2  22
TORSDOF 8
