REMARK  Name = ZINC39977708
REMARK  6 active torsions:
REMARK  status: ('A' for Active; 'I' for Inactive)
REMARK    1  A    between atoms: C_4  and  S_7
REMARK    2  A    between atoms: S_7  and  C_8
REMARK    3  A    between atoms: C_8  and  C_9
REMARK    4  A    between atoms: C_11  and  C_23
REMARK    5  A    between atoms: C_13  and  C_21
REMARK    6  A    between atoms: C_14  and  N_20
REMARK                            x       y       z     vdW  Elec       q    Type
REMARK                         _______ _______ _______ _____ _____    ______ ____
ROOT
ATOM      1  C   UNL     1       4.705  -3.433  -0.063  0.00  0.00    +0.079 C 
ATOM      2  C   UNL     1       5.172  -4.098   0.966  0.00  0.00    +0.027 C 
ATOM      3  C   UNL     1       4.650  -4.362   2.352  0.00  0.00    +0.075 C 
ATOM      4  C   UNL     1       4.946  -5.825   2.627  0.00  0.00    +0.094 C 
ATOM      5  C   UNL     1       5.713  -6.561   1.796  0.00  0.00    +0.195 C 
ATOM      6  O   UNL     1       6.279  -6.148   0.648  0.00  0.00    -0.448 OA
ATOM      7  C   UNL     1       6.467  -4.742   0.472  0.00  0.00    +0.343 C 
ATOM      8  N   UNL     1       6.478  -4.356  -0.943  0.00  0.00    -0.138 NA
ATOM      9  N   UNL     1       5.496  -3.631  -1.149  0.00  0.00    -0.154 NA
ENDROOT
BRANCH   3  10
ATOM     10  C   UNL     1       5.371  -3.474   3.368  0.00  0.00    +0.024 C 
ATOM     11  C   UNL     1       4.831  -3.764   4.770  0.00  0.00    +0.009 C 
ATOM     12  C   UNL     1       5.370  -2.694   5.728  0.00  0.00    +0.005 C 
ATOM     13  C   UNL     1       4.744  -1.349   5.355  0.00  0.00    +0.027 C 
ATOM     14  C   UNL     1       4.879  -1.107   3.880  0.00  0.00    -0.031 C 
ATOM     15  C   UNL     1       5.145  -2.033   3.017  0.00  0.00    -0.027 C 
ENDBRANCH   3  10
BRANCH   5  16
ATOM     16  N   UNL     1       5.939  -7.865   2.159  0.00  0.00    -0.329 N 
ATOM     17  H   UNL     1       5.553  -8.213   2.979  0.00  0.00    +0.145 HD
ATOM     18  H   UNL     1       6.483  -8.438   1.597  0.00  0.00    +0.145 HD
ENDBRANCH   5  16
BRANCH   4  19
ATOM     19  C   UNL     1       4.398  -6.440   3.798  0.00  0.00    +0.100 C 
ATOM     20  N   UNL     1       3.963  -6.928   4.727  0.00  0.00    -0.191 NA
ENDBRANCH   4  19
BRANCH   1  21
ATOM     21  C   UNL     1       3.465  -2.578  -0.046  0.00  0.00    +0.131 C 
BRANCH  21  22
ATOM     22  S   UNL     1       3.939  -0.827  -0.042  0.00  0.00    -0.119 S 
BRANCH  22  26
ATOM     23  C   UNL     1      -0.017   1.379   0.010  0.00  0.00    +0.000 A 
ATOM     24  C   UNL     1       1.169   2.090   0.002  0.00  0.00    +0.001 A 
ATOM     25  C   UNL     1       2.377   1.421  -0.013  0.00  0.00    +0.015 A 
ATOM     26  C   UNL     1       2.400   0.031  -0.021  0.00  0.00    +0.008 A 
ATOM     27  C   UNL     1       1.206  -0.680  -0.013  0.00  0.00    +0.015 A 
ATOM     28  C   UNL     1       0.002  -0.004   0.002  0.00  0.00    +0.001 A 
ENDBRANCH  22  26
ENDBRANCH  21  22
ENDBRANCH   1  21
TORSDOF 6
