REMARK  Name = ZINC04281213
REMARK  12 active torsions:
REMARK  status: ('A' for Active; 'I' for Inactive)
REMARK    1  A    between atoms: C_1  and  C_2
REMARK    2  A    between atoms: C_2  and  C_3
REMARK    3  A    between atoms: C_3  and  C_4
REMARK    4  A    between atoms: C_4  and  C_5
REMARK    5  A    between atoms: N_7  and  C_8
REMARK    6  A    between atoms: C_9  and  C_20
REMARK    7  A    between atoms: C_13  and  C_18
REMARK    8  A    between atoms: C_13  and  C_19
REMARK    9  A    between atoms: C_14  and  C_16
REMARK   10  A    between atoms: C_14  and  C_17
REMARK   11  A    between atoms: C_20  and  O_22
REMARK   12  A    between atoms: O_22  and  C_23
REMARK                            x       y       z     vdW  Elec       q    Type
REMARK                         _______ _______ _______ _____ _____    ______ ____
ROOT
ATOM      1  C   UNL     1       2.405   1.164  -0.028  0.00  0.00    +0.086 A 
ATOM      2  C   UNL     1       1.284   1.991   0.001  0.00  0.00    +0.091 A 
ATOM      3  C   UNL     1      -0.016   1.349   0.009  0.00  0.00    -0.024 A 
ATOM      4  C   UNL     1       0.002  -0.004   0.002  0.00  0.00    -0.016 A 
ATOM      5  S   UNL     1       1.721  -0.428  -0.030  0.00  0.00    -0.079 S 
ATOM      6  C   UNL     1      -1.184  -0.911   0.025  0.00  0.00    -0.041 C 
ATOM      7  C   UNL     1      -2.380   1.160  -0.681  0.00  0.00    -0.069 C 
ATOM      8  C   UNL     1      -1.357   2.067   0.007  0.00  0.00    +0.024 C 
ATOM      9  C   UNL     1      -2.059   1.085  -2.177  0.00  0.00    -0.010 C 
ATOM     10  C   UNL     1      -3.767   1.813  -0.529  0.00  0.00    -0.010 C 
ATOM     11  C   UNL     1      -1.062  -1.936  -1.108  0.00  0.00    -0.005 C 
ATOM     12  C   UNL     1      -1.177  -1.676   1.361  0.00  0.00    -0.005 C 
ATOM     13  N   UNL     1      -2.483  -0.188  -0.066  0.00  0.00    +0.389 N 
ATOM     14  H   UNL     1      -2.861  -0.082   0.882  0.00  0.00    -0.084 HD
ATOM     15  H   UNL     1      -3.128  -0.752  -0.631  0.00  0.00    -0.084 HD
ENDROOT
BRANCH   1  18
ATOM     16  C   UNL     1       4.700   0.584  -0.074  0.00  0.00    +0.218 C 
ATOM     17  O   UNL     1       4.394  -0.590  -0.079  0.00  0.00    -0.275 OA
ATOM     18  N   UNL     1       3.742   1.531  -0.048  0.00  0.00    -0.279 N 
ATOM     19  H   UNL     1       3.987   2.469  -0.044  0.00  0.00    +0.155 HD
BRANCH  16  20
ATOM     20  C   UNL     1       6.153   0.983  -0.096  0.00  0.00    +0.096 C 
BRANCH  20  21
ATOM     21  C   UNL     1       7.027  -0.274  -0.122  0.00  0.00    +0.009 C 
BRANCH  21  23
ATOM     22  C   UNL     1       9.375  -1.125  -0.171  0.00  0.00    +0.004 C 
ATOM     23  C   UNL     1       8.502   0.131  -0.144  0.00  0.00    -0.003 C 
ENDBRANCH  21  23
ENDBRANCH  20  21
ENDBRANCH  16  20
ENDBRANCH   1  18
BRANCH   2  24
ATOM     24  C   UNL     1       1.425   3.448   0.033  0.00  0.00    +0.342 C 
ATOM     25  O   UNL     1       1.503   4.028   1.099  0.00  0.00    -0.245 OA
BRANCH  24  26
ATOM     26  O   UNL     1       1.468   4.147  -1.120  0.00  0.00    -0.464 OA
ATOM     27  C   UNL     1       1.608   5.588  -1.012  0.00  0.00    +0.280 C 
ENDBRANCH  24  26
ENDBRANCH   2  24
TORSDOF 6
