REMARK  Name = ZINC06267084
REMARK  7 active torsions:
REMARK  status: ('A' for Active; 'I' for Inactive)
REMARK    1  A    between atoms: C_1  and  C_2
REMARK    2  A    between atoms: C_5  and  S_8
REMARK    3  A    between atoms: S_8  and  N_11
REMARK    4  A    between atoms: C_12  and  C_13
REMARK    5  A    between atoms: N_20  and  C_21
REMARK    6  A    between atoms: C_24  and  C_28
REMARK    7  A    between atoms: C_26  and  C_27
REMARK                            x       y       z     vdW  Elec       q    Type
REMARK                         _______ _______ _______ _____ _____    ______ ____
ROOT
ATOM      1  N   UNL     1       1.808  -5.137  -0.187  0.00  0.00    -0.113 NA
ATOM      2  C   UNL     1       2.088  -6.387   0.047  0.00  0.00    +0.152 C 
ATOM      3  N   UNL     1       3.387  -6.764   0.316  0.00  0.00    -0.297 N 
ATOM      4  H   UNL     1       3.583  -7.677   0.578  0.00  0.00    +0.154 HD
ENDROOT
BRANCH   3   5
ATOM      5  C   UNL     1       4.422  -5.830   0.210  0.00  0.00    +0.035 A 
ATOM      6  C   UNL     1       4.270  -4.711  -0.599  0.00  0.00    +0.024 A 
ATOM      7  C   UNL     1       5.294  -3.791  -0.701  0.00  0.00    +0.005 A 
ATOM      8  C   UNL     1       6.470  -3.981   0.002  0.00  0.00    -0.050 A 
ATOM      9  C   UNL     1       6.624  -5.094   0.808  0.00  0.00    +0.008 A 
ATOM     10  C   UNL     1       5.602  -6.015   0.919  0.00  0.00    -0.029 A 
ATOM     11  C   UNL     1       5.768  -7.224   1.804  0.00  0.00    +0.045 C 
ATOM     12  C   UNL     1       7.585  -2.974  -0.112  0.00  0.00    +0.044 C 
ENDBRANCH   3   5
BRANCH   2  13
ATOM     13  C   UNL     1       1.012  -7.404   0.024  0.00  0.00    +0.017 A 
ATOM     14  C   UNL     1       0.236  -7.576  -1.122  0.00  0.00    +0.013 A 
ATOM     15  C   UNL     1      -0.765  -8.525  -1.138  0.00  0.00    +0.021 A 
ATOM     16  C   UNL     1      -1.001  -9.305  -0.019  0.00  0.00    +0.041 A 
ATOM     17  C   UNL     1      -0.234  -9.138   1.122  0.00  0.00    +0.021 A 
ATOM     18  C   UNL     1       0.774  -8.197   1.147  0.00  0.00    +0.013 A 
ATOM     19 CL   UNL     1      -2.262 -10.498  -0.045  0.00  0.00    -0.084 Cl
ENDBRANCH   2  13
BRANCH   1  20
ATOM     20  S   UNL     1       0.230  -4.656  -0.337  0.00  0.00    +0.100 S 
ATOM     21  O   UNL     1      -0.409  -4.971   0.892  0.00  0.00    -0.146 OA
ATOM     22  O   UNL     1      -0.230  -5.156  -1.585  0.00  0.00    -0.146 OA
BRANCH  20  27
ATOM     23  C   UNL     1       0.231   1.361  -0.785  0.00  0.00    +0.044 C 
ATOM     24  C   UNL     1       0.231  -0.142  -0.673  0.00  0.00    -0.050 A 
ATOM     25  C   UNL     1       0.318  -0.920  -1.812  0.00  0.00    +0.005 A 
ATOM     26  C   UNL     1       0.318  -2.298  -1.710  0.00  0.00    +0.029 A 
ATOM     27  C   UNL     1       0.231  -2.899  -0.468  0.00  0.00    +0.113 A 
ATOM     28  C   UNL     1       0.145  -2.121   0.672  0.00  0.00    +0.029 A 
ATOM     29  C   UNL     1       0.149  -0.742   0.570  0.00  0.00    +0.005 A 
ENDBRANCH  20  27
ENDBRANCH   1  20
TORSDOF 4
