REMARK  Name = ZINC02895961
REMARK  8 active torsions:
REMARK  status: ('A' for Active; 'I' for Inactive)
REMARK    1  A    between atoms: N_9  and  C_12
REMARK    2  A    between atoms: C_12  and  N_13
REMARK    3  A    between atoms: N_13  and  C_14
REMARK    4  A    between atoms: C_17  and  C_20
REMARK    5  A    between atoms: C_20  and  C_21
REMARK    6  A    between atoms: C_24  and  N_27
REMARK    7  A    between atoms: N_27  and  C_28
REMARK    8  A    between atoms: C_28  and  N_29
REMARK                            x       y       z     vdW  Elec       q    Type
REMARK                         _______ _______ _______ _____ _____    ______ ____
ROOT
ATOM      1  C   UNL     1      -5.914   5.375   3.968  0.00  0.00    +0.070 C 
ENDROOT
BRANCH   1   5
ATOM      2  C   UNL     1      -3.673   2.292   2.034  0.00  0.00    +0.028 A 
ATOM      3  C   UNL     1      -3.969   3.467   1.355  0.00  0.00    +0.023 A 
ATOM      4  C   UNL     1      -4.698   4.459   1.982  0.00  0.00    +0.006 A 
ATOM      5  C   UNL     1      -5.124   4.288   3.286  0.00  0.00    -0.043 A 
ATOM      6  C   UNL     1      -4.826   3.121   3.966  0.00  0.00    +0.006 A 
ATOM      7  C   UNL     1      -4.102   2.123   3.344  0.00  0.00    +0.023 A 
BRANCH   2   8
ATOM      8  N   UNL     1      -2.940   1.285   1.401  0.00  0.00    -0.328 N 
ATOM      9  H   UNL     1      -2.731   0.466   1.877  0.00  0.00    +0.148 HD
BRANCH   8  10
ATOM     10  C   UNL     1      -2.489   1.465   0.020  0.00  0.00    +0.221 C 
BRANCH  10  19
ATOM     11  C   UNL     1       3.413   2.946  -0.015  0.00  0.00    +0.001 A 
ATOM     12  C   UNL     1       2.926   4.239  -0.003  0.00  0.00    +0.001 A 
ATOM     13  C   UNL     1       1.561   4.477   0.011  0.00  0.00    +0.014 A 
ATOM     14  C   UNL     1       0.678   3.409   0.014  0.00  0.00    +0.049 A 
ATOM     15  C   UNL     1       1.174   2.089   0.002  0.00  0.00    +0.049 A 
ATOM     16  C   UNL     1       2.542   1.867  -0.012  0.00  0.00    +0.014 A 
ATOM     17  C   UNL     1      -0.014   1.210   0.009  0.00  0.00    +0.255 C 
ATOM     18  O   UNL     1       0.002  -0.004   0.002  0.00  0.00    -0.269 OA
ATOM     19  N   UNL     1      -1.117   1.980   0.018  0.00  0.00    -0.218 N 
ATOM     20  C   UNL     1      -0.795   3.287   0.027  0.00  0.00    +0.255 C 
ATOM     21  O   UNL     1      -1.583   4.211   0.040  0.00  0.00    -0.269 OA
ENDBRANCH  10  19
ENDBRANCH   8  10
ENDBRANCH   2   8
ENDBRANCH   1   5
BRANCH   1  22
ATOM     22  C   UNL     1      -4.970   6.319   4.667  0.00  0.00    -0.043 A 
ATOM     23  C   UNL     1      -4.607   6.085   5.980  0.00  0.00    +0.006 A 
ATOM     24  C   UNL     1      -3.738   6.946   6.622  0.00  0.00    +0.023 A 
ATOM     25  C   UNL     1      -3.237   8.054   5.949  0.00  0.00    +0.028 A 
ATOM     26  C   UNL     1      -3.609   8.289   4.632  0.00  0.00    +0.023 A 
ATOM     27  C   UNL     1      -4.474   7.421   3.994  0.00  0.00    +0.006 A 
BRANCH  25  28
ATOM     28  N   UNL     1      -2.362   8.929   6.597  0.00  0.00    -0.328 N 
ATOM     29  H   UNL     1      -2.013   9.702   6.126  0.00  0.00    +0.148 HD
BRANCH  28  30
ATOM     30  C   UNL     1      -1.972   8.680   7.986  0.00  0.00    +0.221 C 
BRANCH  30  31
ATOM     31  N   UNL     1      -0.703   7.947   8.013  0.00  0.00    -0.218 N 
ATOM     32  C   UNL     1      -0.598   6.606   8.016  0.00  0.00    +0.255 C 
ATOM     33  O   UNL     1      -1.526   5.823   7.997  0.00  0.00    -0.269 OA
ATOM     34  C   UNL     1       0.835   6.246   8.043  0.00  0.00    +0.049 A 
ATOM     35  C   UNL     1       1.532   5.049   8.056  0.00  0.00    +0.014 A 
ATOM     36  C   UNL     1       2.918   5.060   8.090  0.00  0.00    +0.001 A 
ATOM     37  C   UNL     1       3.608   6.257   8.110  0.00  0.00    +0.001 A 
ATOM     38  C   UNL     1       2.925   7.463   8.097  0.00  0.00    +0.014 A 
ATOM     39  C   UNL     1       1.539   7.467   8.064  0.00  0.00    +0.049 A 
ATOM     40  C   UNL     1       0.510   8.528   8.044  0.00  0.00    +0.255 C 
ATOM     41  O   UNL     1       0.724   9.723   8.053  0.00  0.00    -0.269 OA
ENDBRANCH  30  31
ENDBRANCH  28  30
ENDBRANCH  25  28
ENDBRANCH   1  22
TORSDOF 8
