REMARK  Name = ZINC01367614
REMARK  8 active torsions:
REMARK  status: ('A' for Active; 'I' for Inactive)
REMARK    1  A    between atoms: C_1  and  C_2
REMARK    2  A    between atoms: C_5  and  C_8
REMARK    3  A    between atoms: C_16  and  S_18
REMARK    4  A    between atoms: S_18  and  C_19
REMARK    5  A    between atoms: C_19  and  C_20
REMARK    6  A    between atoms: N_22  and  C_23
REMARK    7  A    between atoms: C_23  and  C_24
REMARK    8  A    between atoms: C_24  and  C_25
REMARK                            x       y       z     vdW  Elec       q    Type
REMARK                         _______ _______ _______ _____ _____    ______ ____
ROOT
ATOM      1  C   UNL     1       0.059  -4.255  -0.021  0.00  0.00    +0.161 A 
ATOM      2  N   UNL     1       0.068  -4.894   1.134  0.00  0.00    -0.227 NA
ATOM      3  C   UNL     1       0.086  -6.233   1.169  0.00  0.00    +0.076 A 
ATOM      4  C   UNL     1       0.095  -6.943   2.378  0.00  0.00    +0.028 A 
ATOM      5  C   UNL     1       0.113  -8.306   2.359  0.00  0.00    +0.002 A 
ATOM      6  C   UNL     1       0.122  -9.006   1.155  0.00  0.00    +0.001 A 
ATOM      7  C   UNL     1       0.113  -8.346  -0.039  0.00  0.00    +0.012 A 
ATOM      8  C   UNL     1       0.095  -6.948  -0.054  0.00  0.00    +0.032 A 
ATOM      9  C   UNL     1       0.085  -6.210  -1.265  0.00  0.00    +0.109 A 
ATOM     10  N   UNL     1       0.062  -4.886  -1.193  0.00  0.00    -0.220 NA
ENDROOT
BRANCH   1  15
ATOM     11  C   UNL     1      -0.018   1.503   0.010  0.00  0.00    +0.044 C 
ATOM     12  C   UNL     1       0.002  -0.004   0.002  0.00  0.00    -0.050 A 
ATOM     13  C   UNL     1       0.006  -0.686  -1.201  0.00  0.00    +0.004 A 
ATOM     14  C   UNL     1       0.024  -2.066  -1.215  0.00  0.00    +0.012 A 
ATOM     15  C   UNL     1       0.040  -2.772  -0.013  0.00  0.00    +0.019 A 
ATOM     16  C   UNL     1       0.036  -2.079   1.196  0.00  0.00    +0.012 A 
ATOM     17  C   UNL     1       0.023  -0.699   1.198  0.00  0.00    +0.004 A 
ENDBRANCH   1  15
BRANCH   9  18
ATOM     18  S   UNL     1       0.095  -7.031  -2.824  0.00  0.00    -0.096 S 
BRANCH  18  19
ATOM     19  C   UNL     1       0.077  -5.678  -4.032  0.00  0.00    +0.171 C 
BRANCH  19  20
ATOM     20  C   UNL     1       0.084  -6.250  -5.426  0.00  0.00    +0.223 C 
ATOM     21  O   UNL     1       0.100  -7.451  -5.589  0.00  0.00    -0.275 OA
ATOM     22  N   UNL     1       0.073  -5.425  -6.493  0.00  0.00    -0.314 N 
ATOM     23  H   UNL     1       0.060  -4.464  -6.363  0.00  0.00    +0.149 HD
BRANCH  22  24
ATOM     24  C   UNL     1       0.080  -5.981  -7.848  0.00  0.00    +0.108 C 
BRANCH  24  25
ATOM     25  C   UNL     1       0.065  -4.840  -8.867  0.00  0.00    +0.049 C 
BRANCH  25  26
ATOM     26  C   UNL     1       0.072  -5.412 -10.262  0.00  0.00    -0.072 C 
ATOM     27  C   UNL     1      -1.065  -5.560 -10.863  0.00  0.00    -0.028 C 
ATOM     28  C   UNL     1      -1.218  -6.125 -12.245  0.00  0.00    +0.027 C 
ATOM     29  C   UNL     1       0.124  -6.093 -12.979  0.00  0.00    +0.004 C 
ATOM     30  C   UNL     1       1.192  -6.705 -12.064  0.00  0.00    +0.005 C 
ATOM     31  C   UNL     1       1.397  -5.768 -10.869  0.00  0.00    +0.030 C 
ENDBRANCH  25  26
ENDBRANCH  24  25
ENDBRANCH  22  24
ENDBRANCH  19  20
ENDBRANCH  18  19
ENDBRANCH   9  18
TORSDOF 7
