REMARK  Name = ZINC20113022
REMARK  11 active torsions:
REMARK  status: ('A' for Active; 'I' for Inactive)
REMARK    1  A    between atoms: C_1  and  C_2
REMARK    2  A    between atoms: C_2  and  C_3
REMARK    3  A    between atoms: C_3  and  C_4
REMARK    4  A    between atoms: C_9  and  C_27
REMARK    5  A    between atoms: C_10  and  C_26
REMARK    6  A    between atoms: C_13  and  C_16
REMARK    7  A    between atoms: C_14  and  O_15
REMARK    8  A    between atoms: C_16  and  N_17
REMARK    9  A    between atoms: N_20  and  C_23
REMARK   10  A    between atoms: C_23  and  C_24
REMARK   11  A    between atoms: C_24  and  O_25
REMARK                            x       y       z     vdW  Elec       q    Type
REMARK                         _______ _______ _______ _____ _____    ______ ____
ROOT
ATOM      1  C   UNL     1      -0.094   3.240   5.159  0.00  0.00    -0.005 A 
ATOM      2  C   UNL     1      -1.046   2.516   5.820  0.00  0.00    +0.022 A 
ATOM      3  C   UNL     1      -1.466   1.290   5.303  0.00  0.00    +0.065 A 
ATOM      4  C   UNL     1      -2.491   0.483   5.990  0.00  0.00    +0.202 A 
ATOM      5  O   UNL     1      -3.007   0.855   7.029  0.00  0.00    -0.286 OA
ATOM      6  C   UNL     1      -2.862  -0.796   5.356  0.00  0.00    +0.092 A 
ATOM      7  C   UNL     1      -2.247  -1.152   4.195  0.00  0.00    +0.116 A 
ATOM      8  O   UNL     1      -1.324  -0.388   3.609  0.00  0.00    -0.459 OA
ATOM      9  C   UNL     1      -0.916   0.796   4.107  0.00  0.00    +0.144 A 
ATOM     10  C   UNL     1       0.050   1.544   3.449  0.00  0.00    +0.021 A 
ATOM     11  C   UNL     1       0.462   2.756   3.977  0.00  0.00    +0.125 A 
ATOM     12  C   UNL     1      -2.624  -2.459   3.546  0.00  0.00    +0.087 C 
ENDROOT
BRANCH   6  13
ATOM     13  C   UNL     1      -3.880  -1.672   5.969  0.00  0.00    +0.116 A 
ATOM     14  N   UNL     1      -4.333  -2.833   5.545  0.00  0.00    -0.239 NA
ATOM     15  C   UNL     1      -5.271  -3.532   6.215  0.00  0.00    +0.079 A 
ATOM     16  C   UNL     1      -5.838  -4.783   5.874  0.00  0.00    +0.029 A 
ATOM     17  C   UNL     1      -6.787  -5.356   6.661  0.00  0.00    +0.002 A 
ATOM     18  C   UNL     1      -7.236  -4.744   7.823  0.00  0.00    +0.001 A 
ATOM     19  C   UNL     1      -6.708  -3.521   8.193  0.00  0.00    +0.017 A 
ATOM     20  C   UNL     1      -5.749  -2.934   7.404  0.00  0.00    +0.040 A 
ATOM     21  S   UNL     1      -4.815  -1.425   7.472  0.00  0.00    -0.067 S 
ENDBRANCH   6  13
BRANCH  11  22
ATOM     22  O   UNL     1       1.411   3.483   3.333  0.00  0.00    -0.506 OA
ATOM     23  H   UNL     1       1.853   3.106   2.399  0.00  0.00    +0.292 HD
ENDBRANCH  11  22
BRANCH   1  24
ATOM     24  C   UNL     1       0.362   4.564   5.715  0.00  0.00    +0.038 C 
BRANCH  24  26
ATOM     25  C   UNL     1       0.030   7.039   5.622  0.00  0.00    +0.004 C 
ATOM     26  C   UNL     1      -0.433   5.694   5.058  0.00  0.00    +0.001 C 
ENDBRANCH  24  26
ENDBRANCH   1  24
BRANCH  10  27
ATOM     27  C   UNL     1       0.655   1.035   2.166  0.00  0.00    -0.035 C 
BRANCH  27  28
ATOM     28  N   UNL     1      -0.139   1.513   1.026  0.00  0.00    +0.384 N 
ATOM     29  C   UNL     1       0.545   1.240  -0.245  0.00  0.00    -0.063 C 
ATOM     30  C   UNL     1      -0.347   1.681  -1.407  0.00  0.00    +0.066 C 
ATOM     31  N   UNL     1      -0.651   3.112  -1.273  0.00  0.00    -0.304 NA
ATOM     32  C   UNL     1      -1.336   3.385  -0.002  0.00  0.00    +0.066 C 
ATOM     33  C   UNL     1      -0.443   2.945   1.160  0.00  0.00    -0.063 C 
ATOM     34  H   UNL     1      -1.091   0.963   1.025  0.00  0.00    -0.081 HD
BRANCH  31  35
ATOM     35  C   UNL     1      -1.445   3.591  -2.413  0.00  0.00    +0.112 C 
BRANCH  35  36
ATOM     36  C   UNL     1      -1.820   5.058  -2.193  0.00  0.00    +0.171 C 
BRANCH  36  37
ATOM     37  O   UNL     1      -0.632   5.850  -2.138  0.00  0.00    -0.394 OA
ATOM     38  H   UNL     1      -0.702   6.937  -1.984  0.00  0.00    +0.209 HD
ENDBRANCH  36  37
ENDBRANCH  35  36
ENDBRANCH  31  35
ENDBRANCH  27  28
ENDBRANCH  10  27
TORSDOF 9
