REMARK  Name = ZINC04541978
REMARK  8 active torsions:
REMARK  status: ('A' for Active; 'I' for Inactive)
REMARK    1  A    between atoms: C_1  and  C_2
REMARK    2  A    between atoms: C_2  and  O_3
REMARK    3  A    between atoms: O_3  and  C_4
REMARK    4  A    between atoms: C_4  and  C_6
REMARK    5  A    between atoms: C_7  and  C_27
REMARK    6  A    between atoms: C_12  and  C_14
REMARK    7  A    between atoms: C_17  and  C_19
REMARK    8  A    between atoms: C_22  and  C_26
REMARK                            x       y       z     vdW  Elec       q    Type
REMARK                         _______ _______ _______ _____ _____    ______ ____
ROOT
ATOM      1  C   UNL     1      -3.034   1.391  -1.411  0.00  0.00    +0.081 C 
ATOM      2  C   UNL     1      -4.124   2.137  -1.691  0.00  0.00    +0.021 C 
ATOM      3  N   UNL     1      -4.754   2.857  -0.717  0.00  0.00    -0.273 N 
ATOM      4  C   UNL     1      -4.357   2.884   0.561  0.00  0.00    +0.304 C 
ATOM      5  O   UNL     1      -4.983   3.556   1.357  0.00  0.00    -0.252 OA
ATOM      6  N   UNL     1      -3.285   2.191   0.994  0.00  0.00    -0.285 N 
ATOM      7  C   UNL     1      -2.535   1.381   0.020  0.00  0.00    +0.179 C 
ATOM      8  C   UNL     1      -4.653   2.176  -3.102  0.00  0.00    +0.061 C 
ATOM      9  H   UNL     1      -5.534   3.378  -0.965  0.00  0.00    +0.156 HD
ATOM     10  H   UNL     1      -3.014   2.225   1.924  0.00  0.00    +0.151 HD
ENDROOT
BRANCH   7  11
ATOM     11  C   UNL     1      -1.107   1.862   0.017  0.00  0.00    +0.131 A 
ATOM     12  C   UNL     1      -0.013   1.076   0.008  0.00  0.00    +0.047 A 
ATOM     13  C   UNL     1       1.109   1.929   0.002  0.00  0.00    +0.050 A 
ATOM     14  C   UNL     1       0.632   3.202   0.013  0.00  0.00    +0.135 A 
ATOM     15  O   UNL     1      -0.713   3.146   0.026  0.00  0.00    -0.457 OA
BRANCH  14  16
ATOM     16  C   UNL     1       1.449   4.434   0.013  0.00  0.00    +0.019 A 
ATOM     17  C   UNL     1       0.830   5.686   0.025  0.00  0.00    +0.012 A 
ATOM     18  C   UNL     1       1.598   6.832   0.025  0.00  0.00    +0.005 A 
ATOM     19  C   UNL     1       2.979   6.744   0.012  0.00  0.00    -0.032 A 
ATOM     20  C   UNL     1       3.599   5.506  -0.000  0.00  0.00    +0.045 A 
ATOM     21  C   UNL     1       2.842   4.351   0.005  0.00  0.00    +0.031 A 
ATOM     22 CL   UNL     1       5.332   5.406  -0.016  0.00  0.00    -0.083 Cl
ATOM     23  C   UNL     1       3.811   8.000   0.012  0.00  0.00    +0.045 C 
ENDBRANCH  14  16
ENDBRANCH   7  11
BRANCH   1  24
ATOM     24  C   UNL     1      -2.380   0.645  -2.419  0.00  0.00    +0.339 C 
ATOM     25  O   UNL     1      -2.799   0.669  -3.562  0.00  0.00    -0.245 OA
BRANCH  24  26
ATOM     26  O   UNL     1      -1.292  -0.093  -2.115  0.00  0.00    -0.462 OA
BRANCH  26  28
ATOM     27  C   UNL     1       0.526  -1.591  -2.649  0.00  0.00    +0.048 C 
ATOM     28  C   UNL     1      -0.683  -0.821  -3.182  0.00  0.00    +0.229 C 
ENDBRANCH  26  28
ENDBRANCH  24  26
ENDBRANCH   1  24
TORSDOF 5
