REMARK  Name = ZINC22800472
REMARK  11 active torsions:
REMARK  status: ('A' for Active; 'I' for Inactive)
REMARK    1  A    between atoms: C_1  and  C_2
REMARK    2  A    between atoms: C_6  and  N_9
REMARK    3  A    between atoms: C_7  and  C_8
REMARK    4  A    between atoms: C_10  and  C_12
REMARK    5  A    between atoms: C_12  and  N_13
REMARK    6  A    between atoms: N_16  and  C_19
REMARK    7  A    between atoms: C_19  and  C_20
REMARK    8  A    between atoms: N_22  and  C_23
REMARK    9  A    between atoms: C_30  and  C_34
REMARK   10  A    between atoms: C_31  and  C_32
REMARK   11  A    between atoms: C_31  and  C_33
REMARK                            x       y       z     vdW  Elec       q    Type
REMARK                         _______ _______ _______ _____ _____    ______ ____
ROOT
ATOM      1  N   UNL     1       0.787  -0.637   1.771  0.00  0.00    -0.298 NA
ATOM      2  C   UNL     1      -0.198  -0.259   0.747  0.00  0.00    +0.066 C 
ATOM      3  C   UNL     1      -0.238   1.266   0.622  0.00  0.00    -0.063 C 
ATOM      4  N   UNL     1       1.100   1.762   0.270  0.00  0.00    +0.387 N 
ATOM      5  C   UNL     1       2.084   1.383   1.293  0.00  0.00    -0.063 C 
ATOM      6  C   UNL     1       2.125  -0.142   1.419  0.00  0.00    +0.066 C 
ATOM      7  H   UNL     1       1.398   1.291  -0.679  0.00  0.00    -0.081 HD
ENDROOT
BRANCH   1   8
ATOM      8  C   UNL     1       0.801  -2.092   1.975  0.00  0.00    +0.180 C 
BRANCH   8  10
ATOM      9  N   UNL     1      -0.702  -3.818   2.913  0.00  0.00    -0.284 N 
ATOM     10  C   UNL     1      -0.512  -2.528   2.573  0.00  0.00    +0.231 C 
ATOM     11  O   UNL     1      -1.397  -1.718   2.749  0.00  0.00    -0.274 OA
ATOM     12  H   UNL     1       0.125  -4.538   2.824  0.00  0.00    +0.155 HD
BRANCH   9  18
ATOM     13  C   UNL     1      -3.999  -7.417   3.506  0.00  0.00    +0.044 C 
ATOM     14  C   UNL     1      -3.575  -5.981   3.679  0.00  0.00    -0.046 A 
ATOM     15  C   UNL     1      -4.423  -5.081   4.299  0.00  0.00    +0.004 A 
ATOM     16  C   UNL     1      -4.038  -3.763   4.460  0.00  0.00    +0.002 A 
ATOM     17  C   UNL     1      -2.805  -3.341   4.002  0.00  0.00    +0.023 A 
ATOM     18  C   UNL     1      -1.952  -4.242   3.378  0.00  0.00    +0.037 A 
ATOM     19  C   UNL     1      -2.344  -5.564   3.213  0.00  0.00    -0.026 A 
ATOM     20  C   UNL     1      -1.424  -6.545   2.532  0.00  0.00    +0.046 C 
ENDBRANCH   9  18
ENDBRANCH   8  10
ENDBRANCH   1   8
BRANCH   4  21
ATOM     21  C   UNL     1       1.086   3.216   0.066  0.00  0.00    +0.019 C 
BRANCH  21  22
ATOM     22  C   UNL     1       0.276   3.543  -1.162  0.00  0.00    +0.197 C 
ATOM     23  O   UNL     1      -0.237   2.652  -1.806  0.00  0.00    -0.278 OA
ATOM     24  N   UNL     1       0.120   4.826  -1.545  0.00  0.00    -0.313 N 
ATOM     25  H   UNL     1       0.585   5.634  -0.962  0.00  0.00    +0.149 HD
BRANCH  24  26
ATOM     26  C   UNL     1      -0.667   5.144  -2.739  0.00  0.00    +0.080 C 
ATOM     27  C   UNL     1       0.224   5.096  -4.001  0.00  0.00    +0.027 C 
ATOM     28  C   UNL     1       0.164   6.542  -4.581  0.00  0.00    -0.003 C 
ATOM     29  C   UNL     1      -1.289   6.683  -5.129  0.00  0.00    +0.005 C 
ATOM     30  C   UNL     1      -2.180   6.731  -3.867  0.00  0.00    +0.009 C 
ATOM     31  C   UNL     1      -1.181   6.615  -2.675  0.00  0.00    -0.008 C 
ATOM     32  C   UNL     1       0.058   7.381  -3.259  0.00  0.00    -0.025 C 
ATOM     33  C   UNL     1       1.298   7.221  -2.377  0.00  0.00    +0.012 C 
ATOM     34  C   UNL     1      -0.254   8.852  -3.537  0.00  0.00    +0.012 C 
ATOM     35  C   UNL     1      -1.687   7.088  -1.311  0.00  0.00    +0.013 C 
ENDBRANCH  24  26
ENDBRANCH  21  22
ENDBRANCH   4  21
TORSDOF 6
