REMARK  Name = ZINC36531052
REMARK  10 active torsions:
REMARK  status: ('A' for Active; 'I' for Inactive)
REMARK    1  A    between atoms: C_1  and  N_2
REMARK    2  A    between atoms: N_2  and  C_3
REMARK    3  A    between atoms: C_3  and  C_5
REMARK    4  A    between atoms: C_3  and  C_17
REMARK    5  A    between atoms: C_14  and  O_15
REMARK    6  A    between atoms: O_15  and  C_16
REMARK    7  A    between atoms: N_19  and  C_20
REMARK    8  A    between atoms: C_26  and  C_28
REMARK    9  A    between atoms: C_29  and  O_35
REMARK   10  A    between atoms: C_33  and  O_34
REMARK                            x       y       z     vdW  Elec       q    Type
REMARK                         _______ _______ _______ _____ _____    ______ ____
ROOT
ATOM      1  C   UNL     1       0.135  -0.742   1.261  0.00  0.00    +0.196 C 
ENDROOT
BRANCH   1   2
ATOM      2  C   UNL     1       1.368  -0.274   1.989  0.00  0.00    +0.031 A 
ATOM      3  C   UNL     1       2.301  -1.208   2.469  0.00  0.00    -0.009 A 
ATOM      4  C   UNL     1       2.112  -2.589   2.285  0.00  0.00    +0.009 A 
ATOM      5  C   UNL     1       3.037  -3.465   2.763  0.00  0.00    +0.001 A 
ATOM      6  C   UNL     1       4.172  -3.015   3.435  0.00  0.00    +0.001 A 
ATOM      7  C   UNL     1       4.389  -1.686   3.632  0.00  0.00    +0.008 A 
ATOM      8  C   UNL     1       3.456  -0.750   3.152  0.00  0.00    -0.017 A 
ATOM      9  C   UNL     1       3.647   0.630   3.337  0.00  0.00    +0.012 A 
ATOM     10  C   UNL     1       2.726   1.509   2.860  0.00  0.00    +0.046 A 
ATOM     11  C   UNL     1       1.588   1.060   2.182  0.00  0.00    +0.126 A 
BRANCH  11  12
ATOM     12  O   UNL     1       0.687   1.962   1.712  0.00  0.00    -0.495 OA
ATOM     13  C   UNL     1       0.972   3.343   1.944  0.00  0.00    +0.277 C 
ENDBRANCH  11  12
ENDBRANCH   1   2
BRANCH   1  15
ATOM     14  C   UNL     1       0.082   1.176  -0.400  0.00  0.00    +0.133 C 
ATOM     15  N   UNL     1       0.172  -0.260  -0.122  0.00  0.00    -0.285 N 
ATOM     16  C   UNL     1       0.289  -1.137  -1.139  0.00  0.00    +0.254 C 
ATOM     17  O   UNL     1       0.364  -2.329  -0.908  0.00  0.00    -0.270 OA
BRANCH  16  18
ATOM     18  C   UNL     1       0.327  -0.652  -2.529  0.00  0.00    +0.119 A 
ATOM     19  C   UNL     1       1.553  -0.337  -3.134  0.00  0.00    +0.133 A 
ATOM     20  C   UNL     1       1.577   0.117  -4.442  0.00  0.00    +0.046 A 
ATOM     21  C   UNL     1       0.399   0.261  -5.151  0.00  0.00    +0.007 A 
ATOM     22  C   UNL     1      -0.815  -0.046  -4.564  0.00  0.00    +0.046 A 
ATOM     23  C   UNL     1      -0.862  -0.507  -3.259  0.00  0.00    +0.133 A 
BRANCH  23  24
ATOM     24  O   UNL     1      -2.053  -0.814  -2.687  0.00  0.00    -0.506 OA
ATOM     25  H   UNL     1      -2.474  -0.071  -2.233  0.00  0.00    +0.292 HD
ENDBRANCH  23  24
BRANCH  19  26
ATOM     26  O   UNL     1       2.710  -0.477  -2.440  0.00  0.00    -0.506 OA
ATOM     27  H   UNL     1       3.118  -1.350  -2.527  0.00  0.00    +0.292 HD
ENDBRANCH  19  26
ENDBRANCH  16  18
ENDBRANCH   1  15
BRANCH   1  28
ATOM     28  C   UNL     1      -1.091  -0.199   1.949  0.00  0.00    +0.238 C 
ATOM     29  O   UNL     1      -1.858   0.520   1.344  0.00  0.00    -0.273 OA
ATOM     30  N   UNL     1      -1.335  -0.512   3.237  0.00  0.00    -0.311 N 
ATOM     31  H   UNL     1      -0.722  -1.087   3.721  0.00  0.00    +0.149 HD
BRANCH  30  32
ATOM     32  C   UNL     1      -2.527   0.015   3.906  0.00  0.00    +0.073 C 
ATOM     33  C   UNL     1      -2.227   1.412   4.455  0.00  0.00    +0.022 C 
ATOM     34  C   UNL     1      -3.472   1.963   5.154  0.00  0.00    +0.002 C 
ATOM     35  C   UNL     1      -3.863   1.035   6.306  0.00  0.00    +0.000 C 
ATOM     36  C   UNL     1      -4.163  -0.361   5.756  0.00  0.00    +0.002 C 
ATOM     37  C   UNL     1      -2.919  -0.913   5.058  0.00  0.00    +0.022 C 
ENDBRANCH  30  32
ENDBRANCH   1  28
TORSDOF 8
