REMARK  Name = ZINC22864335
REMARK  12 active torsions:
REMARK  status: ('A' for Active; 'I' for Inactive)
REMARK    1  A    between atoms: C_1  and  C_2
REMARK    2  A    between atoms: C_11  and  N_32
REMARK    3  A    between atoms: C_13  and  S_15
REMARK    4  A    between atoms: S_15  and  C_16
REMARK    5  A    between atoms: C_16  and  C_17
REMARK    6  A    between atoms: N_19  and  C_20
REMARK    7  A    between atoms: C_22  and  O_30
REMARK    8  A    between atoms: C_23  and  O_28
REMARK    9  A    between atoms: C_24  and  O_26
REMARK   10  A    between atoms: O_26  and  C_27
REMARK   11  A    between atoms: O_28  and  C_29
REMARK   12  A    between atoms: O_30  and  C_31
REMARK                            x       y       z     vdW  Elec       q    Type
REMARK                         _______ _______ _______ _____ _____    ______ ____
ROOT
ATOM      1  S   UNL     1       7.444   4.974   0.642  0.00  0.00    -0.077 S 
ENDROOT
BRANCH   1  13
ATOM      2  C   UNL     1      -0.412  -1.121  -1.625  0.00  0.00    +0.008 C 
ATOM      3  C   UNL     1       0.944  -0.422  -1.503  0.00  0.00    -0.009 C 
ATOM      4  C   UNL     1       1.643  -0.869  -0.216  0.00  0.00    +0.008 C 
ATOM      5  C   UNL     1       3.089  -0.373  -0.213  0.00  0.00    +0.037 C 
ATOM      6  C   UNL     1       3.098   1.131  -0.474  0.00  0.00    -0.025 A 
ATOM      7  C   UNL     1       2.023   1.738  -1.025  0.00  0.00    -0.004 A 
ATOM      8  S   UNL     1       2.465   3.454  -1.143  0.00  0.00    -0.073 S 
ATOM      9  C   UNL     1       4.087   3.356  -0.457  0.00  0.00    +0.115 A 
ATOM     10  C   UNL     1       4.235   1.979  -0.154  0.00  0.00    +0.051 A 
ATOM     11  C   UNL     1       5.471   1.575   0.426  0.00  0.00    +0.129 A 
ATOM     12  N   UNL     1       6.365   2.541   0.626  0.00  0.00    -0.207 NA
ATOM     13  C   UNL     1       6.160   3.812   0.317  0.00  0.00    +0.191 A 
ATOM     14  N   UNL     1       5.024   4.255  -0.229  0.00  0.00    -0.214 NA
ATOM     15  C   UNL     1       0.736   1.098  -1.446  0.00  0.00    +0.046 C 
BRANCH  11  16
ATOM     16  N   UNL     1       5.727   0.258   0.764  0.00  0.00    -0.343 N 
ATOM     17  H   UNL     1       6.694  -0.017   1.211  0.00  0.00    +0.144 HD
ATOM     18  H   UNL     1       4.964  -0.513   0.586  0.00  0.00    +0.144 HD
ENDBRANCH  11  16
ENDBRANCH   1  13
BRANCH   1  19
ATOM     19  C   UNL     1       8.693   3.872   1.351  0.00  0.00    +0.173 C 
BRANCH  19  20
ATOM     20  C   UNL     1       9.918   4.670   1.716  0.00  0.00    +0.227 C 
ATOM     21  O   UNL     1       9.944   5.866   1.516  0.00  0.00    -0.275 OA
ATOM     22  N   UNL     1      10.985   4.054   2.263  0.00  0.00    -0.285 N 
ATOM     23  H   UNL     1      10.932   2.985   2.518  0.00  0.00    +0.155 HD
BRANCH  22  24
ATOM     24  C   UNL     1      12.160   4.776   2.509  0.00  0.00    +0.041 A 
ATOM     25  C   UNL     1      13.396   4.161   2.358  0.00  0.00    +0.073 A 
ATOM     26  C   UNL     1      14.559   4.875   2.595  0.00  0.00    +0.167 A 
ATOM     27  C   UNL     1      14.489   6.205   2.996  0.00  0.00    +0.204 A 
ATOM     28  C   UNL     1      13.251   6.817   3.152  0.00  0.00    +0.167 A 
ATOM     29  C   UNL     1      12.088   6.103   2.908  0.00  0.00    +0.073 A 
BRANCH  28  30
ATOM     30  O   UNL     1      13.181   8.118   3.544  0.00  0.00    -0.491 OA
ATOM     31  C   UNL     1      11.876   8.683   3.685  0.00  0.00    +0.277 C 
ENDBRANCH  28  30
BRANCH  27  32
ATOM     32  O   UNL     1      15.631   6.906   3.234  0.00  0.00    -0.488 OA
ATOM     33  C   UNL     1      16.147   6.872   4.566  0.00  0.00    +0.277 C 
ENDBRANCH  27  32
BRANCH  26  34
ATOM     34  O   UNL     1      15.770   4.275   2.442  0.00  0.00    -0.491 OA
ATOM     35  C   UNL     1      15.767   2.907   2.028  0.00  0.00    +0.277 C 
ENDBRANCH  26  34
ENDBRANCH  22  24
ENDBRANCH  19  20
ENDBRANCH   1  19
TORSDOF 8
