REMARK  Name = ZINC40707639
REMARK  7 active torsions:
REMARK  status: ('A' for Active; 'I' for Inactive)
REMARK    1  A    between atoms: C_1  and  C_2
REMARK    2  A    between atoms: C_2  and  C_3
REMARK    3  A    between atoms: C_3  and  N_4
REMARK    4  A    between atoms: C_6  and  N_24
REMARK    5  A    between atoms: C_7  and  N_11
REMARK    6  A    between atoms: C_14  and  C_17
REMARK    7  A    between atoms: C_17  and  C_18
REMARK                            x       y       z     vdW  Elec       q    Type
REMARK                         _______ _______ _______ _____ _____    ______ ____
ROOT
ATOM      1  N   UNL     1      -3.631  -1.927  -2.296  0.00  0.00    -0.327 N 
ATOM      2  C   UNL     1      -3.706  -2.674  -1.127  0.00  0.00    +0.145 A 
ATOM      3  C   UNL     1      -3.781  -4.067  -1.179  0.00  0.00    +0.105 A 
ATOM      4  C   UNL     1      -3.854  -4.769   0.025  0.00  0.00    +0.147 A 
ATOM      5  N   UNL     1      -3.850  -4.089   1.169  0.00  0.00    -0.219 NA
ATOM      6  C   UNL     1      -3.778  -2.774   1.175  0.00  0.00    +0.225 A 
ATOM      7  N   UNL     1      -3.702  -2.073   0.061  0.00  0.00    -0.219 NA
ATOM      8  H   UNL     1      -3.635  -2.373  -3.158  0.00  0.00    +0.148 HD
ENDROOT
BRANCH   4   9
ATOM      9  N   UNL     1      -3.930  -6.157   0.029  0.00  0.00    -0.314 N 
ATOM     10  C   UNL     1      -2.715  -6.973   0.151  0.00  0.00    +0.107 C 
ATOM     11  C   UNL     1      -2.893  -7.953   1.315  0.00  0.00    +0.023 C 
ATOM     12  C   UNL     1      -4.175  -8.762   1.104  0.00  0.00    -0.004 C 
ATOM     13  C   UNL     1      -5.379  -7.817   1.079  0.00  0.00    +0.023 C 
ATOM     14  C   UNL     1      -5.229  -6.835  -0.082  0.00  0.00    +0.107 C 
BRANCH  12  15
ATOM     15  C   UNL     1      -4.339  -9.766   2.247  0.00  0.00    +0.038 C 
BRANCH  15  16
ATOM     16  C   UNL     1      -5.533 -10.645   1.976  0.00  0.00    -0.047 A 
ATOM     17  C   UNL     1      -6.784 -10.269   2.429  0.00  0.00    +0.003 A 
ATOM     18  C   UNL     1      -7.879 -11.076   2.181  0.00  0.00    +0.000 A 
ATOM     19  C   UNL     1      -7.723 -12.257   1.480  0.00  0.00    +0.000 A 
ATOM     20  C   UNL     1      -6.472 -12.632   1.028  0.00  0.00    +0.000 A 
ATOM     21  C   UNL     1      -5.378 -11.824   1.272  0.00  0.00    +0.003 A 
ENDBRANCH  15  16
ENDBRANCH  12  15
ENDBRANCH   4   9
BRANCH   3  22
ATOM     22  N   UNL     1      -3.783  -4.744  -2.410  0.00  0.00    -0.353 N 
ATOM     23  H   UNL     1      -3.823  -4.242  -3.239  0.00  0.00    +0.143 HD
ATOM     24  H   UNL     1      -3.744  -5.713  -2.431  0.00  0.00    +0.143 HD
ENDBRANCH   3  22
BRANCH   1  25
ATOM     25  C   UNL     1      -3.547  -0.466  -2.228  0.00  0.00    +0.103 C 
BRANCH  25  27
ATOM     26  C   UNL     1      -3.388   1.633  -3.573  0.00  0.00    +0.005 C 
ATOM     27  C   UNL     1      -3.476   0.108  -3.644  0.00  0.00    +0.015 C 
ENDBRANCH  25  27
ENDBRANCH   1  25
TORSDOF 6
