REMARK  Name = ZINC24905735
REMARK  6 active torsions:
REMARK  status: ('A' for Active; 'I' for Inactive)
REMARK    1  A    between atoms: C_1  and  O_2
REMARK    2  A    between atoms: O_2  and  C_3
REMARK    3  A    between atoms: C_3  and  C_5
REMARK    4  A    between atoms: C_8  and  C_11
REMARK    5  A    between atoms: C_11  and  N_12
REMARK    6  A    between atoms: C_22  and  C_29
REMARK                            x       y       z     vdW  Elec       q    Type
REMARK                         _______ _______ _______ _____ _____    ______ ____
ROOT
ATOM      1  N   UNL     1      -5.606  11.139  -1.793  0.00  0.00    +0.383 N 
ATOM      2  C   UNL     1      -5.400   9.747  -2.214  0.00  0.00    -0.075 C 
ATOM      3  C   UNL     1      -3.997   9.291  -1.806  0.00  0.00    +0.025 C 
ATOM      4  C   UNL     1      -3.847   9.416  -0.289  0.00  0.00    +0.099 C 
ATOM      5  C   UNL     1      -4.116  10.862   0.131  0.00  0.00    +0.025 C 
ATOM      6  C   UNL     1      -5.516  11.272  -0.334  0.00  0.00    -0.075 C 
ATOM      7  N   UNL     1      -2.502   9.020   0.115  0.00  0.00    -0.323 N 
ATOM      8  C   UNL     1      -2.044   7.705   0.067  0.00  0.00    +0.055 A 
ATOM      9  C   UNL     1      -0.667   7.477   0.048  0.00  0.00    +0.025 A 
ATOM     10  C   UNL     1      -0.174   6.193   0.033  0.00  0.00    +0.011 A 
ATOM     11  C   UNL     1      -1.050   5.106   0.036  0.00  0.00    -0.009 A 
ATOM     12  C   UNL     1      -2.428   5.332   0.044  0.00  0.00    +0.039 A 
ATOM     13  C   UNL     1      -2.912   6.620   0.060  0.00  0.00    +0.127 A 
ATOM     14  S   UNL     1      -4.658   6.900   0.059  0.00  0.00    +0.062 S 
ATOM     15  O   UNL     1      -5.112   6.681  -1.270  0.00  0.00    -0.153 OA
ATOM     16  O   UNL     1      -5.191   6.206   1.179  0.00  0.00    -0.153 OA
ATOM     17  N   UNL     1      -4.827   8.531   0.369  0.00  0.00    -0.167 NA
ATOM     18  H   UNL     1      -1.792   9.776   0.480  0.00  0.00    +0.148 HD
ATOM     19  H   UNL     1      -5.499   8.933   1.141  0.00  0.00    +0.150 HD
ATOM     20  H   UNL     1      -4.801  11.745  -2.235  0.00  0.00    -0.081 HD
ENDROOT
BRANCH  11  21
ATOM     21  C   UNL     1      -0.522   3.725   0.026  0.00  0.00    +0.019 A 
ATOM     22  C   UNL     1       0.778   3.298   0.012  0.00  0.00    +0.016 A 
ATOM     23  C   UNL     1       1.031   1.943   0.003  0.00  0.00    +0.008 A 
ATOM     24  C   UNL     1      -0.013   1.076   0.008  0.00  0.00    +0.046 A 
ATOM     25  S   UNL     1      -1.416   2.179   0.019  0.00  0.00    -0.097 S 
ENDBRANCH  11  21
BRANCH   1  26
ATOM     26  C   UNL     1      -6.888  11.655  -2.291  0.00  0.00    -0.043 C 
BRANCH  26  30
ATOM     27  C   UNL     1      -7.082  15.874  -1.622  0.00  0.00    +0.059 A 
ATOM     28  C   UNL     1      -6.551  15.377  -2.814  0.00  0.00    +0.015 A 
ATOM     29  C   UNL     1      -6.491  14.015  -3.023  0.00  0.00    +0.002 A 
ATOM     30  C   UNL     1      -6.956  13.142  -2.055  0.00  0.00    -0.064 A 
ATOM     31  C   UNL     1      -7.487  13.628  -0.874  0.00  0.00    +0.002 A 
ATOM     32  C   UNL     1      -7.548  14.988  -0.650  0.00  0.00    +0.015 A 
BRANCH  27  33
ATOM     33  C   UNL     1      -7.148  17.332  -1.391  0.00  0.00    +0.339 C 
ATOM     34  O   UNL     1      -6.741  18.101  -2.239  0.00  0.00    -0.245 OA
BRANCH  33  36
ATOM     35  C   UNL     1      -7.694  19.252  -0.082  0.00  0.00    +0.280 C 
ATOM     36  O   UNL     1      -7.660  17.809  -0.240  0.00  0.00    -0.464 OA
ENDBRANCH  33  36
ENDBRANCH  27  33
ENDBRANCH  26  30
ENDBRANCH   1  26
TORSDOF 5
