REMARK  Name = ZINC16828526
REMARK  9 active torsions:
REMARK  status: ('A' for Active; 'I' for Inactive)
REMARK    1  A    between atoms: C_1  and  C_2
REMARK    2  A    between atoms: C_2  and  C_3
REMARK    3  A    between atoms: C_6  and  C_9
REMARK    4  A    between atoms: C_13  and  S_15
REMARK    5  A    between atoms: S_15  and  C_16
REMARK    6  A    between atoms: C_16  and  C_18
REMARK    7  A    between atoms: C_16  and  C_19
REMARK    8  A    between atoms: N_21  and  C_22
REMARK    9  A    between atoms: C_23  and  C_32
REMARK                            x       y       z     vdW  Elec       q    Type
REMARK                         _______ _______ _______ _____ _____    ______ ____
ROOT
ATOM      1  C   UNL     1       1.092  -2.888   8.601  0.00  0.00    +0.137 C 
ATOM      2  C   UNL     1       0.341  -3.872   7.702  0.00  0.00    +0.029 C 
ENDROOT
BRANCH   1   3
ATOM      3  C   UNL     1       0.742  -3.157  10.042  0.00  0.00    +0.231 C 
ATOM      4  O   UNL     1       1.500  -3.793  10.742  0.00  0.00    -0.274 OA
ATOM      5  N   UNL     1      -0.415  -2.689  10.553  0.00  0.00    -0.278 N 
ATOM      6  H   UNL     1      -1.021  -2.180   9.993  0.00  0.00    +0.155 HD
BRANCH   5   7
ATOM      7  C   UNL     1      -0.737  -2.936  11.880  0.00  0.00    +0.090 A 
ATOM      8  C   UNL     1      -1.872  -2.543  12.568  0.00  0.00    +0.084 A 
ATOM      9  C   UNL     1      -1.976  -2.931  13.967  0.00  0.00    -0.018 A 
ATOM     10  C   UNL     1      -0.918  -3.637  14.419  0.00  0.00    -0.004 A 
ATOM     11  S   UNL     1       0.156  -3.787  13.019  0.00  0.00    -0.077 S 
ATOM     12  C   UNL     1      -0.696  -4.169  15.800  0.00  0.00    +0.043 C 
ATOM     13  C   UNL     1      -1.959  -4.908  16.264  0.00  0.00    +0.005 C 
ATOM     14  C   UNL     1      -2.884  -3.908  16.951  0.00  0.00    +0.001 C 
ATOM     15  C   UNL     1      -2.747  -2.531  16.303  0.00  0.00    +0.005 C 
ATOM     16  C   UNL     1      -3.174  -2.586  14.840  0.00  0.00    +0.037 C 
BRANCH   8  17
ATOM     17  C   UNL     1      -2.904  -1.785  11.927  0.00  0.00    +0.102 C 
ATOM     18  N   UNL     1      -3.723  -1.183  11.419  0.00  0.00    -0.191 NA
ENDBRANCH   8  17
ENDBRANCH   5   7
ENDBRANCH   1   3
BRANCH   1  19
ATOM     19  S   UNL     1       2.878  -3.095   8.365  0.00  0.00    -0.074 S 
BRANCH  19  24
ATOM     20  C   UNL     1       2.787  -1.913   4.668  0.00  0.00    +0.182 A 
ATOM     21  N   UNL     1       4.079  -2.142   4.746  0.00  0.00    -0.152 NA
ATOM     22  H   UNL     1       5.197  -2.845   6.419  0.00  0.00    +0.191 HD
ATOM     23  N   UNL     1       4.335  -2.594   6.051  0.00  0.00    -0.253 N 
ATOM     24  C   UNL     1       3.146  -2.609   6.692  0.00  0.00    +0.185 A 
ATOM     25  N   UNL     1       2.224  -2.192   5.852  0.00  0.00    -0.201 NA
BRANCH  20  29
ATOM     26  C   UNL     1       0.731  -0.503   1.223  0.00  0.00    -0.048 A 
ATOM     27  C   UNL     1       2.098  -0.709   1.173  0.00  0.00    +0.004 A 
ATOM     28  C   UNL     1       2.770  -1.166   2.288  0.00  0.00    +0.012 A 
ATOM     29  C   UNL     1       2.070  -1.421   3.466  0.00  0.00    +0.021 A 
ATOM     30  C   UNL     1       0.693  -1.212   3.510  0.00  0.00    +0.012 A 
ATOM     31  C   UNL     1       0.031  -0.749   2.391  0.00  0.00    +0.004 A 
BRANCH  26  33
ATOM     32  C   UNL     1      -0.019   1.526   0.010  0.00  0.00    +0.009 C 
ATOM     33  C   UNL     1       0.002  -0.004   0.002  0.00  0.00    +0.032 C 
ENDBRANCH  26  33
ENDBRANCH  20  29
ENDBRANCH  19  24
ENDBRANCH   1  19
TORSDOF 7
