REMARK  Name = ZINC46559759
REMARK  6 active torsions:
REMARK  status: ('A' for Active; 'I' for Inactive)
REMARK    1  A    between atoms: C_5  and  C_7
REMARK    2  A    between atoms: C_9  and  C_12
REMARK    3  A    between atoms: C_12  and  O_13
REMARK    4  A    between atoms: O_13  and  C_14
REMARK    5  A    between atoms: C_14  and  C_16
REMARK    6  A    between atoms: C_17  and  C_18
REMARK                            x       y       z     vdW  Elec       q    Type
REMARK                         _______ _______ _______ _____ _____    ______ ____
ROOT
ATOM      1  O   UNL     1       2.950  -6.525  -0.054  0.00  0.00    -0.455 OA
ENDROOT
BRANCH   1   2
ATOM      2  C   UNL     1       3.917  -7.465  -0.065  0.00  0.00    +0.332 C 
ATOM      3  O   UNL     1       5.088  -7.134  -0.069  0.00  0.00    -0.246 OA
BRANCH   2   4
ATOM      4  C   UNL     1       3.570  -8.840  -0.071  0.00  0.00    +0.092 C 
ATOM      5  C   UNL     1       4.538  -9.781  -0.081  0.00  0.00    +0.020 C 
BRANCH   5   6
ATOM      6  C   UNL     1       4.178 -11.206  -0.087  0.00  0.00    +0.046 A 
ATOM      7  C   UNL     1       3.251 -11.703   0.838  0.00  0.00    +0.133 A 
ATOM      8  C   UNL     1       2.918 -13.043   0.824  0.00  0.00    +0.039 A 
ATOM      9  C   UNL     1       3.498 -13.895  -0.100  0.00  0.00    +0.006 A 
ATOM     10  C   UNL     1       4.414 -13.414  -1.017  0.00  0.00    +0.039 A 
ATOM     11  C   UNL     1       4.755 -12.075  -1.023  0.00  0.00    +0.133 A 
ATOM     12  F   UNL     1       5.647 -11.607  -1.924  0.00  0.00    -0.205 F 
ATOM     13  F   UNL     1       2.684 -10.873   1.742  0.00  0.00    -0.205 F 
ENDBRANCH   5   6
ENDBRANCH   2   4
ENDBRANCH   1   2
BRANCH   1  14
ATOM     14  C   UNL     1       3.373  -5.160  -0.049  0.00  0.00    +0.288 C 
BRANCH  14  17
ATOM     15  C   UNL     1       1.269  -2.143  -0.022  0.00  0.00    +0.127 A 
ATOM     16  N   UNL     1       2.314  -2.958  -0.031  0.00  0.00    -0.239 NA
ATOM     17  C   UNL     1       2.164  -4.260  -0.038  0.00  0.00    +0.086 A 
ATOM     18  C   UNL     1       0.914  -4.797  -0.035  0.00  0.00    +0.074 A 
ATOM     19  S   UNL     1      -0.083  -3.313  -0.015  0.00  0.00    -0.074 S 
BRANCH  15  24
ATOM     20  C   UNL     1      -0.017   1.379   0.010  0.00  0.00    +0.004 A 
ATOM     21  C   UNL     1       1.194   2.059   0.002  0.00  0.00    +0.020 A 
ATOM     22  C   UNL     1       2.375   1.341  -0.013  0.00  0.00    +0.111 A 
ATOM     23  N   UNL     1       2.367   0.023  -0.020  0.00  0.00    -0.253 NA
ATOM     24  C   UNL     1       1.231  -0.665  -0.013  0.00  0.00    +0.096 A 
ATOM     25  C   UNL     1       0.002  -0.004   0.002  0.00  0.00    +0.030 A 
ENDBRANCH  15  24
ENDBRANCH  14  17
ENDBRANCH   1  14
TORSDOF 6
