REMARK  Name = ZINC08770015
REMARK  6 active torsions:
REMARK  status: ('A' for Active; 'I' for Inactive)
REMARK    1  A    between atoms: C_1  and  C_2
REMARK    2  A    between atoms: C_5  and  C_8
REMARK    3  A    between atoms: C_11  and  C_13
REMARK    4  A    between atoms: C_11  and  O_17
REMARK    5  A    between atoms: C_20  and  C_23
REMARK    6  A    between atoms: C_27  and  O_29
REMARK                            x       y       z     vdW  Elec       q    Type
REMARK                         _______ _______ _______ _____ _____    ______ ____
ROOT
ATOM      1  C   UNL     1      -3.126  -5.681  -0.005  0.00  0.00    +0.071 C 
ATOM      2  N   UNL     1      -2.309  -4.684  -0.006  0.00  0.00    -0.179 NA
ATOM      3  N   UNL     1      -0.965  -5.050  -0.019  0.00  0.00    -0.160 N 
ATOM      4  C   UNL     1      -0.872  -6.518  -0.035  0.00  0.00    +0.256 C 
ATOM      5  C   UNL     1      -2.344  -6.975  -0.019  0.00  0.00    +0.124 C 
ATOM      6  C   UNL     1       0.108  -4.175  -0.023  0.00  0.00    +0.184 A 
ATOM      7  N   UNL     1       0.109  -2.853  -0.010  0.00  0.00    -0.223 NA
ATOM      8  C   UNL     1       1.242  -2.167  -0.022  0.00  0.00    +0.080 A 
ATOM      9  C   UNL     1       2.433  -2.839  -0.036  0.00  0.00    +0.077 A 
ATOM     10  S   UNL     1       1.859  -4.532  -0.041  0.00  0.00    -0.058 S 
ENDROOT
BRANCH   1  15
ATOM     11  C   UNL     1      -8.863  -5.271   0.047  0.00  0.00    +0.044 C 
ATOM     12  C   UNL     1      -7.359  -5.379   0.033  0.00  0.00    -0.050 A 
ATOM     13  C   UNL     1      -6.587  -4.231   0.033  0.00  0.00    +0.004 A 
ATOM     14  C   UNL     1      -5.211  -4.321   0.020  0.00  0.00    +0.010 A 
ATOM     15  C   UNL     1      -4.597  -5.576   0.008  0.00  0.00    -0.002 A 
ATOM     16  C   UNL     1      -5.383  -6.731   0.003  0.00  0.00    +0.010 A 
ATOM     17  C   UNL     1      -6.758  -6.625   0.021  0.00  0.00    +0.004 A 
ENDBRANCH   1  15
BRANCH   8  18
ATOM     18  C   UNL     1       1.219  -0.684  -0.013  0.00  0.00    +0.004 A 
ATOM     19  C   UNL     1       0.002  -0.004   0.002  0.00  0.00    +0.010 A 
ATOM     20  C   UNL     1      -0.017   1.376   0.010  0.00  0.00    +0.004 A 
ATOM     21  C   UNL     1       1.169   2.087   0.002  0.00  0.00    +0.045 A 
ATOM     22  C   UNL     1       2.385   1.418  -0.013  0.00  0.00    +0.117 A 
ATOM     23  C   UNL     1       2.413   0.033  -0.021  0.00  0.00    +0.055 A 
BRANCH  22  24
ATOM     24  O   UNL     1       3.548   2.121  -0.021  0.00  0.00    -0.507 OA
ATOM     25  H   UNL     1       3.875   2.329  -0.907  0.00  0.00    +0.292 HD
ENDBRANCH  22  24
ENDBRANCH   8  18
BRANCH   4  26
ATOM     26  C   UNL     1      -0.140  -7.025   1.210  0.00  0.00    +0.438 C 
ATOM     27  F   UNL     1      -0.821  -6.599   2.356  0.00  0.00    -0.166 F 
ATOM     28  F   UNL     1      -0.094  -8.423   1.188  0.00  0.00    -0.166 F 
ATOM     29  F   UNL     1       1.163  -6.515   1.225  0.00  0.00    -0.166 F 
ENDBRANCH   4  26
BRANCH   4  30
ATOM     30  O   UNL     1      -0.216  -6.968  -1.222  0.00  0.00    -0.363 OA
ATOM     31  H   UNL     1       0.693  -6.652  -1.313  0.00  0.00    +0.212 HD
ENDBRANCH   4  30
TORSDOF 5
