REMARK  Name = ZINC07238990
REMARK  6 active torsions:
REMARK  status: ('A' for Active; 'I' for Inactive)
REMARK    1  A    between atoms: C_4  and  C_7
REMARK    2  A    between atoms: C_7  and  C_8
REMARK    3  A    between atoms: C_7  and  N_55
REMARK    4  A    between atoms: N_16  and  C_19
REMARK    5  A    between atoms: C_22  and  C_28
REMARK    6  A    between atoms: C_24  and  N_25
REMARK                            x       y       z     vdW  Elec       q    Type
REMARK                         _______ _______ _______ _____ _____    ______ ____
ROOT
ATOM      1  C   UNL     1       4.016  -0.357   1.188  0.00  0.00    -0.058 C 
ATOM      2  C   UNL     1       2.740   0.488   1.171  0.00  0.00    +0.086 C 
ATOM      3  N   UNL     1       2.813   1.459   0.070  0.00  0.00    -0.332 N 
ATOM      4  C   UNL     1       2.962   0.775  -1.222  0.00  0.00    +0.086 C 
ATOM      5  C   UNL     1       4.238  -0.070  -1.205  0.00  0.00    -0.058 C 
ATOM      6  N   UNL     1       4.141  -1.056  -0.108  0.00  0.00    +0.389 N 
ATOM      7  H   UNL     1       3.308  -1.639  -0.255  0.00  0.00    -0.080 HD
ENDROOT
BRANCH   3   8
ATOM      8  C   UNL     1       1.702   2.294   0.067  0.00  0.00    +0.060 A 
ATOM      9  C   UNL     1       0.427   1.753  -0.076  0.00  0.00    +0.026 A 
ATOM     10  C   UNL     1      -0.675   2.577  -0.086  0.00  0.00    +0.015 A 
ATOM     11  C   UNL     1      -0.514   3.958   0.060  0.00  0.00    +0.039 A 
ATOM     12  C   UNL     1       0.767   4.498   0.203  0.00  0.00    +0.047 A 
ATOM     13  C   UNL     1       1.866   3.669   0.206  0.00  0.00    +0.148 A 
BRANCH  11  14
ATOM     14  C   UNL     1      -1.694   4.844   0.057  0.00  0.00    +0.242 C 
ATOM     15  O   UNL     1      -1.552   6.046   0.178  0.00  0.00    -0.270 OA
ATOM     16  N   UNL     1      -2.928   4.322  -0.082  0.00  0.00    -0.325 N 
ATOM     17  H   UNL     1      -3.041   3.364  -0.179  0.00  0.00    +0.145 HD
ATOM     18  H   UNL     1      -3.704   4.904  -0.084  0.00  0.00    +0.145 HD
ENDBRANCH  11  14
BRANCH  13  19
ATOM     19  N   UNL     1       3.223   4.240   0.357  0.00  0.00    +0.058 N 
ATOM     20  O   UNL     1       3.367   5.444   0.479  0.00  0.00    -0.126 OA
ATOM     21  O   UNL     1       4.195   3.507   0.360  0.00  0.00    -0.126 OA
ENDBRANCH  13  19
ENDBRANCH   3   8
BRANCH   6  22
ATOM     22  C   UNL     1       5.339  -1.923  -0.101  0.00  0.00    -0.007 C 
BRANCH  22  26
ATOM     23  C   UNL     1       4.989  -4.748   3.084  0.00  0.00    +0.000 A 
ATOM     24  C   UNL     1       6.194  -4.110   2.855  0.00  0.00    +0.000 A 
ATOM     25  C   UNL     1       6.307  -3.197   1.824  0.00  0.00    +0.002 A 
ATOM     26  C   UNL     1       5.215  -2.920   1.023  0.00  0.00    -0.057 A 
ATOM     27  C   UNL     1       4.009  -3.553   1.256  0.00  0.00    +0.002 A 
ATOM     28  C   UNL     1       3.897  -4.471   2.284  0.00  0.00    +0.000 A 
ENDBRANCH  22  26
BRANCH  22  29
ATOM     29  C   UNL     1       5.420  -2.656  -1.415  0.00  0.00    -0.057 A 
ATOM     30  C   UNL     1       4.283  -3.215  -1.967  0.00  0.00    +0.002 A 
ATOM     31  C   UNL     1       4.357  -3.883  -3.175  0.00  0.00    +0.000 A 
ATOM     32  C   UNL     1       5.570  -4.001  -3.827  0.00  0.00    +0.000 A 
ATOM     33  C   UNL     1       6.709  -3.447  -3.272  0.00  0.00    +0.000 A 
ATOM     34  C   UNL     1       6.634  -2.774  -2.067  0.00  0.00    +0.002 A 
ENDBRANCH  22  29
ENDBRANCH   6  22
TORSDOF 6
