REMARK  Name = ZINC12795187
REMARK  3 active torsions:
REMARK  status: ('A' for Active; 'I' for Inactive)
REMARK    1  A    between atoms: C_12  and  C_14
REMARK    2  A    between atoms: C_14  and  N_15
REMARK    3  A    between atoms: C_23  and  C_25
REMARK                            x       y       z     vdW  Elec       q    Type
REMARK                         _______ _______ _______ _____ _____    ______ ____
ROOT
ATOM      1  C   UNL     1      -3.371   6.931  -0.179  0.00  0.00    +0.022 A 
ATOM      2  C   UNL     1      -3.058   5.641   0.187  0.00  0.00    +0.030 A 
ATOM      3  C   UNL     1      -3.249   4.599  -0.722  0.00  0.00    +0.078 A 
ATOM      4  C   UNL     1      -3.762   4.885  -2.006  0.00  0.00    +0.066 A 
ATOM      5  C   UNL     1      -4.073   6.197  -2.358  0.00  0.00    +0.035 A 
ATOM      6  C   UNL     1      -3.875   7.210  -1.443  0.00  0.00    +0.042 A 
ATOM      7 CL   UNL     1      -4.260   8.847  -1.875  0.00  0.00    -0.084 Cl
ATOM      8  C   UNL     1      -3.951   3.765  -2.940  0.00  0.00    +0.259 A 
ATOM      9  O   UNL     1      -4.390   3.943  -4.061  0.00  0.00    -0.267 OA
ATOM     10  N   UNL     1      -3.619   2.527  -2.503  0.00  0.00    -0.309 N 
ATOM     11  H   UNL     1      -3.743   1.659  -3.166  0.00  0.00    +0.170 HD
ATOM     12  C   UNL     1      -3.131   2.345  -1.248  0.00  0.00    +0.125 A 
ATOM     13  N   UNL     1      -2.958   3.313  -0.401  0.00  0.00    -0.232 NA
ENDROOT
BRANCH  12  14
ATOM     14  C   UNL     1      -2.778   0.945  -0.816  0.00  0.00    +0.159 C 
BRANCH  14  15
ATOM     15  N   UNL     1      -2.381   0.955   0.599  0.00  0.00    -0.288 NA
ATOM     16  C   UNL     1      -3.463   1.475   1.446  0.00  0.00    +0.090 C 
ATOM     17  C   UNL     1      -3.177   1.090   2.908  0.00  0.00    +0.058 C 
ATOM     18  C   UNL     1      -1.745   1.410   3.190  0.00  0.00    -0.004 A 
ATOM     19  C   UNL     1      -0.776   1.696   2.272  0.00  0.00    -0.020 A 
ATOM     20  C   UNL     1       0.493   1.964   2.773  0.00  0.00    +0.013 A 
ATOM     21  C   UNL     1       0.716   1.938   4.107  0.00  0.00    +0.046 A 
ATOM     22  S   UNL     1      -0.901   1.517   4.743  0.00  0.00    -0.101 S 
ATOM     23  C   UNL     1      -1.127   1.696   0.788  0.00  0.00    +0.091 C 
BRANCH  23  24
ATOM     24  C   UNL     1      -0.006   1.020  -0.005  0.00  0.00    +0.011 C 
ATOM     25  C   UNL     1       0.452   1.697  -1.298  0.00  0.00    +0.006 C 
ATOM     26  C   UNL     1       1.348   1.730  -0.059  0.00  0.00    +0.006 C 
ENDBRANCH  23  24
ENDBRANCH  14  15
ENDBRANCH  12  14
TORSDOF 3
