REMARK  Name = ZINC03093094
REMARK  4 active torsions:
REMARK  status: ('A' for Active; 'I' for Inactive)
REMARK    1  A    between atoms: C_1  and  C_2
REMARK    2  A    between atoms: C_2  and  C_32
REMARK    3  A    between atoms: C_6  and  C_19
REMARK    4  A    between atoms: C_21  and  N_26
REMARK                            x       y       z     vdW  Elec       q    Type
REMARK                         _______ _______ _______ _____ _____    ______ ____
ROOT
ATOM      1  C   UNL     1      -3.081  -2.571  -3.298  0.00  0.00    +0.011 C 
ATOM      2  C   UNL     1      -2.750  -3.079  -1.894  0.00  0.00    -0.024 C 
ATOM      3  C   UNL     1      -2.022  -1.994  -1.101  0.00  0.00    +0.043 C 
ATOM      4  C   UNL     1      -2.909  -0.814  -0.802  0.00  0.00    -0.029 C 
ATOM      5  C   UNL     1      -4.263  -0.946  -0.866  0.00  0.00    +0.023 C 
ATOM      6  C   UNL     1      -5.182   0.249  -0.835  0.00  0.00    +0.138 C 
ATOM      7  N   UNL     1      -4.530   1.408  -0.240  0.00  0.00    -0.332 N 
ATOM      8  C   UNL     1      -3.155   1.550  -0.269  0.00  0.00    +0.036 A 
ATOM      9  C   UNL     1      -2.323   0.439  -0.484  0.00  0.00    +0.007 A 
ATOM     10  C   UNL     1      -0.877   0.645  -0.380  0.00  0.00    -0.009 A 
ATOM     11  C   UNL     1       0.060  -0.388  -0.362  0.00  0.00    +0.009 A 
ATOM     12  C   UNL     1       1.394  -0.115  -0.498  0.00  0.00    +0.001 A 
ATOM     13  C   UNL     1       1.855   1.195  -0.563  0.00  0.00    +0.001 A 
ATOM     14  C   UNL     1       0.982   2.234  -0.461  0.00  0.00    +0.008 A 
ATOM     15  C   UNL     1      -0.392   1.979  -0.318  0.00  0.00    -0.017 A 
ATOM     16  C   UNL     1      -1.284   3.042  -0.083  0.00  0.00    +0.010 A 
ATOM     17  C   UNL     1      -2.619   2.821  -0.047  0.00  0.00    +0.024 A 
ATOM     18  C   UNL     1      -4.872  -2.204  -1.016  0.00  0.00    +0.162 C 
ATOM     19  O   UNL     1      -6.084  -2.289  -1.033  0.00  0.00    -0.292 OA
ATOM     20  C   UNL     1      -4.040  -3.449  -1.154  0.00  0.00    +0.086 C 
ATOM     21  C   UNL     1      -1.855  -4.318  -2.002  0.00  0.00    +0.011 C 
ATOM     22  H   UNL     1      -5.073   2.104   0.189  0.00  0.00    +0.147 HD
ENDROOT
BRANCH   6  23
ATOM     23  C   UNL     1      -5.601   0.585  -2.243  0.00  0.00    +0.027 A 
ATOM     24  C   UNL     1      -4.775   1.346  -3.048  0.00  0.00    +0.042 A 
ATOM     25  C   UNL     1      -5.159   1.654  -4.340  0.00  0.00    +0.128 A 
ATOM     26  C   UNL     1      -6.370   1.201  -4.830  0.00  0.00    +0.051 A 
ATOM     27  C   UNL     1      -7.200   0.440  -4.030  0.00  0.00    +0.067 A 
ATOM     28  C   UNL     1      -6.814   0.125  -2.734  0.00  0.00    +0.198 A 
ATOM     29 BR   UNL     1      -8.856  -0.179  -4.701  0.00  0.00    -0.046 Br
ATOM     30  O   UNL     1      -7.626  -0.628  -1.946  0.00  0.00    -0.286 OA
BRANCH  25  31
ATOM     31  N   UNL     1      -4.272   2.469  -5.199  0.00  0.00    +0.056 N 
ATOM     32  O   UNL     1      -3.205   2.869  -4.768  0.00  0.00    -0.126 OA
ATOM     33  O   UNL     1      -4.609   2.741  -6.338  0.00  0.00    -0.126 OA
ENDBRANCH  25  31
ENDBRANCH   6  23
TORSDOF 2
