REMARK  Name = ZINC62869226
REMARK  7 active torsions:
REMARK  status: ('A' for Active; 'I' for Inactive)
REMARK    1  A    between atoms: C_1  and  C_2
REMARK    2  A    between atoms: C_2  and  C_3
REMARK    3  A    between atoms: C_3  and  C_9
REMARK    4  A    between atoms: C_14  and  O_21
REMARK    5  A    between atoms: C_15  and  O_19
REMARK    6  A    between atoms: O_19  and  C_20
REMARK    7  A    between atoms: O_21  and  C_22
REMARK                            x       y       z     vdW  Elec       q    Type
REMARK                         _______ _______ _______ _____ _____    ______ ____
ROOT
ATOM      1  C   UNL     1       2.131   0.025  -1.269  0.00  0.00    +0.113 A 
ATOM      2  N   UNL     1       2.486   1.309  -1.551  0.00  0.00    -0.341 N 
ATOM      3  H   UNL     1       1.883   2.036  -1.775  0.00  0.00    +0.167 HD
ATOM      4  C   UNL     1       3.863   1.385  -1.458  0.00  0.00    +0.070 A 
ATOM      5  C   UNL     1       4.785   2.409  -1.631  0.00  0.00    +0.077 A 
ATOM      6  C   UNL     1       6.133   2.156  -1.462  0.00  0.00    +0.164 A 
ATOM      7  C   UNL     1       6.572   0.876  -1.117  0.00  0.00    +0.164 A 
ATOM      8  C   UNL     1       5.665  -0.148  -0.942  0.00  0.00    +0.079 A 
ATOM      9  C   UNL     1       4.299   0.096  -1.111  0.00  0.00    +0.093 A 
ATOM     10  N   UNL     1       3.191  -0.683  -1.007  0.00  0.00    -0.232 NA
ENDROOT
BRANCH   1  11
ATOM     11  C   UNL     1       0.718  -0.497  -1.257  0.00  0.00    +0.013 C 
ATOM     12  C   UNL     1      -0.025   0.005  -2.498  0.00  0.00    +0.011 C 
ATOM     13  C   UNL     1      -1.434  -0.595  -2.515  0.00  0.00    -0.018 C 
ATOM     14  C   UNL     1      -1.333  -2.122  -2.478  0.00  0.00    -0.083 C 
ATOM     15  N   UNL     1      -0.636  -2.540  -1.255  0.00  0.00    +0.380 N 
ATOM     16  C   UNL     1       0.739  -2.027  -1.266  0.00  0.00    -0.068 C 
ATOM     17  H   UNL     1      -1.123  -2.175  -0.450  0.00  0.00    -0.086 HD
ATOM     18  H   UNL     1      -0.618  -3.547  -1.207  0.00  0.00    -0.086 HD
BRANCH  11  20
ATOM     19  C   UNL     1      -0.019   1.526   0.010  0.00  0.00    +0.005 C 
ATOM     20  C   UNL     1       0.002  -0.004   0.002  0.00  0.00    +0.009 C 
ENDBRANCH  11  20
ENDBRANCH   1  11
BRANCH   7  21
ATOM     21  O   UNL     1       7.901   0.638  -0.953  0.00  0.00    -0.491 OA
ATOM     22  C   UNL     1       8.283  -0.693  -0.600  0.00  0.00    +0.277 C 
ENDBRANCH   7  21
BRANCH   6  23
ATOM     23  O   UNL     1       7.036   3.159  -1.632  0.00  0.00    -0.491 OA
ATOM     24  C   UNL     1       6.520   4.444  -1.984  0.00  0.00    +0.277 C 
ENDBRANCH   6  23
TORSDOF 4
