REMARK  Name = ZINC04631507
REMARK  10 active torsions:
REMARK  status: ('A' for Active; 'I' for Inactive)
REMARK    1  A    between atoms: C_1  and  C_2
REMARK    2  A    between atoms: C_2  and  C_3
REMARK    3  A    between atoms: C_2  and  N_55
REMARK    4  A    between atoms: C_10  and  C_22
REMARK    5  A    between atoms: C_12  and  C_18
REMARK    6  A    between atoms: C_12  and  C_20
REMARK    7  A    between atoms: C_14  and  C_15
REMARK    8  A    between atoms: C_25  and  O_28
REMARK    9  A    between atoms: O_28  and  C_29
REMARK   10  A    between atoms: C_29  and  C_30
REMARK                            x       y       z     vdW  Elec       q    Type
REMARK                         _______ _______ _______ _____ _____    ______ ____
ROOT
ATOM      1  C   UNL     1       4.379   0.230   3.542  0.00  0.00    -0.051 C 
ATOM      2  C   UNL     1       5.121   0.142   2.232  0.00  0.00    -0.044 C 
ATOM      3  C   UNL     1       4.625   0.713   1.150  0.00  0.00    -0.051 C 
ATOM      4  C   UNL     1       3.354   1.513   1.156  0.00  0.00    +0.010 C 
ATOM      5  C   UNL     1       2.604   1.457   2.468  0.00  0.00    -0.070 C 
ATOM      6  C   UNL     1       2.490   1.043  -0.016  0.00  0.00    +0.064 C 
ATOM      7  C   UNL     1       3.224   1.337  -1.325  0.00  0.00    +0.188 C 
ATOM      8  C   UNL     1       4.630   0.815  -1.301  0.00  0.00    +0.065 C 
ATOM      9  C   UNL     1       5.303   0.530  -0.158  0.00  0.00    +0.163 C 
ATOM     10  N   UNL     1       5.266   0.617  -2.494  0.00  0.00    -0.304 NA
ATOM     11  H   UNL     1       6.175   0.279  -2.509  0.00  0.00    +0.186 HD
ATOM     12  N   UNL     1       2.936   0.238   3.223  0.00  0.00    +0.384 N 
ATOM     13  H   UNL     1       2.715  -0.584   2.648  0.00  0.00    -0.081 HD
ENDROOT
BRANCH   6  14
ATOM     14  C   UNL     1       1.174   1.778   0.001  0.00  0.00    -0.041 A 
ATOM     15  C   UNL     1      -0.005   1.087  -0.204  0.00  0.00    +0.007 A 
ATOM     16  C   UNL     1      -1.212   1.760  -0.196  0.00  0.00    +0.046 A 
ATOM     17  C   UNL     1      -1.240   3.128   0.030  0.00  0.00    +0.121 A 
ATOM     18  C   UNL     1      -0.055   3.819   0.236  0.00  0.00    +0.046 A 
ATOM     19  C   UNL     1       1.149   3.143   0.221  0.00  0.00    +0.007 A 
BRANCH  17  20
ATOM     20  O   UNL     1      -2.426   3.791   0.045  0.00  0.00    -0.483 OA
BRANCH  20  21
ATOM     21  C   UNL     1      -3.606   3.015  -0.174  0.00  0.00    +0.324 C 
BRANCH  21  22
ATOM     22  C   UNL     1      -4.815   3.914  -0.122  0.00  0.00    +0.248 C 
ATOM     23  O   UNL     1      -4.679   5.101   0.082  0.00  0.00    -0.272 OA
ATOM     24  N   UNL     1      -6.047   3.397  -0.303  0.00  0.00    -0.327 N 
ATOM     25  H   UNL     1      -6.155   2.447  -0.467  0.00  0.00    +0.145 HD
ATOM     26  H   UNL     1      -6.825   3.975  -0.270  0.00  0.00    +0.145 HD
ENDBRANCH  21  22
ENDBRANCH  20  21
ENDBRANCH  17  20
ENDBRANCH   6  14
BRANCH  12  28
ATOM     27  C   UNL     1       2.514  -1.081   5.247  0.00  0.00    -0.014 C 
ATOM     28  C   UNL     1       2.139   0.183   4.470  0.00  0.00    -0.074 C 
ATOM     29  C   UNL     1       2.420   1.414   5.334  0.00  0.00    -0.014 C 
ENDBRANCH  12  28
BRANCH   9  30
ATOM     30  C   UNL     1       6.654   0.056  -0.212  0.00  0.00    +0.076 C 
ATOM     31  N   UNL     1       7.725  -0.319  -0.256  0.00  0.00    -0.196 NA
ENDBRANCH   9  30
BRANCH   7  32
ATOM     32  C   UNL     1       2.494   0.705  -2.436  0.00  0.00    +0.091 C 
ATOM     33  N   UNL     1       1.931   0.217  -3.293  0.00  0.00    -0.195 NA
ENDBRANCH   7  32
BRANCH   7  34
ATOM     34  C   UNL     1       3.258   2.792  -1.542  0.00  0.00    +0.091 C 
ATOM     35  N   UNL     1       3.284   3.916  -1.710  0.00  0.00    -0.195 NA
ENDBRANCH   7  34
TORSDOF 8
