REMARK  Name = ZINC00863899
REMARK  7 active torsions:
REMARK  status: ('A' for Active; 'I' for Inactive)
REMARK    1  A    between atoms: C_1  and  C_2
REMARK    2  A    between atoms: C_5  and  N_8
REMARK    3  A    between atoms: C_9  and  C_29
REMARK    4  A    between atoms: C_12  and  S_13
REMARK    5  A    between atoms: S_13  and  C_14
REMARK    6  A    between atoms: C_14  and  C_15
REMARK    7  A    between atoms: N_17  and  N_18
REMARK                            x       y       z     vdW  Elec       q    Type
REMARK                         _______ _______ _______ _____ _____    ______ ____
ROOT
ATOM      1  N   UNL     1       0.189  -3.787  -0.148  0.00  0.00    -0.270 N 
ATOM      2  C   UNL     1      -0.783  -4.579   0.424  0.00  0.00    +0.169 A 
ATOM      3  N   UNL     1      -0.425  -5.827   0.231  0.00  0.00    -0.128 NA
ATOM      4  N   UNL     1       0.687  -5.872  -0.413  0.00  0.00    -0.122 NA
ATOM      5  C   UNL     1       1.106  -4.654  -0.676  0.00  0.00    +0.197 A 
ENDROOT
BRANCH   1  10
ATOM      6  C   UNL     1       0.341   1.884  -0.302  0.00  0.00    +0.044 C 
ATOM      7  C   UNL     1       0.300   0.379  -0.261  0.00  0.00    -0.050 A 
ATOM      8  C   UNL     1       0.111  -0.339  -1.428  0.00  0.00    +0.005 A 
ATOM      9  C   UNL     1       0.074  -1.719  -1.394  0.00  0.00    +0.026 A 
ATOM     10  C   UNL     1       0.227  -2.386  -0.186  0.00  0.00    +0.051 A 
ATOM     11  C   UNL     1       0.417  -1.663   0.984  0.00  0.00    +0.026 A 
ATOM     12  C   UNL     1       0.458  -0.283   0.943  0.00  0.00    +0.005 A 
ENDBRANCH   1  10
BRANCH   2  13
ATOM     13  C   UNL     1      -1.998  -4.112   1.123  0.00  0.00    +0.020 A 
ATOM     14  C   UNL     1      -2.454  -2.805   0.939  0.00  0.00    +0.013 A 
ATOM     15  C   UNL     1      -3.589  -2.375   1.594  0.00  0.00    +0.021 A 
ATOM     16  C   UNL     1      -4.276  -3.236   2.433  0.00  0.00    +0.041 A 
ATOM     17  C   UNL     1      -3.829  -4.533   2.619  0.00  0.00    +0.021 A 
ATOM     18  C   UNL     1      -2.699  -4.977   1.965  0.00  0.00    +0.013 A 
ATOM     19 CL   UNL     1      -5.703  -2.687   3.255  0.00  0.00    -0.084 Cl
ENDBRANCH   2  13
BRANCH   5  20
ATOM     20  S   UNL     1       2.577  -4.220  -1.544  0.00  0.00    -0.076 S 
BRANCH  20  21
ATOM     21  C   UNL     1       3.326  -5.817  -1.965  0.00  0.00    +0.174 C 
BRANCH  21  22
ATOM     22  C   UNL     1       4.609  -5.587  -2.721  0.00  0.00    +0.242 C 
ATOM     23  O   UNL     1       4.981  -4.456  -2.953  0.00  0.00    -0.273 OA
ATOM     24  N   UNL     1       5.343  -6.637  -3.139  0.00  0.00    -0.206 N 
ATOM     25  H   UNL     1       5.045  -7.541  -2.954  0.00  0.00    +0.177 HD
BRANCH  24  26
ATOM     26  N   UNL     1       6.536  -6.422  -3.842  0.00  0.00    -0.175 NA
ATOM     27  C   UNL     1       7.204  -7.441  -4.325  0.00  0.00    +0.152 C 
ATOM     28  C   UNL     1       6.923  -8.882  -4.123  0.00  0.00    +0.028 A 
ATOM     29  C   UNL     1       5.944  -9.571  -3.417  0.00  0.00    +0.012 A 
ATOM     30  C   UNL     1       5.944 -10.952  -3.417  0.00  0.00    +0.001 A 
ATOM     31  C   UNL     1       6.915 -11.646  -4.119  0.00  0.00    +0.002 A 
ATOM     32  C   UNL     1       7.891 -10.970  -4.824  0.00  0.00    +0.024 A 
ATOM     33  C   UNL     1       7.907  -9.580  -4.835  0.00  0.00    +0.043 A 
ATOM     34  N   UNL     1       8.761  -8.672  -5.451  0.00  0.00    -0.280 N 
ATOM     35  C   UNL     1       8.397  -7.403  -5.195  0.00  0.00    +0.269 C 
ATOM     36  O   UNL     1       8.954  -6.402  -5.605  0.00  0.00    -0.268 OA
ATOM     37  H   UNL     1       9.521  -8.922  -6.000  0.00  0.00    +0.155 HD
ENDBRANCH  24  26
ENDBRANCH  21  22
ENDBRANCH  20  21
ENDBRANCH   5  20
TORSDOF 6
