REMARK  Name = ZINC11868180
REMARK  3 active torsions:
REMARK  status: ('A' for Active; 'I' for Inactive)
REMARK    1  A    between atoms: C_1  and  C_2
REMARK    2  A    between atoms: C_14  and  C_15
REMARK    3  A    between atoms: C_14  and  N_35
REMARK                            x       y       z     vdW  Elec       q    Type
REMARK                         _______ _______ _______ _____ _____    ______ ____
ROOT
ATOM      1  C   UNL     1      -0.244   7.805   1.521  0.00  0.00    +0.050 C 
ATOM      2  C   UNL     1       0.392   6.427   1.331  0.00  0.00    +0.154 C 
ATOM      3  C   UNL     1       1.899   6.571   1.317  0.00  0.00    -0.033 C 
ATOM      4  C   UNL     1       2.438   4.607  -0.018  0.00  0.00    -0.039 C 
ATOM      5  C   UNL     1       1.142   3.819   0.019  0.00  0.00    -0.021 A 
ATOM      6  C   UNL     1       1.169   2.440   0.004  0.00  0.00    +0.025 A 
ATOM      7  C   UNL     1      -0.021   1.732   0.012  0.00  0.00    +0.041 A 
ATOM      8  C   UNL     1      -1.230   2.407   0.021  0.00  0.00    +0.023 A 
ATOM      9  C   UNL     1      -1.254   3.788   0.043  0.00  0.00    +0.047 A 
ATOM     10  C   UNL     1      -0.061   4.497   0.049  0.00  0.00    +0.122 A 
ATOM     11  O   UNL     1      -0.075   5.857   0.102  0.00  0.00    -0.491 OA
ATOM     12 CL   UNL     1       0.002  -0.004   0.002  0.00  0.00    -0.084 Cl
ATOM     13  N   UNL     1       2.602   5.271   1.297  0.00  0.00    +0.388 N 
ATOM     14  H   UNL     1       2.200   4.667   2.023  0.00  0.00    -0.081 HD
ENDROOT
BRANCH  13  15
ATOM     15  C   UNL     1       4.032   5.473   1.584  0.00  0.00    -0.039 C 
BRANCH  15  16
ATOM     16  C   UNL     1       4.656   6.414   0.586  0.00  0.00    -0.026 A 
ATOM     17  C   UNL     1       4.747   7.820   0.697  0.00  0.00    +0.043 A 
ATOM     18  C   UNL     1       5.376   8.258  -0.409  0.00  0.00    +0.195 A 
ATOM     19  O   UNL     1       5.669   7.198  -1.179  0.00  0.00    -0.471 OA
ATOM     20  C   UNL     1       5.239   6.076  -0.578  0.00  0.00    +0.196 A 
ENDBRANCH  15  16
ENDBRANCH  13  15
TORSDOF 2
