REMARK  Name = ZINC43289014
REMARK  10 active torsions:
REMARK  status: ('A' for Active; 'I' for Inactive)
REMARK    1  A    between atoms: C_1  and  C_2
REMARK    2  A    between atoms: C_2  and  C_3
REMARK    3  A    between atoms: C_3  and  C_5
REMARK    4  A    between atoms: C_3  and  N_23
REMARK    5  A    between atoms: C_5  and  C_7
REMARK    6  A    between atoms: C_5  and  O_13
REMARK    7  A    between atoms: O_13  and  C_14
REMARK    8  A    between atoms: C_14  and  C_15
REMARK    9  A    between atoms: C_15  and  O_16
REMARK   10  A    between atoms: O_16  and  C_17
REMARK                            x       y       z     vdW  Elec       q    Type
REMARK                         _______ _______ _______ _____ _____    ______ ____
ROOT
ATOM      1  C   UNL     1      -1.507  -2.063   0.221  0.00  0.00    +0.141 C 
ENDROOT
BRANCH   1   2
ATOM      2  C   UNL     1      -0.685  -2.332   1.455  0.00  0.00    +0.018 A 
ATOM      3  C   UNL     1       0.609  -2.723   1.550  0.00  0.00    +0.029 A 
ATOM      4  C   UNL     1       1.163  -2.911   2.803  0.00  0.00    +0.025 A 
ATOM      5  C   UNL     1       0.394  -2.698   3.900  0.00  0.00    +0.060 A 
ATOM      6  S   UNL     1      -1.161  -2.210   3.172  0.00  0.00    -0.098 S 
ATOM      7 BR   UNL     1       2.964  -3.456   2.985  0.00  0.00    -0.050 Br
ENDBRANCH   1   2
BRANCH   1   8
ATOM      8  C   UNL     1      -1.465  -0.569  -0.105  0.00  0.00    -0.041 C 
BRANCH   8   9
ATOM      9  N   UNL     1      -2.370  -0.286  -1.226  0.00  0.00    +0.382 N 
ATOM     10  H   UNL     1      -2.077  -0.812  -2.036  0.00  0.00    -0.090 HD
ATOM     11  H   UNL     1      -3.310  -0.553  -0.975  0.00  0.00    -0.090 HD
ATOM     12  H   UNL     1      -2.346   0.700  -1.438  0.00  0.00    -0.090 HD
ENDBRANCH   8   9
BRANCH   8  14
ATOM     13  C   UNL     1       0.032   1.343  -0.693  0.00  0.00    +0.002 C 
ATOM     14  C   UNL     1      -0.038  -0.171  -0.488  0.00  0.00    -0.017 C 
ENDBRANCH   8  14
ENDBRANCH   1   8
BRANCH   1  15
ATOM     15  O   UNL     1      -2.860  -2.461   0.454  0.00  0.00    -0.370 OA
BRANCH  15  16
ATOM     16  C   UNL     1      -3.133  -3.821   0.111  0.00  0.00    +0.201 C 
BRANCH  16  17
ATOM     17  C   UNL     1      -4.570  -4.168   0.503  0.00  0.00    +0.257 C 
BRANCH  17  18
ATOM     18  O   UNL     1      -5.478  -3.391  -0.281  0.00  0.00    -0.490 OA
BRANCH  18  19
ATOM     19  C   UNL     1      -6.805  -3.579  -0.055  0.00  0.00    +0.121 A 
ATOM     20  C   UNL     1      -7.225  -4.489   0.905  0.00  0.00    +0.045 A 
ATOM     21  C   UNL     1      -8.574  -4.678   1.133  0.00  0.00    +0.004 A 
ATOM     22  C   UNL     1      -9.506  -3.962   0.404  0.00  0.00    +0.000 A 
ATOM     23  C   UNL     1      -9.091  -3.055  -0.553  0.00  0.00    +0.004 A 
ATOM     24  C   UNL     1      -7.742  -2.858  -0.781  0.00  0.00    +0.045 A 
ENDBRANCH  18  19
ENDBRANCH  17  18
ENDBRANCH  16  17
ENDBRANCH  15  16
ENDBRANCH   1  15
TORSDOF 9
