REMARK  Name = ZINC14461133
REMARK  5 active torsions:
REMARK  status: ('A' for Active; 'I' for Inactive)
REMARK    1  A    between atoms: C_6  and  O_7
REMARK    2  A    between atoms: O_7  and  C_8
REMARK    3  A    between atoms: C_8  and  C_9
REMARK    4  A    between atoms: C_22  and  C_25
REMARK    5  A    between atoms: C_30  and  O_31
REMARK                            x       y       z     vdW  Elec       q    Type
REMARK                         _______ _______ _______ _____ _____    ______ ____
ROOT
ATOM      1  C   UNL     1       1.164   2.099   0.002  0.00  0.00    +0.047 A 
ATOM      2  C   UNL     1      -0.017   1.385   0.010  0.00  0.00    +0.027 A 
ATOM      3  C   UNL     1       0.002  -0.004   0.002  0.00  0.00    +0.032 A 
ATOM      4  C   UNL     1       1.232  -0.672  -0.018  0.00  0.00    -0.016 A 
ATOM      5  C   UNL     1       2.408   0.046  -0.016  0.00  0.00    +0.051 A 
ATOM      6  C   UNL     1       2.380   1.433  -0.007  0.00  0.00    +0.121 A 
ATOM      7  C   UNL     1       1.205  -2.150  -0.051  0.00  0.00    +0.049 C 
ATOM      8  C   UNL     1       2.326  -2.969   0.478  0.00  0.00    -0.023 C 
ATOM      9  C   UNL     1       1.834  -4.110   0.944  0.00  0.00    -0.030 C 
ATOM     10  C   UNL     1       0.312  -4.127   0.788  0.00  0.00    +0.033 C 
ATOM     11  C   UNL     1      -0.015  -2.627   0.792  0.00  0.00    +0.029 C 
ATOM     12  C   UNL     1      -1.242  -2.185   0.014  0.00  0.00    +0.108 C 
ATOM     13  N   UNL     1      -1.212  -0.706   0.030  0.00  0.00    -0.336 N 
ATOM     14  H   UNL     1      -2.047  -0.213   0.060  0.00  0.00    +0.147 HD
ENDROOT
BRANCH  12  15
ATOM     15  C   UNL     1      -1.171  -2.692  -1.403  0.00  0.00    +0.015 A 
ATOM     16  C   UNL     1      -0.597  -1.913  -2.388  0.00  0.00    +0.024 A 
ATOM     17  C   UNL     1      -0.527  -2.380  -3.688  0.00  0.00    +0.018 A 
ATOM     18  C   UNL     1      -1.041  -3.624  -4.007  0.00  0.00    +0.019 A 
ATOM     19  C   UNL     1      -1.621  -4.405  -3.026  0.00  0.00    +0.047 A 
ATOM     20  C   UNL     1      -1.687  -3.940  -1.720  0.00  0.00    +0.122 A 
ATOM     21 BR   UNL     1       0.265  -1.313  -5.034  0.00  0.00    -0.050 Br
BRANCH  20  22
ATOM     22  O   UNL     1      -2.258  -4.706  -0.753  0.00  0.00    -0.506 OA
ATOM     23  H   UNL     1      -3.207  -4.560  -0.645  0.00  0.00    +0.292 HD
ENDBRANCH  20  22
ENDBRANCH  12  15
BRANCH   6  24
ATOM     24  O   UNL     1       3.543   2.138  -0.008  0.00  0.00    -0.489 OA
BRANCH  24  25
ATOM     25  C   UNL     1       3.438   3.563   0.001  0.00  0.00    +0.260 C 
BRANCH  25  26
ATOM     26  C   UNL     1       4.839   4.177  -0.001  0.00  0.00    +0.156 C 
ATOM     27  C   UNL     1       4.739   5.711  -0.110  0.00  0.00    +0.037 C 
ATOM     28  C   UNL     1       5.459   6.229   1.159  0.00  0.00    +0.031 C 
ATOM     29  C   UNL     1       6.339   5.016   1.551  0.00  0.00    +0.160 C 
ATOM     30  O   UNL     1       5.507   3.876   1.236  0.00  0.00    -0.373 OA
ENDBRANCH  25  26
ENDBRANCH  24  25
ENDBRANCH   6  24
TORSDOF 5
