REMARK  Name = ZINC12503914
REMARK  8 active torsions:
REMARK  status: ('A' for Active; 'I' for Inactive)
REMARK    1  A    between atoms: C_1  and  N_2
REMARK    2  A    between atoms: N_2  and  C_3
REMARK    3  A    between atoms: N_2  and  C_4
REMARK    4  A    between atoms: C_4  and  C_5
REMARK    5  A    between atoms: C_5  and  C_6
REMARK    6  A    between atoms: C_6  and  N_7
REMARK    7  A    between atoms: C_9  and  C_17
REMARK    8  A    between atoms: C_18  and  C_24
REMARK                            x       y       z     vdW  Elec       q    Type
REMARK                         _______ _______ _______ _____ _____    ______ ____
ROOT
ATOM      1  C   UNL     1      -4.018  -6.937  -1.610  0.00  0.00    +0.036 C 
ATOM      2  C   UNL     1      -4.079  -8.014  -2.474  0.00  0.00    +0.051 C 
ATOM      3  C   UNL     1      -5.522  -8.341  -2.623  0.00  0.00    +0.251 C 
ATOM      4  O   UNL     1      -5.984  -9.232  -3.305  0.00  0.00    -0.270 OA
ATOM      5  N   UNL     1      -6.229  -7.478  -1.871  0.00  0.00    -0.249 N 
ATOM      6  C   UNL     1      -5.406  -6.624  -1.240  0.00  0.00    +0.248 C 
ATOM      7  O   UNL     1      -5.753  -5.735  -0.487  0.00  0.00    -0.270 OA
ATOM      8  H   UNL     1      -7.196  -7.476  -1.792  0.00  0.00    +0.158 HD
ENDROOT
BRANCH   2   9
ATOM      9  C   UNL     1      -2.991  -8.671  -3.091  0.00  0.00    -0.007 C 
ATOM     10  C   UNL     1      -2.345  -9.818  -2.651  0.00  0.00    +0.004 A 
ATOM     11  C   UNL     1      -2.533 -10.655  -1.529  0.00  0.00    +0.010 A 
ATOM     12  C   UNL     1      -1.737 -11.734  -1.341  0.00  0.00    +0.001 A 
ATOM     13  C   UNL     1      -0.708 -12.071  -2.229  0.00  0.00    +0.002 A 
ATOM     14  C   UNL     1      -0.447 -11.333  -3.333  0.00  0.00    +0.026 A 
ATOM     15  C   UNL     1      -1.266 -10.145  -3.609  0.00  0.00    +0.043 A 
ATOM     16  N   UNL     1      -1.234  -9.270  -4.581  0.00  0.00    -0.380 N 
ATOM     17  C   UNL     1      -2.292  -8.276  -4.373  0.00  0.00    +0.149 C 
ATOM     18  H   UNL     1      -0.612  -9.280  -5.325  0.00  0.00    +0.160 HD
ENDBRANCH   2   9
BRANCH   1  21
ATOM     19  N   UNL     1      -2.784  -4.004  -0.274  0.00  0.00    -0.329 N 
ATOM     20  C   UNL     1      -2.818  -4.745  -1.538  0.00  0.00    +0.118 C 
ATOM     21  C   UNL     1      -2.776  -6.228  -1.136  0.00  0.00    +0.074 C 
ATOM     22  C   UNL     1      -2.718  -6.211   0.375  0.00  0.00    -0.017 A 
ATOM     23  C   UNL     1      -2.720  -4.892   0.801  0.00  0.00    +0.034 A 
ATOM     24  C   UNL     1      -2.666  -4.622   2.170  0.00  0.00    +0.023 A 
ATOM     25  C   UNL     1      -2.607  -5.656   3.080  0.00  0.00    +0.002 A 
ATOM     26  C   UNL     1      -2.601  -6.968   2.645  0.00  0.00    +0.000 A 
ATOM     27  C   UNL     1      -2.664  -7.244   1.291  0.00  0.00    +0.006 A 
BRANCH  19  28
ATOM     28  C   UNL     1      -2.806  -2.544  -0.156  0.00  0.00    +0.103 C 
BRANCH  28  29
ATOM     29  C   UNL     1      -1.373  -2.009  -0.177  0.00  0.00    +0.000 C 
BRANCH  29  30
ATOM     30  C   UNL     1      -1.396  -0.484  -0.054  0.00  0.00    -0.078 C 
BRANCH  30  32
ATOM     31  C   UNL     1      -0.046   1.499  -0.077  0.00  0.00    -0.097 C 
ATOM     32  N   UNL     1      -0.020   0.030  -0.074  0.00  0.00    +0.376 N 
ATOM     33  C   UNL     1       0.697  -0.445   1.116  0.00  0.00    -0.097 C 
ATOM     34  H   UNL     1       0.450  -0.299  -0.904  0.00  0.00    -0.083 HD
ENDBRANCH  30  32
ENDBRANCH  29  30
ENDBRANCH  28  29
ENDBRANCH  19  28
ENDBRANCH   1  21
TORSDOF 6
