REMARK  Name = ZINC36628898
REMARK  8 active torsions:
REMARK  status: ('A' for Active; 'I' for Inactive)
REMARK    1  A    between atoms: C_4  and  C_7
REMARK    2  A    between atoms: C_7  and  C_8
REMARK    3  A    between atoms: C_13  and  N_14
REMARK    4  A    between atoms: C_15  and  C_17
REMARK    5  A    between atoms: C_17  and  C_18
REMARK    6  A    between atoms: C_18  and  S_19
REMARK    7  A    between atoms: S_19  and  C_20
REMARK    8  A    between atoms: C_20  and  C_21
REMARK                            x       y       z     vdW  Elec       q    Type
REMARK                         _______ _______ _______ _____ _____    ______ ____
ROOT
ATOM      1  C   UNL     1       1.585  -5.106   1.373  0.00  0.00    +0.107 C 
ENDROOT
BRANCH   1   3
ATOM      2  N   UNL     1       2.817  -2.962   1.449  0.00  0.00    -0.285 N 
ATOM      3  C   UNL     1       2.449  -4.094   2.081  0.00  0.00    +0.218 C 
ATOM      4  O   UNL     1       2.812  -4.299   3.220  0.00  0.00    -0.275 OA
ATOM      5  H   UNL     1       2.462  -2.760   0.570  0.00  0.00    +0.155 HD
BRANCH   2  11
ATOM      6  C   UNL     1       3.714  -0.735   1.710  0.00  0.00    -0.022 A 
ATOM      7  C   UNL     1       4.594   0.136   2.321  0.00  0.00    +0.006 A 
ATOM      8  C   UNL     1       5.477  -0.329   3.278  0.00  0.00    +0.000 A 
ATOM      9  C   UNL     1       5.481  -1.667   3.628  0.00  0.00    +0.002 A 
ATOM     10  C   UNL     1       4.603  -2.543   3.021  0.00  0.00    +0.023 A 
ATOM     11  C   UNL     1       3.712  -2.078   2.062  0.00  0.00    +0.037 A 
BRANCH   6  12
ATOM     12  C   UNL     1       2.752  -0.227   0.666  0.00  0.00    +0.072 C 
BRANCH  12  16
ATOM     13  C   UNL     1      -0.995   0.685   2.504  0.00  0.00    +0.000 A 
ATOM     14  C   UNL     1      -0.017   1.657   2.410  0.00  0.00    +0.000 A 
ATOM     15  C   UNL     1       1.196   1.361   1.815  0.00  0.00    +0.004 A 
ATOM     16  C   UNL     1       1.431   0.094   1.315  0.00  0.00    -0.043 A 
ATOM     17  C   UNL     1       0.452  -0.878   1.410  0.00  0.00    +0.004 A 
ATOM     18  C   UNL     1      -0.761  -0.583   2.003  0.00  0.00    +0.000 A 
ENDBRANCH  12  16
ENDBRANCH   6  12
ENDBRANCH   2  11
ENDBRANCH   1   3
BRANCH   1  19
ATOM     19  C   UNL     1       1.315  -6.288   2.306  0.00  0.00    +0.079 C 
BRANCH  19  20
ATOM     20  S   UNL     1       0.275  -7.506   1.454  0.00  0.00    -0.153 S 
BRANCH  20  21
ATOM     21  C   UNL     1       0.051  -8.825   2.678  0.00  0.00    +0.143 C 
BRANCH  21  22
ATOM     22  C   UNL     1      -0.807  -9.916   2.090  0.00  0.00    +0.121 A 
ATOM     23  N   UNL     1      -1.108 -11.006   2.841  0.00  0.00    -0.310 N 
ATOM     24  H   UNL     1      -0.767 -11.067   3.747  0.00  0.00    +0.170 HD
ATOM     25  C   UNL     1      -1.871 -12.003   2.355  0.00  0.00    +0.260 A 
ATOM     26  O   UNL     1      -2.133 -12.974   3.043  0.00  0.00    -0.267 OA
ATOM     27  C   UNL     1      -2.371 -11.902   1.016  0.00  0.00    +0.075 A 
ATOM     28  C   UNL     1      -3.208 -12.853   0.285  0.00  0.00    -0.023 A 
ATOM     29  C   UNL     1      -3.547 -12.523  -0.980  0.00  0.00    -0.004 A 
ATOM     30  S   UNL     1      -2.783 -10.950  -1.265  0.00  0.00    -0.073 S 
ATOM     31  C   UNL     1      -2.007 -10.740   0.317  0.00  0.00    +0.116 A 
ATOM     32  N   UNL     1      -1.252  -9.793   0.868  0.00  0.00    -0.226 NA
ATOM     33  C   UNL     1      -4.388 -13.319  -1.931  0.00  0.00    +0.043 C 
ATOM     34  C   UNL     1      -4.507 -14.751  -1.389  0.00  0.00    +0.005 C 
ATOM     35  C   UNL     1      -4.875 -14.685   0.096  0.00  0.00    +0.005 C 
ATOM     36  C   UNL     1      -3.686 -14.163   0.903  0.00  0.00    +0.037 C 
ENDBRANCH  21  22
ENDBRANCH  20  21
ENDBRANCH  19  20
ENDBRANCH   1  19
TORSDOF 8
