REMARK  Name = ZINC20464024
REMARK  11 active torsions:
REMARK  status: ('A' for Active; 'I' for Inactive)
REMARK    1  A    between atoms: C_1  and  C_2
REMARK    2  A    between atoms: C_2  and  O_3
REMARK    3  A    between atoms: O_3  and  C_4
REMARK    4  A    between atoms: C_10  and  N_19
REMARK    5  A    between atoms: C_11  and  C_14
REMARK    6  A    between atoms: C_14  and  O_16
REMARK    7  A    between atoms: O_16  and  C_17
REMARK    8  A    between atoms: C_17  and  C_18
REMARK    9  A    between atoms: C_20  and  C_22
REMARK   10  A    between atoms: C_22  and  N_23
REMARK   11  A    between atoms: N_26  and  C_29
REMARK                            x       y       z     vdW  Elec       q    Type
REMARK                         _______ _______ _______ _____ _____    ______ ____
ROOT
ATOM      1  C   UNL     1       0.905  -8.181  -3.605  0.00  0.00    +0.121 A 
ATOM      2  C   UNL     1       0.339  -8.136  -2.333  0.00  0.00    +0.048 A 
ATOM      3  C   UNL     1       0.387  -6.983  -1.584  0.00  0.00    +0.030 A 
ATOM      4  C   UNL     1       1.007  -5.844  -2.095  0.00  0.00    +0.049 A 
ATOM      5  C   UNL     1       1.580  -5.887  -3.378  0.00  0.00    +0.025 A 
ATOM      6  C   UNL     1       1.529  -7.067  -4.128  0.00  0.00    +0.057 A 
ATOM      7  C   UNL     1       2.145  -4.559  -3.629  0.00  0.00    +0.073 A 
ATOM      8  C   UNL     1       1.887  -3.801  -2.506  0.00  0.00    +0.147 A 
ATOM      9  N   UNL     1       1.202  -4.580  -1.585  0.00  0.00    -0.348 N 
ATOM     10  H   UNL     1       0.904  -4.279  -0.713  0.00  0.00    +0.166 HD
ENDROOT
BRANCH   7  11
ATOM     11  N   UNL     1       2.812  -4.142  -4.777  0.00  0.00    -0.282 N 
ATOM     12  C   UNL     1       3.659  -4.981  -5.406  0.00  0.00    +0.231 C 
ATOM     13  O   UNL     1       3.765  -6.129  -5.030  0.00  0.00    -0.274 OA
ATOM     14  H   UNL     1       2.667  -3.248  -5.125  0.00  0.00    +0.155 HD
BRANCH  12  15
ATOM     15  C   UNL     1       4.473  -4.492  -6.576  0.00  0.00    +0.180 C 
BRANCH  15  16
ATOM     16  N   UNL     1       5.311  -5.588  -7.081  0.00  0.00    -0.298 NA
ATOM     17  C   UNL     1       6.327  -5.974  -6.092  0.00  0.00    +0.066 C 
ATOM     18  C   UNL     1       7.137  -7.155  -6.631  0.00  0.00    -0.063 C 
ATOM     19  N   UNL     1       7.781  -6.771  -7.894  0.00  0.00    +0.383 N 
ATOM     20  C   UNL     1       6.753  -6.411  -8.880  0.00  0.00    -0.063 C 
ATOM     21  C   UNL     1       5.939  -5.224  -8.359  0.00  0.00    +0.066 C 
ATOM     22  H   UNL     1       8.386  -5.979  -7.736  0.00  0.00    -0.081 HD
BRANCH  19  23
ATOM     23  C   UNL     1       8.573  -7.898  -8.403  0.00  0.00    -0.068 C 
ATOM     24  C   UNL     1       9.645  -8.271  -7.377  0.00  0.00    -0.015 C 
ATOM     25  C   UNL     1      10.471  -9.446  -7.906  0.00  0.00    -0.002 C 
ATOM     26  C   UNL     1      11.141  -9.046  -9.222  0.00  0.00    -0.000 C 
ATOM     27  C   UNL     1      10.069  -8.673 -10.248  0.00  0.00    -0.002 C 
ATOM     28  C   UNL     1       9.244  -7.498  -9.719  0.00  0.00    -0.015 C 
ENDBRANCH  19  23
ENDBRANCH  15  16
ENDBRANCH  12  15
ENDBRANCH   7  11
BRANCH   8  29
ATOM     29  C   UNL     1       2.261  -2.446  -2.322  0.00  0.00    +0.358 C 
ATOM     30  O   UNL     1       2.764  -1.823  -3.239  0.00  0.00    -0.243 OA
BRANCH  29  31
ATOM     31  O   UNL     1       2.060  -1.846  -1.130  0.00  0.00    -0.460 OA
BRANCH  31  32
ATOM     32  C   UNL     1       2.462  -0.479  -1.015  0.00  0.00    +0.229 C 
ATOM     33  C   UNL     1       2.157   0.026   0.397  0.00  0.00    +0.048 C 
ENDBRANCH  31  32
ENDBRANCH  29  31
ENDBRANCH   8  29
BRANCH   1  34
ATOM     34  O   UNL     1       0.849  -9.329  -4.332  0.00  0.00    -0.492 OA
BRANCH  34  36
ATOM     35  C   UNL     1       0.225 -11.636  -4.691  0.00  0.00    +0.048 C 
ATOM     36  C   UNL     1       0.189 -10.445  -3.731  0.00  0.00    +0.225 C 
ENDBRANCH  34  36
ENDBRANCH   1  34
TORSDOF 9
