REMARK  Name = ZINC13634499
REMARK  8 active torsions:
REMARK  status: ('A' for Active; 'I' for Inactive)
REMARK    1  A    between atoms: C_4  and  C_7
REMARK    2  A    between atoms: C_7  and  C_8
REMARK    3  A    between atoms: N_10  and  C_11
REMARK    4  A    between atoms: C_15  and  N_17
REMARK    5  A    between atoms: N_17  and  C_18
REMARK    6  A    between atoms: C_18  and  N_20
REMARK    7  A    between atoms: C_21  and  C_23
REMARK    8  A    between atoms: C_24  and  C_25
REMARK                            x       y       z     vdW  Elec       q    Type
REMARK                         _______ _______ _______ _____ _____    ______ ____
ROOT
ATOM      1  N   UNL     1       9.645   4.390  -0.087  0.00  0.00    -0.297 N 
ATOM      2  H   UNL     1       9.597   5.327   0.156  0.00  0.00    +0.154 HD
ENDROOT
BRANCH   1   7
ATOM      3  C   UNL     1      12.874   3.191   1.210  0.00  0.00    +0.035 A 
ATOM      4  C   UNL     1      13.266   2.340   0.184  0.00  0.00    +0.023 A 
ATOM      5  C   UNL     1      12.458   2.173  -0.924  0.00  0.00    +0.004 A 
ATOM      6  C   UNL     1      11.258   2.851  -1.016  0.00  0.00    +0.023 A 
ATOM      7  C   UNL     1      10.860   3.703   0.006  0.00  0.00    +0.034 A 
ATOM      8  C   UNL     1      11.672   3.877   1.119  0.00  0.00    +0.046 A 
BRANCH   3  11
ATOM      9  C   UNL     1      13.141   3.525   3.550  0.00  0.00    +0.222 C 
ATOM     10  O   UNL     1      11.935   3.582   3.667  0.00  0.00    -0.275 OA
ATOM     11  N   UNL     1      13.693   3.359   2.332  0.00  0.00    -0.285 N 
ATOM     12  H   UNL     1      14.658   3.356   2.233  0.00  0.00    +0.155 HD
BRANCH   9  13
ATOM     13  C   UNL     1      14.022   3.639   4.767  0.00  0.00    +0.131 C 
BRANCH  13  17
ATOM     14  C   UNL     1      11.591   4.143   8.243  0.00  0.00    +0.000 A 
ATOM     15  C   UNL     1      11.942   2.874   7.824  0.00  0.00    +0.000 A 
ATOM     16  C   UNL     1      12.729   2.711   6.699  0.00  0.00    +0.004 A 
ATOM     17  C   UNL     1      13.164   3.817   5.994  0.00  0.00    -0.039 A 
ATOM     18  C   UNL     1      12.818   5.087   6.417  0.00  0.00    +0.004 A 
ATOM     19  C   UNL     1      12.027   5.249   7.539  0.00  0.00    +0.000 A 
ENDBRANCH  13  17
ENDBRANCH   9  13
ENDBRANCH   3  11
ENDBRANCH   1   7
BRANCH   1  20
ATOM     20  C   UNL     1       8.539   3.748  -0.515  0.00  0.00    +0.141 C 
ATOM     21  S   UNL     1       8.642   2.120  -1.035  0.00  0.00    -0.018 S 
BRANCH  20  22
ATOM     22  N   UNL     1       7.353   4.388  -0.534  0.00  0.00    -0.264 N 
ATOM     23  C   UNL     1       6.248   3.746  -0.962  0.00  0.00    +0.242 C 
ATOM     24  O   UNL     1       6.321   2.589  -1.331  0.00  0.00    -0.270 OA
ATOM     25  H   UNL     1       7.295   5.310  -0.240  0.00  0.00    +0.157 HD
BRANCH  23  26
ATOM     26  C   UNL     1       4.962   4.440  -0.983  0.00  0.00    +0.068 C 
ATOM     27  C   UNL     1       3.853   3.796  -1.412  0.00  0.00    +0.013 C 
BRANCH  27  28
ATOM     28  C   UNL     1       2.562   4.492  -1.432  0.00  0.00    -0.017 A 
ATOM     29  C   UNL     1       2.462   5.817  -1.014  0.00  0.00    +0.008 A 
ATOM     30  C   UNL     1       1.240   6.472  -1.035  0.00  0.00    +0.001 A 
ATOM     31  C   UNL     1       0.101   5.856  -1.460  0.00  0.00    +0.008 A 
ATOM     32  C   UNL     1       0.128   4.521  -1.897  0.00  0.00    -0.017 A 
ATOM     33  C   UNL     1       1.353   3.811  -1.894  0.00  0.00    -0.011 A 
ATOM     34  C   UNL     1       1.383   2.482  -2.329  0.00  0.00    +0.009 A 
ATOM     35  C   UNL     1       0.233   1.884  -2.751  0.00  0.00    +0.001 A 
ATOM     36  C   UNL     1      -0.973   2.581  -2.761  0.00  0.00    +0.001 A 
ATOM     37  C   UNL     1      -1.039   3.874  -2.339  0.00  0.00    +0.008 A 
ENDBRANCH  27  28
ENDBRANCH  23  26
ENDBRANCH  20  22
ENDBRANCH   1  20
TORSDOF 8
