REMARK  Name = ZINC18191507
REMARK  4 active torsions:
REMARK  status: ('A' for Active; 'I' for Inactive)
REMARK    1  A    between atoms: C_1  and  C_2
REMARK    2  A    between atoms: C_10  and  C_12
REMARK    3  A    between atoms: N_14  and  N_15
REMARK    4  A    between atoms: C_16  and  C_17
REMARK                            x       y       z     vdW  Elec       q    Type
REMARK                         _______ _______ _______ _____ _____    ______ ____
ROOT
ATOM      1  C   UNL     1      -1.102  -3.503  -0.005  0.00  0.00    +0.280 C 
ATOM      2  O   UNL     1      -2.318  -3.543   0.006  0.00  0.00    -0.267 OA
ATOM      3  N   UNL     1      -0.391  -4.648  -0.019  0.00  0.00    -0.202 N 
ATOM      4  H   UNL     1       0.579  -4.617  -0.028  0.00  0.00    +0.178 HD
ENDROOT
BRANCH   1  14
ATOM      5  C   UNL     1       3.748  -0.666  -0.038  0.00  0.00    +0.046 C 
ATOM      6  C   UNL     1       2.420   0.046  -0.021  0.00  0.00    -0.027 A 
ATOM      7  C   UNL     1       2.375   1.423  -0.013  0.00  0.00    +0.005 A 
ATOM      8  C   UNL     1       1.158   2.091   0.002  0.00  0.00    +0.001 A 
ATOM      9  C   UNL     1      -0.017   1.397   0.010  0.00  0.00    +0.010 A 
ATOM     10  C   UNL     1       0.002  -0.004   0.002  0.00  0.00    +0.001 A 
ATOM     11  C   UNL     1       1.236  -0.685  -0.013  0.00  0.00    +0.050 A 
ATOM     12  N   UNL     1       0.961  -2.032  -0.018  0.00  0.00    -0.350 N 
ATOM     13  H   UNL     1       1.621  -2.743  -0.027  0.00  0.00    +0.166 HD
ATOM     14  C   UNL     1      -0.409  -2.207  -0.005  0.00  0.00    +0.104 A 
ATOM     15  C   UNL     1      -1.014  -0.990   0.007  0.00  0.00    +0.041 A 
ENDBRANCH   1  14
BRANCH   3  16
ATOM     16  N   UNL     1      -1.052  -5.884  -0.019  0.00  0.00    -0.187 NA
ATOM     17  C   UNL     1      -0.367  -6.986  -0.032  0.00  0.00    +0.138 C 
BRANCH  17  18
ATOM     18  C   UNL     1      -1.062  -8.286  -0.032  0.00  0.00    -0.005 A 
ATOM     19  C   UNL     1      -2.458  -8.335  -0.013  0.00  0.00    +0.010 A 
ATOM     20  C   UNL     1      -3.103  -9.555  -0.018  0.00  0.00    +0.016 A 
ATOM     21  C   UNL     1      -2.369 -10.729  -0.032  0.00  0.00    +0.018 A 
ATOM     22  C   UNL     1      -0.985 -10.687  -0.046  0.00  0.00    +0.016 A 
ATOM     23  C   UNL     1      -0.328  -9.475  -0.045  0.00  0.00    +0.010 A 
ATOM     24 BR   UNL     1      -3.261 -12.396  -0.032  0.00  0.00    -0.050 Br
ENDBRANCH  17  18
ENDBRANCH   3  16
TORSDOF 3
