REMARK  Name = ZINC47354291
REMARK  6 active torsions:
REMARK  status: ('A' for Active; 'I' for Inactive)
REMARK    1  A    between atoms: C_1  and  C_2
REMARK    2  A    between atoms: C_5  and  C_7
REMARK    3  A    between atoms: C_9  and  C_12
REMARK    4  A    between atoms: C_12  and  N_13
REMARK    5  A    between atoms: C_16  and  C_20
REMARK    6  A    between atoms: C_16  and  C_21
REMARK                            x       y       z     vdW  Elec       q    Type
REMARK                         _______ _______ _______ _____ _____    ______ ____
ROOT
ATOM      1  N   UNL     1       5.646  -4.227  -1.414  0.00  0.00    -0.218 N 
ATOM      2  C   UNL     1       5.899  -5.266  -2.234  0.00  0.00    +0.254 C 
ATOM      3  O   UNL     1       5.772  -6.446  -1.982  0.00  0.00    -0.272 OA
ATOM      4  C   UNL     1       6.375  -4.655  -3.537  0.00  0.00    +0.168 C 
ATOM      5  N   UNL     1       6.330  -3.206  -3.275  0.00  0.00    -0.279 N 
ATOM      6  C   UNL     1       5.889  -3.056  -2.014  0.00  0.00    +0.310 C 
ATOM      7  O   UNL     1       5.731  -1.977  -1.477  0.00  0.00    -0.252 OA
ATOM      8  C   UNL     1       7.803  -5.102  -3.852  0.00  0.00    +0.050 C 
ATOM      9  H   UNL     1       6.570  -2.498  -3.893  0.00  0.00    +0.152 HD
ENDROOT
BRANCH   4  10
ATOM     10  C   UNL     1       5.443  -5.018  -4.665  0.00  0.00    +0.138 A 
ATOM     11  C   UNL     1       5.214  -4.260  -5.745  0.00  0.00    +0.056 A 
ATOM     12  C   UNL     1       4.250  -5.001  -6.568  0.00  0.00    +0.020 A 
ATOM     13  C   UNL     1       3.622  -4.759  -7.789  0.00  0.00    +0.011 A 
ATOM     14  C   UNL     1       2.749  -5.681  -8.296  0.00  0.00    +0.001 A 
ATOM     15  C   UNL     1       2.485  -6.854  -7.603  0.00  0.00    +0.004 A 
ATOM     16  C   UNL     1       3.096  -7.110  -6.395  0.00  0.00    +0.047 A 
ATOM     17  C   UNL     1       3.987  -6.186  -5.862  0.00  0.00    +0.135 A 
ATOM     18  O   UNL     1       4.726  -6.154  -4.735  0.00  0.00    -0.457 OA
ENDBRANCH   4  10
BRANCH   1  19
ATOM     19  C   UNL     1       5.160  -4.363  -0.039  0.00  0.00    +0.174 C 
BRANCH  19  22
ATOM     20  C   UNL     1       1.662  -3.220  -0.025  0.00  0.00    +0.144 A 
ATOM     21  N   UNL     1       2.990  -3.240  -0.027  0.00  0.00    -0.239 NA
ATOM     22  C   UNL     1       3.654  -4.372  -0.037  0.00  0.00    +0.067 A 
ATOM     23  C   UNL     1       2.980  -5.552  -0.047  0.00  0.00    +0.072 A 
ATOM     24  S   UNL     1       1.289  -4.969  -0.033  0.00  0.00    -0.072 S 
BRANCH  20  29
ATOM     25  C   UNL     1      -0.018   1.503   0.010  0.00  0.00    +0.086 C 
ATOM     26  C   UNL     1       0.002  -0.004   0.002  0.00  0.00    +0.103 A 
ATOM     27  C   UNL     1      -1.083  -0.804   0.003  0.00  0.00    +0.045 A 
ATOM     28  C   UNL     1      -0.617  -2.133  -0.008  0.00  0.00    +0.052 A 
ATOM     29  C   UNL     1       0.745  -2.071  -0.014  0.00  0.00    +0.160 A 
ATOM     30  O   UNL     1       1.104  -0.771  -0.013  0.00  0.00    -0.458 OA
ENDBRANCH  20  29
ENDBRANCH  19  22
ENDBRANCH   1  19
TORSDOF 4
