REMARK  Name = ZINC63571358
REMARK  7 active torsions:
REMARK  status: ('A' for Active; 'I' for Inactive)
REMARK    1  A    between atoms: C_1  and  C_2
REMARK    2  A    between atoms: C_2  and  O_3
REMARK    3  A    between atoms: O_3  and  C_4
REMARK    4  A    between atoms: C_4  and  C_6
REMARK    5  A    between atoms: C_9  and  C_12
REMARK    6  A    between atoms: C_12  and  N_13
REMARK    7  A    between atoms: C_29  and  C_31
REMARK                            x       y       z     vdW  Elec       q    Type
REMARK                         _______ _______ _______ _____ _____    ______ ____
ROOT
ATOM      1  N   UNL     1       2.167  -6.044   6.148  0.00  0.00    -0.299 N 
ATOM      2  C   UNL     1       2.720  -6.791   7.124  0.00  0.00    +0.303 C 
ATOM      3  O   UNL     1       3.403  -6.264   7.980  0.00  0.00    -0.253 OA
ATOM      4  N   UNL     1       2.514  -8.123   7.151  0.00  0.00    -0.276 N 
ATOM      5  C   UNL     1       1.792  -8.768   6.050  0.00  0.00    +0.114 C 
ATOM      6  C   UNL     1       0.562  -9.508   6.607  0.00  0.00    +0.052 C 
ATOM      7  C   UNL     1       1.029 -10.267   7.825  0.00  0.00    -0.035 C 
ATOM      8  C   UNL     1       0.901 -11.543   8.167  0.00  0.00    -0.001 A 
ATOM      9  C   UNL     1       0.166 -12.655   7.542  0.00  0.00    +0.010 A 
ATOM     10  C   UNL     1       0.268 -13.862   8.159  0.00  0.00    +0.001 A 
ATOM     11  C   UNL     1       1.018 -14.071   9.321  0.00  0.00    +0.002 A 
ATOM     12  C   UNL     1       1.717 -13.104   9.967  0.00  0.00    +0.026 A 
ATOM     13  C   UNL     1       1.680 -11.790   9.418  0.00  0.00    +0.043 A 
ATOM     14  N   UNL     1       2.229 -10.687   9.836  0.00  0.00    -0.375 N 
ATOM     15  C   UNL     1       1.819  -9.601   8.946  0.00  0.00    +0.131 C 
ATOM     16  C   UNL     1       3.023  -8.915   8.282  0.00  0.00    +0.137 C 
ATOM     17  H   UNL     1       1.684  -6.472   5.424  0.00  0.00    +0.150 HD
ATOM     18  H   UNL     1       2.811 -10.600  10.607  0.00  0.00    +0.160 HD
ENDROOT
BRANCH  16  19
ATOM     19  C   UNL     1       3.994  -9.953   7.782  0.00  0.00    +0.010 A 
ATOM     20  C   UNL     1       3.602 -10.857   6.812  0.00  0.00    +0.008 A 
ATOM     21  C   UNL     1       4.492 -11.810   6.354  0.00  0.00    +0.000 A 
ATOM     22  C   UNL     1       5.777 -11.859   6.863  0.00  0.00    +0.003 A 
ATOM     23  C   UNL     1       6.172 -10.956   7.832  0.00  0.00    +0.039 A 
ATOM     24  C   UNL     1       5.282  -9.998   8.289  0.00  0.00    +0.128 A 
ATOM     25  F   UNL     1       5.668  -9.112   9.232  0.00  0.00    -0.205 F 
ENDBRANCH  16  19
BRANCH   1  26
ATOM     26  C   UNL     1       2.297  -4.585   6.180  0.00  0.00    +0.109 C 
BRANCH  26  30
ATOM     27  C   UNL     1       1.614  -2.295   2.572  0.00  0.00    +0.098 C 
ATOM     28  C   UNL     1       0.902  -1.854   3.852  0.00  0.00    +0.015 C 
ATOM     29  C   UNL     1       1.613  -2.456   5.065  0.00  0.00    +0.006 C 
ATOM     30  C   UNL     1       1.585  -3.983   4.967  0.00  0.00    +0.006 C 
ATOM     31  C   UNL     1       2.298  -4.424   3.687  0.00  0.00    +0.006 C 
ATOM     32  C   UNL     1       1.586  -3.822   2.474  0.00  0.00    +0.015 C 
BRANCH  27  33
ATOM     33  C   UNL     1       0.913  -1.702   1.377  0.00  0.00    +0.310 C 
ATOM     34  O   UNL     1       0.440  -2.426   0.533  0.00  0.00    -0.251 OA
BRANCH  33  35
ATOM     35  O   UNL     1       0.814  -0.370   1.250  0.00  0.00    -0.465 OA
BRANCH  35  37
ATOM     36  C   UNL     1       0.125   1.653   0.121  0.00  0.00    +0.048 C 
ATOM     37  C   UNL     1       0.137   0.123   0.092  0.00  0.00    +0.229 C 
ENDBRANCH  35  37
ENDBRANCH  33  35
ENDBRANCH  27  33
ENDBRANCH  26  30
ENDBRANCH   1  26
TORSDOF 6
