REMARK  Name = ZINC59171058
REMARK  3 active torsions:
REMARK  status: ('A' for Active; 'I' for Inactive)
REMARK    1  A    between atoms: C_5  and  N_7
REMARK    2  A    between atoms: C_9  and  C_20
REMARK    3  A    between atoms: C_20  and  N_22
REMARK                            x       y       z     vdW  Elec       q    Type
REMARK                         _______ _______ _______ _____ _____    ______ ____
ROOT
ATOM      1  N   UNL     1       1.407  -2.141   0.419  0.00  0.00    -0.323 N 
ATOM      2  C   UNL     1       0.238  -2.734   0.308  0.00  0.00    +0.209 A 
ATOM      3  C   UNL     1       0.138  -4.203   0.196  0.00  0.00    +0.064 A 
ATOM      4  C   UNL     1      -1.038  -4.792   0.642  0.00  0.00    +0.027 A 
ATOM      5  C   UNL     1      -2.072  -3.906   1.183  0.00  0.00    +0.020 A 
ATOM      6  C   UNL     1      -3.161  -4.426   1.892  0.00  0.00    +0.027 A 
ATOM      7  C   UNL     1      -4.118  -3.571   2.393  0.00  0.00    +0.020 A 
ATOM      8  C   UNL     1      -4.006  -2.201   2.200  0.00  0.00    +0.034 A 
ATOM      9  C   UNL     1      -2.937  -1.674   1.502  0.00  0.00    +0.062 A 
ATOM     10  C   UNL     1      -1.963  -2.517   0.986  0.00  0.00    +0.151 A 
ATOM     11  O   UNL     1      -0.913  -2.014   0.298  0.00  0.00    -0.438 OA
ATOM     12 BR   UNL     1      -2.802   0.195   1.250  0.00  0.00    -0.046 Br
ATOM     13 BR   UNL     1      -5.592  -4.269   3.351  0.00  0.00    -0.050 Br
ATOM     14  H   UNL     1       2.212  -2.672   0.519  0.00  0.00    +0.169 HD
ENDROOT
BRANCH   1  19
ATOM     15  C   UNL     1       0.966   1.321  -0.659  0.00  0.00    +0.002 A 
ATOM     16  C   UNL     1       1.648   1.990   0.341  0.00  0.00    +0.003 A 
ATOM     17  C   UNL     1       2.251   1.286   1.368  0.00  0.00    +0.040 A 
ATOM     18  C   UNL     1       2.175  -0.092   1.402  0.00  0.00    +0.147 A 
ATOM     19  C   UNL     1       1.486  -0.775   0.394  0.00  0.00    +0.077 A 
ATOM     20  C   UNL     1       0.881  -0.056  -0.640  0.00  0.00    +0.028 A 
ATOM     21  F   UNL     1       2.764  -0.779   2.405  0.00  0.00    -0.203 F 
ENDBRANCH   1  19
BRANCH   3  22
ATOM     22  C   UNL     1       1.235  -5.007  -0.364  0.00  0.00    +0.082 C 
ATOM     23  S   UNL     1       2.599  -4.234  -1.051  0.00  0.00    -0.035 S 
BRANCH  22  24
ATOM     24  N   UNL     1       1.166  -6.353  -0.337  0.00  0.00    -0.352 N 
ATOM     25  H   UNL     1       0.393  -6.791   0.052  0.00  0.00    +0.143 HD
ATOM     26  H   UNL     1       1.889  -6.883  -0.706  0.00  0.00    +0.143 HD
ENDBRANCH  22  24
ENDBRANCH   3  22
TORSDOF 3
