REMARK  Name = ZINC12497700
REMARK  16 active torsions:
REMARK  status: ('A' for Active; 'I' for Inactive)
REMARK    1  A    between atoms: C_1  and  C_2
REMARK    2  A    between atoms: C_2  and  C_3
REMARK    3  A    between atoms: C_3  and  C_4
REMARK    4  A    between atoms: C_4  and  C_35
REMARK    5  A    between atoms: C_9  and  C_11
REMARK    6  A    between atoms: C_14  and  O_19
REMARK    7  A    between atoms: C_16  and  O_17
REMARK    8  A    between atoms: O_17  and  C_18
REMARK    9  A    between atoms: O_19  and  C_20
REMARK   10  A    between atoms: N_23  and  C_26
REMARK   11  A    between atoms: C_29  and  O_32
REMARK   12  A    between atoms: O_32  and  C_33
REMARK   13  A    between atoms: C_33  and  C_34
REMARK   14  A    between atoms: C_35  and  O_37
REMARK   15  A    between atoms: O_37  and  C_38
REMARK   16  A    between atoms: C_38  and  C_39
REMARK                            x       y       z     vdW  Elec       q    Type
REMARK                         _______ _______ _______ _____ _____    ______ ____
ROOT
ATOM      1  C   UNL     1      -3.685   4.808   0.004  0.00  0.00    +0.044 C 
ATOM      2  C   UNL     1      -2.742   3.706  -0.319  0.00  0.00    +0.086 C 
ATOM      3  C   UNL     1      -3.433   2.490   0.418  0.00  0.00    +0.077 C 
ATOM      4  C   UNL     1      -4.826   2.678  -0.134  0.00  0.00    -0.023 C 
ATOM      5  C   UNL     1      -2.462   1.446   0.022  0.00  0.00    +0.229 C 
ATOM      6  O   UNL     1      -2.696   0.286  -0.243  0.00  0.00    -0.275 OA
ATOM      7  N   UNL     1      -1.241   2.069   0.019  0.00  0.00    -0.210 N 
ATOM      8  C   UNL     1      -1.349   3.438   0.033  0.00  0.00    +0.229 C 
ATOM      9  O   UNL     1      -0.479   4.245   0.279  0.00  0.00    -0.275 OA
ATOM     10  N   UNL     1      -5.023   4.151   0.014  0.00  0.00    +0.395 N 
ATOM     11  H   UNL     1      -5.590   4.505  -0.766  0.00  0.00    -0.083 HD
ATOM     12  H   UNL     1      -5.500   4.350   0.901  0.00  0.00    -0.083 HD
ENDROOT
BRANCH   4  13
ATOM     13  C   UNL     1      -5.833   1.909   0.682  0.00  0.00    -0.019 A 
ATOM     14  C   UNL     1      -6.593   2.561   1.633  0.00  0.00    +0.009 A 
ATOM     15  C   UNL     1      -7.521   1.859   2.379  0.00  0.00    +0.046 A 
ATOM     16  C   UNL     1      -7.683   0.495   2.182  0.00  0.00    +0.124 A 
ATOM     17  C   UNL     1      -6.918  -0.162   1.231  0.00  0.00    +0.091 A 
ATOM     18  C   UNL     1      -5.992   0.545   0.480  0.00  0.00    +0.125 A 
BRANCH  18  19
ATOM     19  O   UNL     1      -5.240  -0.097  -0.453  0.00  0.00    -0.495 OA
ATOM     20  C   UNL     1      -5.457  -1.501  -0.606  0.00  0.00    +0.277 C 
ENDBRANCH  18  19
BRANCH  16  21
ATOM     21  O   UNL     1      -8.593  -0.195   2.919  0.00  0.00    -0.495 OA
ATOM     22  C   UNL     1      -9.346   0.547   3.880  0.00  0.00    +0.277 C 
ENDBRANCH  16  21
ENDBRANCH   4  13
BRANCH   7  23
ATOM     23  C   UNL     1      -0.017   1.384   0.010  0.00  0.00    +0.044 A 
ATOM     24  C   UNL     1       1.176   2.094   0.002  0.00  0.00    +0.027 A 
ATOM     25  C   UNL     1       2.381   1.419  -0.013  0.00  0.00    +0.047 A 
ATOM     26  C   UNL     1       2.399   0.032  -0.021  0.00  0.00    +0.121 A 
ATOM     27  C   UNL     1       1.207  -0.678  -0.013  0.00  0.00    +0.047 A 
ATOM     28  C   UNL     1       0.002  -0.004   0.002  0.00  0.00    +0.027 A 
BRANCH  26  29
ATOM     29  O   UNL     1       3.585  -0.632  -0.035  0.00  0.00    -0.492 OA
BRANCH  29  30
ATOM     30  C   UNL     1       4.773   0.163  -0.042  0.00  0.00    +0.225 C 
ATOM     31  C   UNL     1       5.999  -0.753  -0.058  0.00  0.00    +0.048 C 
ENDBRANCH  29  30
ENDBRANCH  26  29
ENDBRANCH   7  23
BRANCH   1  32
ATOM     32  C   UNL     1      -3.625   5.878  -1.056  0.00  0.00    +0.297 C 
ATOM     33  O   UNL     1      -2.606   6.053  -1.680  0.00  0.00    -0.252 OA
BRANCH  32  34
ATOM     34  O   UNL     1      -4.705   6.636  -1.306  0.00  0.00    -0.466 OA
BRANCH  34  35
ATOM     35  C   UNL     1      -4.575   7.647  -2.339  0.00  0.00    +0.228 C 
ATOM     36  C   UNL     1      -5.897   8.404  -2.480  0.00  0.00    +0.048 C 
ENDBRANCH  34  35
ENDBRANCH  32  34
ENDBRANCH   1  32
BRANCH   1  37
ATOM     37  C   UNL     1      -3.364   5.398   1.379  0.00  0.00    -0.001 C 
BRANCH  37  39
ATOM     38  C   UNL     1      -4.145   6.971   3.155  0.00  0.00    +0.004 C 
ATOM     39  C   UNL     1      -4.465   6.381   1.781  0.00  0.00    -0.004 C 
ENDBRANCH  37  39
ENDBRANCH   1  37
TORSDOF 11
