REMARK  Name = ZINC49152063
REMARK  8 active torsions:
REMARK  status: ('A' for Active; 'I' for Inactive)
REMARK    1  A    between atoms: C_1  and  C_2
REMARK    2  A    between atoms: C_2  and  C_3
REMARK    3  A    between atoms: C_2  and  C_4
REMARK    4  A    between atoms: C_4  and  C_5
REMARK    5  A    between atoms: C_5  and  N_6
REMARK    6  A    between atoms: N_9  and  N_10
REMARK    7  A    between atoms: N_10  and  S_11
REMARK    8  A    between atoms: S_11  and  C_14
REMARK                            x       y       z     vdW  Elec       q    Type
REMARK                         _______ _______ _______ _____ _____    ______ ____
ROOT
ATOM      1  N   UNL     1      -6.056  -1.599  -1.214  0.00  0.00    -0.107 NA
ATOM      2  H   UNL     1      -5.577  -2.387  -0.915  0.00  0.00    +0.172 HD
ENDROOT
BRANCH   1   6
ATOM      3  N   UNL     1      -3.510  -0.638  -1.275  0.00  0.00    -0.298 N 
ATOM      4  C   UNL     1      -4.323  -0.403  -2.324  0.00  0.00    +0.315 C 
ATOM      5  O   UNL     1      -3.915   0.230  -3.279  0.00  0.00    -0.251 OA
ATOM      6  N   UNL     1      -5.587  -0.870  -2.315  0.00  0.00    -0.216 N 
ATOM      7  H   UNL     1      -3.834  -1.143  -0.513  0.00  0.00    +0.150 HD
ATOM      8  H   UNL     1      -6.172  -0.700  -3.070  0.00  0.00    +0.172 HD
BRANCH   3   9
ATOM      9  C   UNL     1      -2.135  -0.131  -1.286  0.00  0.00    +0.106 C 
BRANCH   9  10
ATOM     10  C   UNL     1      -1.433  -0.534   0.013  0.00  0.00    +0.022 C 
BRANCH  10  12
ATOM     11  C   UNL     1      -0.019   1.526   0.010  0.00  0.00    +0.007 C 
ATOM     12  C   UNL     1       0.002  -0.004   0.002  0.00  0.00    -0.016 C 
ATOM     13  C   UNL     1       0.742  -0.511   1.242  0.00  0.00    +0.007 C 
ENDBRANCH  10  12
ENDBRANCH   9  10
ENDBRANCH   3   9
ENDBRANCH   1   6
BRANCH   1  14
ATOM     14  S   UNL     1      -7.429  -1.115  -0.425  0.00  0.00    +0.074 S 
ATOM     15  O   UNL     1      -7.722  -2.122   0.535  0.00  0.00    -0.152 OA
ATOM     16  O   UNL     1      -7.234   0.245  -0.066  0.00  0.00    -0.152 OA
BRANCH  14  17
ATOM     17  C   UNL     1      -8.742  -1.143  -1.599  0.00  0.00    +0.108 A 
ATOM     18  C   UNL     1      -9.019  -0.017  -2.353  0.00  0.00    +0.028 A 
ATOM     19  C   UNL     1     -10.049  -0.038  -3.275  0.00  0.00    +0.003 A 
ATOM     20  C   UNL     1     -10.803  -1.184  -3.443  0.00  0.00    +0.015 A 
ATOM     21  C   UNL     1     -10.527  -2.311  -2.690  0.00  0.00    +0.020 A 
ATOM     22  C   UNL     1      -9.492  -2.291  -1.771  0.00  0.00    +0.043 A 
ATOM     23 BR   UNL     1     -11.558  -3.879  -2.919  0.00  0.00    -0.050 Br
ENDBRANCH  14  17
ENDBRANCH   1  14
TORSDOF 6
