REMARK  Name = ZINC39912570
REMARK  14 active torsions:
REMARK  status: ('A' for Active; 'I' for Inactive)
REMARK    1  A    between atoms: C_1  and  C_2
REMARK    2  A    between atoms: C_2  and  C_3
REMARK    3  A    between atoms: C_3  and  C_4
REMARK    4  A    between atoms: C_4  and  O_5
REMARK    5  A    between atoms: O_5  and  C_6
REMARK    6  A    between atoms: C_9  and  C_12
REMARK    7  A    between atoms: C_15  and  C_32
REMARK    8  A    between atoms: N_22  and  C_23
REMARK    9  A    between atoms: C_23  and  C_24
REMARK   10  A    between atoms: C_27  and  O_30
REMARK   11  A    between atoms: O_30  and  C_31
REMARK   12  A    between atoms: C_34  and  C_40
REMARK   13  A    between atoms: C_36  and  C_39
REMARK   14  A    between atoms: C_37  and  O_38
REMARK                            x       y       z     vdW  Elec       q    Type
REMARK                         _______ _______ _______ _____ _____    ______ ____
ROOT
ATOM      1  C   UNL     1       1.859  -8.030  -3.125  0.00  0.00    +0.142 C 
ATOM      2  C   UNL     1       3.261  -8.495  -2.841  0.00  0.00    +0.035 A 
ATOM      3  C   UNL     1       4.303  -8.600  -1.914  0.00  0.00    +0.102 A 
ATOM      4  N   UNL     1       5.308  -9.204  -2.518  0.00  0.00    -0.173 NA
ATOM      5  N   UNL     1       5.004  -9.489  -3.733  0.00  0.00    -0.272 N 
ATOM      6  H   UNL     1       5.590  -9.935  -4.364  0.00  0.00    +0.189 HD
ATOM      7  C   UNL     1       3.732  -9.072  -4.005  0.00  0.00    +0.126 A 
ATOM      8  C   UNL     1       2.679  -8.994  -5.024  0.00  0.00    +0.266 C 
ATOM      9  O   UNL     1       2.781  -9.415  -6.160  0.00  0.00    -0.268 OA
ATOM     10  N   UNL     1       1.585  -8.390  -4.523  0.00  0.00    -0.281 N 
ENDROOT
BRANCH   3  11
ATOM     11  C   UNL     1       4.282  -8.121  -0.510  0.00  0.00    +0.044 A 
ATOM     12  C   UNL     1       3.107  -7.612   0.037  0.00  0.00    +0.017 A 
ATOM     13  C   UNL     1       3.092  -7.167   1.344  0.00  0.00    -0.049 A 
ATOM     14  C   UNL     1       4.241  -7.224   2.113  0.00  0.00    +0.010 A 
ATOM     15  C   UNL     1       5.412  -7.728   1.579  0.00  0.00    -0.008 A 
ATOM     16  C   UNL     1       5.439  -8.183   0.271  0.00  0.00    +0.129 A 
ATOM     17  C   UNL     1       6.659  -7.787   2.423  0.00  0.00    +0.047 C 
ATOM     18  C   UNL     1       1.820  -6.615   1.935  0.00  0.00    +0.044 C 
BRANCH  16  19
ATOM     19  O   UNL     1       6.588  -8.684  -0.253  0.00  0.00    -0.506 OA
ATOM     20  H   UNL     1       7.149  -8.020  -0.677  0.00  0.00    +0.292 HD
ENDBRANCH  16  19
ENDBRANCH   3  11
BRANCH   1  24
ATOM     21  C   UNL     1       1.580  -3.796  -2.615  0.00  0.00    +0.121 A 
ATOM     22  C   UNL     1       2.387  -4.324  -3.612  0.00  0.00    +0.046 A 
ATOM     23  C   UNL     1       2.476  -5.694  -3.775  0.00  0.00    +0.009 A 
ATOM     24  C   UNL     1       1.760  -6.537  -2.946  0.00  0.00    -0.022 A 
ATOM     25  C   UNL     1       0.954  -6.013  -1.952  0.00  0.00    +0.009 A 
ATOM     26  C   UNL     1       0.867  -4.645  -1.781  0.00  0.00    +0.046 A 
BRANCH  21  27
ATOM     27  O   UNL     1       1.491  -2.450  -2.453  0.00  0.00    -0.492 OA
BRANCH  27  28
ATOM     28  C   UNL     1       2.252  -1.637  -3.349  0.00  0.00    +0.229 C 
BRANCH  28  29
ATOM     29  C   UNL     1       2.027  -0.161  -3.014  0.00  0.00    +0.041 C 
BRANCH  29  31
ATOM     30  C   UNL     1       2.616   2.185  -3.639  0.00  0.00    +0.004 C 
ATOM     31  C   UNL     1       2.842   0.709  -3.973  0.00  0.00    -0.000 C 
ENDBRANCH  29  31
ENDBRANCH  28  29
ENDBRANCH  27  28
ENDBRANCH  21  27
ENDBRANCH   1  24
BRANCH  10  32
ATOM     32  C   UNL     1       0.337  -8.135  -5.246  0.00  0.00    +0.144 C 
BRANCH  32  33
ATOM     33  C   UNL     1       0.411  -6.788  -5.917  0.00  0.00    -0.030 A 
ATOM     34  C   UNL     1      -0.012  -5.657  -5.243  0.00  0.00    +0.009 A 
ATOM     35  C   UNL     1       0.054  -4.421  -5.856  0.00  0.00    +0.046 A 
ATOM     36  C   UNL     1       0.547  -4.314  -7.148  0.00  0.00    +0.120 A 
ATOM     37  C   UNL     1       0.971  -5.450  -7.822  0.00  0.00    +0.046 A 
ATOM     38  C   UNL     1       0.907  -6.684  -7.203  0.00  0.00    +0.009 A 
BRANCH  36  39
ATOM     39  O   UNL     1       0.613  -3.099  -7.753  0.00  0.00    -0.495 OA
ATOM     40  C   UNL     1       1.131  -3.065  -9.085  0.00  0.00    +0.277 C 
ENDBRANCH  36  39
ENDBRANCH  32  33
ENDBRANCH  10  32
TORSDOF 10
