REMARK  Name = ZINC16927760
REMARK  11 active torsions:
REMARK  status: ('A' for Active; 'I' for Inactive)
REMARK    1  A    between atoms: C_1  and  C_2
REMARK    2  A    between atoms: C_2  and  N_3
REMARK    3  A    between atoms: C_7  and  C_8
REMARK    4  A    between atoms: C_10  and  O_17
REMARK    5  A    between atoms: C_11  and  O_16
REMARK    6  A    between atoms: C_12  and  O_14
REMARK    7  A    between atoms: O_14  and  C_15
REMARK    8  A    between atoms: O_17  and  C_18
REMARK    9  A    between atoms: N_21  and  C_22
REMARK   10  A    between atoms: C_25  and  O_30
REMARK   11  A    between atoms: C_27  and  C_28
REMARK                            x       y       z     vdW  Elec       q    Type
REMARK                         _______ _______ _______ _____ _____    ______ ____
ROOT
ATOM      1  N   UNL     1       0.769   0.996  -0.915  0.00  0.00    -0.246 N 
ATOM      2  C   UNL     1      -0.430   0.545  -0.589  0.00  0.00    +0.259 C 
ATOM      3  O   UNL     1      -1.317   1.296  -0.227  0.00  0.00    -0.269 OA
ATOM      4  C   UNL     1      -0.647  -0.911  -0.688  0.00  0.00    +0.078 C 
ATOM      5  C   UNL     1      -1.763  -1.637  -0.421  0.00  0.00    +0.028 C 
ATOM      6  S   UNL     1       0.955  -1.463  -1.257  0.00  0.00    -0.049 S 
ATOM      7  C   UNL     1       1.757   0.131  -1.326  0.00  0.00    +0.168 C 
ATOM      8  N   UNL     1       2.993   0.410  -1.683  0.00  0.00    -0.225 NA
ENDROOT
BRANCH   5   9
ATOM      9  C   UNL     1      -1.811  -3.063  -0.765  0.00  0.00    -0.017 A 
ATOM     10  C   UNL     1      -0.795  -3.633  -1.541  0.00  0.00    +0.057 A 
ATOM     11  C   UNL     1      -0.841  -4.977  -1.858  0.00  0.00    +0.166 A 
ATOM     12  C   UNL     1      -1.902  -5.763  -1.415  0.00  0.00    +0.201 A 
ATOM     13  C   UNL     1      -2.917  -5.199  -0.647  0.00  0.00    +0.166 A 
ATOM     14  C   UNL     1      -2.876  -3.857  -0.322  0.00  0.00    +0.057 A 
BRANCH  13  15
ATOM     15  O   UNL     1      -3.952  -5.971  -0.218  0.00  0.00    -0.491 OA
ATOM     16  C   UNL     1      -4.959  -5.327   0.565  0.00  0.00    +0.277 C 
ENDBRANCH  13  15
BRANCH  12  17
ATOM     17  O   UNL     1      -1.946  -7.084  -1.734  0.00  0.00    -0.501 OA
ATOM     18  H   UNL     1      -2.409  -7.274  -2.562  0.00  0.00    +0.292 HD
ENDBRANCH  12  17
BRANCH  11  19
ATOM     19  O   UNL     1       0.148  -5.532  -2.608  0.00  0.00    -0.491 OA
ATOM     20  C   UNL     1       1.206  -4.668  -3.029  0.00  0.00    +0.277 C 
ENDBRANCH  11  19
ENDBRANCH   5   9
BRANCH   8  21
ATOM     21  C   UNL     1       3.869  -0.597  -1.950  0.00  0.00    +0.081 A 
ATOM     22  C   UNL     1       3.950  -1.703  -1.099  0.00  0.00    +0.032 A 
ATOM     23  C   UNL     1       4.837  -2.720  -1.372  0.00  0.00    +0.047 A 
ATOM     24  C   UNL     1       5.658  -2.659  -2.494  0.00  0.00    +0.118 A 
ATOM     25  C   UNL     1       5.594  -1.576  -3.349  0.00  0.00    +0.062 A 
ATOM     26  C   UNL     1       4.697  -0.535  -3.091  0.00  0.00    +0.092 A 
BRANCH  26  27
ATOM     27  C   UNL     1       4.620   0.619  -4.000  0.00  0.00    +0.389 C 
ATOM     28  O   UNL     1       3.841   1.523  -3.770  0.00  0.00    -0.241 OA
ATOM     29  O   UNL     1       5.413   0.673  -5.089  0.00  0.00    -0.241 OA
ENDBRANCH  26  27
BRANCH  24  30
ATOM     30  O   UNL     1       6.528  -3.672  -2.751  0.00  0.00    -0.507 OA
ATOM     31  H   UNL     1       6.160  -4.377  -3.301  0.00  0.00    +0.292 HD
ENDBRANCH  24  30
ENDBRANCH   8  21
BRANCH   1  33
ATOM     32  C   UNL     1       1.578   2.774   0.557  0.00  0.00    +0.025 C 
ATOM     33  C   UNL     1       1.048   2.432  -0.837  0.00  0.00    +0.112 C 
ENDBRANCH   1  33
TORSDOF 8
