REMARK  Name = ZINC15006653
REMARK  7 active torsions:
REMARK  status: ('A' for Active; 'I' for Inactive)
REMARK    1  A    between atoms: C_6  and  C_7
REMARK    2  A    between atoms: C_7  and  N_63
REMARK    3  A    between atoms: C_10  and  C_13
REMARK    4  A    between atoms: C_10  and  O_33
REMARK    5  A    between atoms: C_20  and  C_22
REMARK    6  A    between atoms: N_24  and  C_25
REMARK    7  A    between atoms: C_25  and  C_26
REMARK                            x       y       z     vdW  Elec       q    Type
REMARK                         _______ _______ _______ _____ _____    ______ ____
ROOT
ATOM      1  C   UNL     1       1.205  -0.698  -0.013  0.00  0.00    -0.015 A 
ATOM      2  C   UNL     1       0.002  -0.004   0.002  0.00  0.00    +0.010 A 
ATOM      3  C   UNL     1      -0.017   1.374   0.010  0.00  0.00    +0.047 A 
ATOM      4  C   UNL     1       1.180   2.082   0.002  0.00  0.00    +0.136 A 
ATOM      5  C   UNL     1       2.396   1.374  -0.014  0.00  0.00    +0.021 A 
ATOM      6  C   UNL     1       2.393  -0.023  -0.021  0.00  0.00    +0.018 A 
ATOM      7  C   UNL     1       3.446   2.391  -0.018  0.00  0.00    +0.063 A 
ATOM      8  C   UNL     1       2.809   3.591  -0.006  0.00  0.00    +0.190 A 
ATOM      9  O   UNL     1       1.474   3.397   0.006  0.00  0.00    -0.450 OA
ENDROOT
BRANCH   1  12
ATOM     10  C   UNL     1      -0.076  -4.245   0.647  0.00  0.00    -0.075 C 
ATOM     11  C   UNL     1      -0.045  -2.716   0.710  0.00  0.00    +0.021 C 
ATOM     12  C   UNL     1       1.200  -2.204  -0.020  0.00  0.00    +0.088 C 
ATOM     13  C   UNL     1       1.177  -2.709  -1.466  0.00  0.00    +0.021 C 
ATOM     14  C   UNL     1       1.110  -4.238  -1.466  0.00  0.00    -0.075 C 
ATOM     15  N   UNL     1      -0.122  -4.665  -0.770  0.00  0.00    +0.383 N 
ATOM     16  H   UNL     1      -0.930  -4.222  -1.223  0.00  0.00    -0.081 HD
BRANCH  12  17
ATOM     17  O   UNL     1       2.372  -2.689   0.637  0.00  0.00    -0.384 OA
ATOM     18  H   UNL     1       3.200  -2.405   0.226  0.00  0.00    +0.211 HD
ENDBRANCH  12  17
BRANCH  15  19
ATOM     19  C   UNL     1      -0.268  -6.133  -0.856  0.00  0.00    -0.043 C 
BRANCH  19  25
ATOM     20  C   UNL     1      -1.103  -6.622  -3.164  0.00  0.00    +0.005 A 
ATOM     21  C   UNL     1      -0.897  -7.016  -4.473  0.00  0.00    +0.041 A 
ATOM     22  C   UNL     1       0.372  -7.368  -4.898  0.00  0.00    +0.158 A 
ATOM     23  C   UNL     1       1.437  -7.319  -4.010  0.00  0.00    +0.159 A 
ATOM     24  C   UNL     1       1.228  -6.919  -2.702  0.00  0.00    +0.043 A 
ATOM     25  C   UNL     1      -0.041  -6.568  -2.281  0.00  0.00    -0.061 A 
ATOM     26  F   UNL     1       2.677  -7.662  -4.423  0.00  0.00    -0.202 F 
ATOM     27  F   UNL     1       0.573  -7.758  -6.175  0.00  0.00    -0.202 F 
ENDBRANCH  19  25
ENDBRANCH  15  19
ENDBRANCH   1  12
BRANCH   8  28
ATOM     28  C   UNL     1       3.474   4.902  -0.005  0.00  0.00    +0.279 C 
ATOM     29  O   UNL     1       4.688   4.968  -0.016  0.00  0.00    -0.267 OA
ATOM     30  N   UNL     1       2.737   6.030   0.008  0.00  0.00    -0.306 N 
ATOM     31  H   UNL     1       1.769   5.977   0.017  0.00  0.00    +0.149 HD
BRANCH  30  32
ATOM     32  C   UNL     1       3.400   7.337   0.009  0.00  0.00    +0.138 C 
BRANCH  32  33
ATOM     33  C   UNL     1       2.344   8.444   0.025  0.00  0.00    +0.161 C 
ATOM     34  C   UNL     1       3.035   9.811   0.022  0.00  0.00    +0.193 C 
ATOM     35  O   UNL     1       2.043  10.838  -0.077  0.00  0.00    -0.375 OA
ATOM     36  C   UNL     1       1.216  10.726  -1.239  0.00  0.00    +0.188 C 
ATOM     37  C   UNL     1       0.525   9.360  -1.235  0.00  0.00    +0.188 C 
ATOM     38  O   UNL     1       1.517   8.333  -1.137  0.00  0.00    -0.370 OA
ENDBRANCH  32  33
ENDBRANCH  30  32
ENDBRANCH   8  28
TORSDOF 7
