REMARK  Name = ZINC61978718
REMARK  4 active torsions:
REMARK  status: ('A' for Active; 'I' for Inactive)
REMARK    1  A    between atoms: C_3  and  N_9
REMARK    2  A    between atoms: C_10  and  C_12
REMARK    3  A    between atoms: N_14  and  C_15
REMARK    4  A    between atoms: C_15  and  C_16
REMARK                            x       y       z     vdW  Elec       q    Type
REMARK                         _______ _______ _______ _____ _____    ______ ____
ROOT
ATOM      1  C   UNL     1       4.848   4.228  -0.237  0.00  0.00    +0.300 C 
ATOM      2  O   UNL     1       5.905   3.632  -0.250  0.00  0.00    -0.265 OA
ATOM      3  N   UNL     1       4.831   5.573  -0.332  0.00  0.00    -0.302 N 
ATOM      4  H   UNL     1       3.986   6.049  -0.322  0.00  0.00    +0.150 HD
ENDROOT
BRANCH   1   6
ATOM      5  N   UNL     1       3.583   2.128  -0.021  0.00  0.00    -0.275 N 
ATOM      6  C   UNL     1       3.566   3.472  -0.116  0.00  0.00    +0.303 C 
ATOM      7  O   UNL     1       2.509   4.068  -0.103  0.00  0.00    -0.265 OA
ATOM      8  H   UNL     1       4.428   1.657   0.049  0.00  0.00    +0.155 HD
BRANCH   5  11
ATOM      9  C   UNL     1       0.065   1.244  -0.621  0.00  0.00    +0.022 A 
ATOM     10  C   UNL     1       1.250   1.954  -0.619  0.00  0.00    +0.027 A 
ATOM     11  C   UNL     1       2.382   1.411  -0.024  0.00  0.00    +0.069 A 
ATOM     12  C   UNL     1       2.318   0.154   0.568  0.00  0.00    +0.146 A 
ATOM     13  C   UNL     1       1.129  -0.551   0.562  0.00  0.00    +0.060 A 
ATOM     14  C   UNL     1       0.004  -0.007  -0.031  0.00  0.00    +0.044 A 
ATOM     15 CL   UNL     1      -1.488  -0.895  -0.037  0.00  0.00    -0.083 Cl
ATOM     16  F   UNL     1       3.417  -0.378   1.147  0.00  0.00    -0.203 F 
ENDBRANCH   5  11
ENDBRANCH   1   6
BRANCH   3  17
ATOM     17  C   UNL     1       6.089   6.315  -0.451  0.00  0.00    +0.161 C 
BRANCH  17  18
ATOM     18  C   UNL     1       5.795   7.790  -0.540  0.00  0.00    +0.078 A 
ATOM     19  C   UNL     1       5.797   8.655   0.487  0.00  0.00    +0.118 A 
ATOM     20  N   UNL     1       5.479   9.913  -0.018  0.00  0.00    -0.300 N 
ATOM     21  C   UNL     1       5.312  11.198   0.452  0.00  0.00    +0.100 A 
ATOM     22  C   UNL     1       4.990  12.191  -0.376  0.00  0.00    +0.067 A 
ATOM     23  S   UNL     1       4.897  11.345  -1.947  0.00  0.00    -0.058 S 
ATOM     24  C   UNL     1       5.300   9.716  -1.361  0.00  0.00    +0.178 A 
ATOM     25  N   UNL     1       5.493   8.464  -1.661  0.00  0.00    -0.225 NA
ENDBRANCH  17  18
ENDBRANCH   3  17
TORSDOF 4
