REMARK  Name = ZINC54909618
REMARK  5 active torsions:
REMARK  status: ('A' for Active; 'I' for Inactive)
REMARK    1  A    between atoms: C_1  and  N_2
REMARK    2  A    between atoms: N_2  and  C_3
REMARK    3  A    between atoms: N_13  and  C_14
REMARK    4  A    between atoms: N_13  and  C_15
REMARK    5  A    between atoms: C_15  and  C_16
REMARK                            x       y       z     vdW  Elec       q    Type
REMARK                         _______ _______ _______ _____ _____    ______ ____
ROOT
ATOM      1  C   UNL     1       0.791  -0.862  -1.075  0.00  0.00    -0.033 C 
ATOM      2  C   UNL     1       0.680  -2.395  -1.082  0.00  0.00    -0.010 C 
ATOM      3  C   UNL     1       1.686  -2.958  -2.090  0.00  0.00    +0.005 C 
ATOM      4  C   UNL     1       3.113  -2.769  -1.571  0.00  0.00    +0.056 C 
ATOM      5  C   UNL     1       3.306  -1.306  -1.197  0.00  0.00    +0.052 A 
ATOM      6  C   UNL     1       2.235  -0.499  -0.989  0.00  0.00    +0.000 A 
ATOM      7  S   UNL     1       2.989   1.054  -0.597  0.00  0.00    -0.059 S 
ATOM      8  C   UNL     1       4.595   0.558  -0.728  0.00  0.00    +0.161 A 
ATOM      9  N   UNL     1       4.490  -0.715  -1.049  0.00  0.00    -0.230 NA
ATOM     10  N   UNL     1       5.746   1.308  -0.541  0.00  0.00    -0.308 N 
ATOM     11  C   UNL     1       5.648   2.725  -0.182  0.00  0.00    +0.131 C 
ENDROOT
BRANCH   1  13
ATOM     12  C   UNL     1      -1.367  -0.558  -0.073  0.00  0.00    -0.100 C 
ATOM     13  N   UNL     1       0.073  -0.318   0.086  0.00  0.00    +0.382 N 
ATOM     14  H   UNL     1       0.244   0.674   0.152  0.00  0.00    -0.085 HD
ATOM     15  H   UNL     1       0.400  -0.772   0.926  0.00  0.00    -0.085 HD
ENDBRANCH   1  13
BRANCH  10  16
ATOM     16  C   UNL     1       7.061   0.683  -0.704  0.00  0.00    +0.143 C 
BRANCH  16  17
ATOM     17  C   UNL     1       7.464   0.731  -2.155  0.00  0.00    -0.012 A 
ATOM     18  C   UNL     1       6.685   1.419  -3.067  0.00  0.00    +0.006 A 
ATOM     19  C   UNL     1       7.055   1.464  -4.398  0.00  0.00    +0.000 A 
ATOM     20  C   UNL     1       8.204   0.820  -4.819  0.00  0.00    +0.001 A 
ATOM     21  C   UNL     1       8.983   0.132  -3.908  0.00  0.00    +0.020 A 
ATOM     22  C   UNL     1       8.617   0.092  -2.575  0.00  0.00    +0.046 A 
ATOM     23 CL   UNL     1       9.599  -0.767  -1.430  0.00  0.00    -0.083 Cl
ENDBRANCH  16  17
ENDBRANCH  10  16
TORSDOF 3
