REMARK  Name = ZINC45994715
REMARK  7 active torsions:
REMARK  status: ('A' for Active; 'I' for Inactive)
REMARK    1  A    between atoms: C_1  and  C_2
REMARK    2  A    between atoms: C_2  and  C_3
REMARK    3  A    between atoms: C_6  and  N_9
REMARK    4  A    between atoms: N_14  and  C_15
REMARK    5  A    between atoms: C_15  and  C_16
REMARK    6  A    between atoms: N_18  and  C_19
REMARK    7  A    between atoms: C_22  and  C_26
REMARK                            x       y       z     vdW  Elec       q    Type
REMARK                         _______ _______ _______ _____ _____    ______ ____
ROOT
ATOM      1  N   UNL     1       2.826  -1.964  -4.899  0.00  0.00    -0.214 N 
ATOM      2  C   UNL     1       2.342  -2.262  -6.125  0.00  0.00    +0.279 A 
ATOM      3  O   UNL     1       1.166  -2.321  -6.439  0.00  0.00    -0.265 OA
ATOM      4  C   UNL     1       3.431  -2.488  -6.970  0.00  0.00    +0.085 A 
ATOM      5  C   UNL     1       4.579  -2.324  -6.242  0.00  0.00    +0.226 A 
ATOM      6  N   UNL     1       4.227  -1.996  -4.967  0.00  0.00    -0.236 N 
ATOM      7  O   UNL     1       5.808  -2.472  -6.775  0.00  0.00    -0.438 OA
ATOM      8  C   UNL     1       5.922  -2.486  -8.131  0.00  0.00    +0.134 A 
ATOM      9  C   UNL     1       7.192  -2.315  -8.678  0.00  0.00    +0.048 A 
ATOM     10  C   UNL     1       7.367  -2.320 -10.046  0.00  0.00    +0.023 A 
ATOM     11  C   UNL     1       6.278  -2.495 -10.882  0.00  0.00    +0.041 A 
ATOM     12  C   UNL     1       5.017  -2.665 -10.343  0.00  0.00    +0.027 A 
ATOM     13  C   UNL     1       4.835  -2.662  -8.970  0.00  0.00    +0.001 A 
ATOM     14  C   UNL     1       3.437  -2.852  -8.431  0.00  0.00    +0.085 C 
ATOM     15 CL   UNL     1       6.495  -2.501 -12.604  0.00  0.00    -0.084 Cl
ENDROOT
BRANCH   1  19
ATOM     16  C   UNL     1       0.556  -1.088  -1.518  0.00  0.00    -0.047 A 
ATOM     17  C   UNL     1       1.590  -2.003  -1.437  0.00  0.00    +0.006 A 
ATOM     18  C   UNL     1       2.344  -2.296  -2.556  0.00  0.00    +0.028 A 
ATOM     19  C   UNL     1       2.064  -1.670  -3.764  0.00  0.00    +0.067 A 
ATOM     20  C   UNL     1       1.025  -0.752  -3.842  0.00  0.00    +0.028 A 
ATOM     21  C   UNL     1       0.271  -0.467  -2.720  0.00  0.00    +0.006 A 
BRANCH  16  23
ATOM     22  C   UNL     1      -1.453  -1.732  -0.216  0.00  0.00    +0.009 C 
ATOM     23  C   UNL     1      -0.265  -0.771  -0.295  0.00  0.00    +0.032 C 
ENDBRANCH  16  23
ENDBRANCH   1  19
BRANCH   6  24
ATOM     24  C   UNL     1       5.149  -1.727  -3.861  0.00  0.00    +0.241 C 
BRANCH  24  25
ATOM     25  C   UNL     1       5.553  -3.028  -3.216  0.00  0.00    +0.239 C 
ATOM     26  O   UNL     1       5.114  -4.077  -3.639  0.00  0.00    -0.273 OA
ATOM     27  N   UNL     1       6.402  -3.027  -2.170  0.00  0.00    -0.283 N 
ATOM     28  H   UNL     1       6.694  -2.186  -1.782  0.00  0.00    +0.155 HD
BRANCH  27  29
ATOM     29  C   UNL     1       6.864  -4.238  -1.641  0.00  0.00    +0.052 A 
ATOM     30  C   UNL     1       6.801  -5.398  -2.402  0.00  0.00    +0.025 A 
ATOM     31  C   UNL     1       7.258  -6.591  -1.878  0.00  0.00    +0.005 A 
ATOM     32  C   UNL     1       7.778  -6.633  -0.597  0.00  0.00    -0.049 A 
ATOM     33  C   UNL     1       7.842  -5.480   0.164  0.00  0.00    +0.025 A 
ATOM     34  C   UNL     1       7.392  -4.281  -0.356  0.00  0.00    +0.062 A 
ATOM     35 CL   UNL     1       7.479  -2.833   0.596  0.00  0.00    -0.082 Cl
ATOM     36  C   UNL     1       8.274  -7.937  -0.029  0.00  0.00    +0.044 C 
ENDBRANCH  27  29
ENDBRANCH  24  25
ENDBRANCH   6  24
TORSDOF 5
