REMARK  Name = ZINC30295846
REMARK  7 active torsions:
REMARK  status: ('A' for Active; 'I' for Inactive)
REMARK    1  A    between atoms: C_4  and  N_7
REMARK    2  A    between atoms: N_14  and  N_15
REMARK    3  A    between atoms: C_16  and  C_17
REMARK    4  A    between atoms: C_21  and  O_23
REMARK    5  A    between atoms: O_23  and  C_24
REMARK    6  A    between atoms: C_24  and  C_26
REMARK    7  A    between atoms: N_31  and  C_32
REMARK                            x       y       z     vdW  Elec       q    Type
REMARK                         _______ _______ _______ _____ _____    ______ ____
ROOT
ATOM      1  N   UNL     1       4.566  -0.592   0.658  0.00  0.00    -0.283 N 
ATOM      2  C   UNL     1       4.367  -1.876   0.190  0.00  0.00    +0.225 A 
ATOM      3  N   UNL     1       5.409  -2.627  -0.153  0.00  0.00    -0.181 NA
ATOM      4  C   UNL     1       5.218  -3.863  -0.604  0.00  0.00    +0.225 A 
ATOM      5  N   UNL     1       3.985  -4.348  -0.711  0.00  0.00    -0.179 NA
ATOM      6  C   UNL     1       2.943  -3.597  -0.367  0.00  0.00    +0.241 A 
ATOM      7  N   UNL     1       3.135  -2.363   0.088  0.00  0.00    -0.179 NA
ATOM      8  N   UNL     1       1.662  -4.101  -0.478  0.00  0.00    -0.205 N 
ATOM      9  N   UNL     1       6.301  -4.643  -0.961  0.00  0.00    -0.283 N 
ATOM     10  H   UNL     1       5.456  -0.206   0.654  0.00  0.00    +0.155 HD
ATOM     11  H   UNL     1       1.522  -5.003  -0.807  0.00  0.00    +0.177 HD
ATOM     12  H   UNL     1       7.203  -4.321  -0.807  0.00  0.00    +0.155 HD
ENDROOT
BRANCH   1  16
ATOM     13  C   UNL     1       1.344   1.625   2.092  0.00  0.00    +0.000 A 
ATOM     14  C   UNL     1       1.362   0.252   2.250  0.00  0.00    +0.002 A 
ATOM     15  C   UNL     1       2.428  -0.486   1.776  0.00  0.00    +0.023 A 
ATOM     16  C   UNL     1       3.485   0.153   1.139  0.00  0.00    +0.034 A 
ATOM     17  C   UNL     1       3.464   1.532   0.981  0.00  0.00    +0.023 A 
ATOM     18  C   UNL     1       2.394   2.265   1.458  0.00  0.00    +0.002 A 
ENDBRANCH   1  16
BRANCH   9  19
ATOM     19  C   UNL     1       6.097  -5.897  -1.545  0.00  0.00    +0.034 A 
ATOM     20  C   UNL     1       5.005  -6.108  -2.378  0.00  0.00    +0.023 A 
ATOM     21  C   UNL     1       4.807  -7.348  -2.954  0.00  0.00    +0.002 A 
ATOM     22  C   UNL     1       5.693  -8.379  -2.701  0.00  0.00    +0.000 A 
ATOM     23  C   UNL     1       6.781  -8.172  -1.872  0.00  0.00    +0.002 A 
ATOM     24  C   UNL     1       6.988  -6.934  -1.298  0.00  0.00    +0.023 A 
ENDBRANCH   9  19
BRANCH   8  25
ATOM     25  N   UNL     1       0.564  -3.310  -0.117  0.00  0.00    -0.188 NA
ATOM     26  C   UNL     1      -0.629  -3.821  -0.106  0.00  0.00    +0.138 C 
BRANCH  26  27
ATOM     27  C   UNL     1      -0.806  -5.276   0.059  0.00  0.00    -0.002 A 
ATOM     28  C   UNL     1       0.277  -6.077   0.430  0.00  0.00    +0.010 A 
ATOM     29  C   UNL     1       0.106  -7.437   0.583  0.00  0.00    +0.004 A 
ATOM     30  C   UNL     1      -1.134  -8.012   0.371  0.00  0.00    +0.046 A 
ATOM     31  C   UNL     1      -2.216  -7.224   0.002  0.00  0.00    +0.133 A 
ATOM     32  C   UNL     1      -2.058  -5.857  -0.149  0.00  0.00    +0.055 A 
BRANCH  31  33
ATOM     33  O   UNL     1      -3.432  -7.795  -0.206  0.00  0.00    -0.420 OA
BRANCH  33  34
ATOM     34  C   UNL     1      -3.847  -7.955  -1.480  0.00  0.00    +0.380 C 
ATOM     35  O   UNL     1      -3.102  -7.679  -2.401  0.00  0.00    -0.241 OA
BRANCH  34  36
ATOM     36  C   UNL     1      -5.194  -8.460  -1.753  0.00  0.00    +0.212 A 
ATOM     37  C   UNL     1      -5.737  -8.673  -2.989  0.00  0.00    +0.056 A 
ATOM     38  C   UNL     1      -7.037  -9.156  -2.780  0.00  0.00    +0.042 A 
ATOM     39  C   UNL     1      -7.230  -9.216  -1.444  0.00  0.00    +0.196 A 
ATOM     40  O   UNL     1      -6.116  -8.801  -0.828  0.00  0.00    -0.456 OA
ENDBRANCH  34  36
ENDBRANCH  33  34
ENDBRANCH  31  33
ENDBRANCH  26  27
ENDBRANCH   8  25
TORSDOF 7
