REMARK  Name = ZINC05191736
REMARK  5 active torsions:
REMARK  status: ('A' for Active; 'I' for Inactive)
REMARK    1  A    between atoms: C_1  and  C_2
REMARK    2  A    between atoms: C_2  and  O_3
REMARK    3  A    between atoms: O_3  and  C_4
REMARK    4  A    between atoms: C_7  and  N_10
REMARK    5  A    between atoms: C_12  and  N_17
REMARK                            x       y       z     vdW  Elec       q    Type
REMARK                         _______ _______ _______ _____ _____    ______ ____
ROOT
ATOM      1  N   UNL     1       0.002  -0.004   0.002  0.00  0.00    -0.270 N 
ATOM      2  C   UNL     1      -0.022   1.463  -0.005  0.00  0.00    +0.136 C 
ATOM      3  C   UNL     1       1.459   1.900  -0.010  0.00  0.00    +0.101 C 
ATOM      4  C   UNL     1       2.147   0.675  -0.656  0.00  0.00    +0.120 C 
ATOM      5  C   UNL     1       1.207  -0.474  -0.365  0.00  0.00    +0.222 C 
ATOM      6  O   UNL     1       1.498  -1.648  -0.451  0.00  0.00    -0.275 OA
ENDROOT
BRANCH   3   7
ATOM      7  N   UNL     1       1.947   2.117   1.355  0.00  0.00    -0.294 N 
ATOM      8  C   UNL     1       2.984   2.949   1.575  0.00  0.00    +0.302 C 
ATOM      9  O   UNL     1       3.514   3.521   0.643  0.00  0.00    -0.253 OA
ATOM     10  N   UNL     1       3.432   3.148   2.831  0.00  0.00    -0.286 N 
ATOM     11  C   UNL     1       2.776   2.458   3.919  0.00  0.00    +0.109 C 
ATOM     12  C   UNL     1       1.606   3.311   4.452  0.00  0.00    +0.019 C 
ATOM     13  C   UNL     1       2.118   4.482   5.180  0.00  0.00    +0.002 C 
ATOM     14  C   UNL     1       2.932   5.448   4.324  0.00  0.00    +0.002 C 
ATOM     15  C   UNL     1       4.364   4.977   4.263  0.00  0.00    +0.019 C 
ATOM     16  C   UNL     1       4.569   4.066   3.038  0.00  0.00    +0.109 C 
ATOM     17  H   UNL     1       1.524   1.661   2.099  0.00  0.00    +0.151 HD
ENDBRANCH   3   7
BRANCH   1  21
ATOM     18  C   UNL     1      -3.249  -2.407   1.026  0.00  0.00    +0.121 A 
ATOM     19  C   UNL     1      -3.334  -1.029   1.165  0.00  0.00    +0.047 A 
ATOM     20  C   UNL     1      -2.258  -0.233   0.826  0.00  0.00    +0.027 A 
ATOM     21  C   UNL     1      -1.090  -0.811   0.346  0.00  0.00    +0.037 A 
ATOM     22  C   UNL     1      -1.007  -2.190   0.203  0.00  0.00    +0.027 A 
ATOM     23  C   UNL     1      -2.082  -2.985   0.547  0.00  0.00    +0.047 A 
BRANCH  18  24
ATOM     24  O   UNL     1      -4.309  -3.190   1.359  0.00  0.00    -0.492 OA
BRANCH  24  26
ATOM     25  C   UNL     1      -5.438  -5.311   1.615  0.00  0.00    +0.048 C 
ATOM     26  C   UNL     1      -4.151  -4.601   1.191  0.00  0.00    +0.225 C 
ENDBRANCH  24  26
ENDBRANCH  18  24
ENDBRANCH   1  21
TORSDOF 4
