REMARK  Name = ZINC20504769
REMARK  2 active torsions:
REMARK  status: ('A' for Active; 'I' for Inactive)
REMARK    1  A    between atoms: C_5  and  N_8
REMARK    2  A    between atoms: C_9  and  C_11
REMARK                            x       y       z     vdW  Elec       q    Type
REMARK                         _______ _______ _______ _____ _____    ______ ____
ROOT
ATOM      1  N   UNL     1      -3.543  -1.248  -2.687  0.00  0.00    -0.285 N 
ATOM      2  C   UNL     1      -3.050  -1.574  -1.475  0.00  0.00    +0.203 C 
ATOM      3  O   UNL     1      -3.304  -2.656  -0.988  0.00  0.00    -0.277 OA
ATOM      4  H   UNL     1      -3.383  -0.238  -3.092  0.00  0.00    +0.155 HD
ENDROOT
BRANCH   2   5
ATOM      5  C   UNL     1      -2.185  -0.594  -0.725  0.00  0.00    +0.017 C 
ATOM      6  C   UNL     1      -3.069   0.467  -0.030  0.00  0.00    -0.005 C 
ATOM      7  C   UNL     1      -2.306   0.714   1.309  0.00  0.00    -0.026 C 
ATOM      8  C   UNL     1      -1.097   1.588   0.969  0.00  0.00    +0.002 C 
ATOM      9  C   UNL     1      -0.070   1.548   2.098  0.00  0.00    +0.000 C 
ATOM     10  C   UNL     1       0.420   0.128   2.291  0.00  0.00    -0.002 C 
ATOM     11  C   UNL     1      -0.763  -0.748   2.701  0.00  0.00    -0.015 C 
ATOM     12  C   UNL     1      -1.853  -0.720   1.652  0.00  0.00    -0.068 C 
ATOM     13  N   UNL     1      -1.435  -1.295   0.341  0.00  0.00    +0.389 N 
ATOM     14  H   UNL     1      -1.666  -2.370   0.306  0.00  0.00    -0.084 HD
ATOM     15  H   UNL     1      -0.355  -1.147   0.188  0.00  0.00    -0.084 HD
ENDBRANCH   2   5
BRANCH   1  20
ATOM     16  C   UNL     1      -4.294  -3.988  -5.024  0.00  0.00    +0.032 A 
ATOM     17  C   UNL     1      -5.670  -4.070  -4.899  0.00  0.00    +0.020 A 
ATOM     18  C   UNL     1      -6.341  -3.216  -4.041  0.00  0.00    +0.032 A 
ATOM     19  C   UNL     1      -5.638  -2.280  -3.306  0.00  0.00    +0.041 A 
ATOM     20  C   UNL     1      -4.257  -2.196  -3.430  0.00  0.00    +0.062 A 
ATOM     21  C   UNL     1      -3.587  -3.050  -4.296  0.00  0.00    +0.041 A 
ATOM     22 BR   UNL     1      -1.708  -2.934  -4.474  0.00  0.00    -0.048 Br
ATOM     23 BR   UNL     1      -6.556  -1.114  -2.134  0.00  0.00    -0.048 Br
ATOM     24 BR   UNL     1      -6.635  -5.350  -5.902  0.00  0.00    -0.050 Br
ENDBRANCH   1  20
TORSDOF 2
