REMARK  Name = ZINC08790422
REMARK  11 active torsions:
REMARK  status: ('A' for Active; 'I' for Inactive)
REMARK    1  A    between atoms: C_1  and  O_2
REMARK    2  A    between atoms: O_2  and  C_3
REMARK    3  A    between atoms: C_6  and  C_9
REMARK    4  A    between atoms: C_9  and  N_10
REMARK    5  A    between atoms: C_11  and  C_13
REMARK    6  A    between atoms: C_13  and  C_15
REMARK    7  A    between atoms: C_13  and  N_19
REMARK    8  A    between atoms: C_15  and  C_16
REMARK    9  A    between atoms: C_16  and  S_17
REMARK   10  A    between atoms: S_17  and  C_18
REMARK   11  A    between atoms: C_20  and  C_22
REMARK                            x       y       z     vdW  Elec       q    Type
REMARK                         _______ _______ _______ _____ _____    ______ ____
ROOT
ATOM      1  C   UNL     1      -6.664  -0.546  -0.755  0.00  0.00    +0.159 C 
ENDROOT
BRANCH   1   3
ATOM      2  N   UNL     1      -7.696  -2.694  -1.415  0.00  0.00    -0.310 N 
ATOM      3  C   UNL     1      -6.642  -1.859  -1.494  0.00  0.00    +0.234 C 
ATOM      4  O   UNL     1      -5.675  -2.164  -2.160  0.00  0.00    -0.274 OA
ATOM      5  H   UNL     1      -8.470  -2.450  -0.883  0.00  0.00    +0.149 HD
BRANCH   2   6
ATOM      6  C   UNL     1      -7.675  -3.971  -2.134  0.00  0.00    +0.139 C 
BRANCH   6  10
ATOM      7  C   UNL     1     -11.329  -6.069  -1.420  0.00  0.00    +0.120 A 
ATOM      8  C   UNL     1     -11.226  -5.197  -2.494  0.00  0.00    +0.046 A 
ATOM      9  C   UNL     1     -10.044  -4.520  -2.723  0.00  0.00    +0.009 A 
ATOM     10  C   UNL     1      -8.963  -4.711  -1.882  0.00  0.00    -0.030 A 
ATOM     11  C   UNL     1      -9.061  -5.584  -0.814  0.00  0.00    +0.009 A 
ATOM     12  C   UNL     1     -10.243  -6.259  -0.578  0.00  0.00    +0.046 A 
BRANCH   7  14
ATOM     13  C   UNL     1     -12.524  -7.617  -0.068  0.00  0.00    +0.277 C 
ATOM     14  O   UNL     1     -12.491  -6.736  -1.193  0.00  0.00    -0.495 OA
ENDBRANCH   7  14
ENDBRANCH   6  10
ENDBRANCH   2   6
ENDBRANCH   1   3
BRANCH   1  15
ATOM     15  N   UNL     1      -5.411   0.173  -1.000  0.00  0.00    -0.305 N 
ATOM     16  C   UNL     1      -4.969   1.081  -0.107  0.00  0.00    +0.200 C 
ATOM     17  O   UNL     1      -5.609   1.301   0.900  0.00  0.00    -0.278 OA
ATOM     18  H   UNL     1      -4.900  -0.003  -1.805  0.00  0.00    +0.149 HD
BRANCH  16  19
ATOM     19  C   UNL     1      -3.681   1.820  -0.358  0.00  0.00    +0.021 C 
ATOM     20  C   UNL     1      -2.496   0.940   0.042  0.00  0.00    +0.028 C 
ATOM     21  C   UNL     1      -1.225   1.749   0.017  0.00  0.00    -0.047 A 
ATOM     22  C   UNL     1      -0.013   1.076   0.008  0.00  0.00    +0.004 A 
ATOM     23  C   UNL     1       1.175   1.779   0.000  0.00  0.00    +0.000 A 
ATOM     24  C   UNL     1       1.157   3.161   0.007  0.00  0.00    +0.000 A 
ATOM     25  C   UNL     1      -0.049   3.832   0.020  0.00  0.00    +0.002 A 
ATOM     26  C   UNL     1      -1.244   3.127   0.027  0.00  0.00    -0.061 A 
ATOM     27  C   UNL     1      -2.535   3.904   0.035  0.00  0.00    -0.045 C 
ATOM     28  N   UNL     1      -3.651   3.047   0.459  0.00  0.00    +0.389 N 
ATOM     29  H   UNL     1      -3.531   2.796   1.447  0.00  0.00    -0.084 HD
ATOM     30  H   UNL     1      -4.535   3.557   0.341  0.00  0.00    -0.084 HD
ENDBRANCH  16  19
ENDBRANCH   1  15
BRANCH   1  31
ATOM     31  C   UNL     1      -7.841   0.297  -1.250  0.00  0.00    +0.042 C 
BRANCH  31  32
ATOM     32  C   UNL     1      -7.939   1.576  -0.415  0.00  0.00    +0.071 C 
BRANCH  32  33
ATOM     33  S   UNL     1      -9.334   2.576  -1.001  0.00  0.00    -0.164 S 
ATOM     34  C   UNL     1      -9.312   4.035   0.077  0.00  0.00    +0.084 C 
ENDBRANCH  32  33
ENDBRANCH  31  32
ENDBRANCH   1  31
TORSDOF 9
