REMARK  Name = ZINC46570292
REMARK  7 active torsions:
REMARK  status: ('A' for Active; 'I' for Inactive)
REMARK    1  A    between atoms: C_1  and  C_2
REMARK    2  A    between atoms: C_2  and  O_3
REMARK    3  A    between atoms: O_3  and  C_4
REMARK    4  A    between atoms: C_4  and  C_6
REMARK    5  A    between atoms: C_7  and  C_8
REMARK    6  A    between atoms: C_11  and  N_14
REMARK    7  A    between atoms: C_15  and  C_17
REMARK                            x       y       z     vdW  Elec       q    Type
REMARK                         _______ _______ _______ _____ _____    ______ ____
ROOT
ATOM      1  N   UNL     1      -8.126  -5.977   0.044  0.00  0.00    -0.285 N 
ATOM      2  C   UNL     1      -8.292  -7.311  -0.061  0.00  0.00    +0.220 C 
ATOM      3  O   UNL     1      -7.326  -8.043  -0.076  0.00  0.00    -0.275 OA
ATOM      4  H   UNL     1      -8.898  -5.397   0.131  0.00  0.00    +0.155 HD
ENDROOT
BRANCH   2   5
ATOM      5  C   UNL     1      -9.680  -7.891  -0.159  0.00  0.00    +0.078 C 
ATOM      6  C   UNL     1     -10.480  -7.514   1.089  0.00  0.00    +0.032 C 
ATOM      7  C   UNL     1     -11.900  -8.076   0.970  0.00  0.00    +0.107 C 
ATOM      8  N   UNL     1     -11.817  -9.522   0.720  0.00  0.00    -0.314 N 
ATOM      9  C   UNL     1     -10.998  -9.999  -0.403  0.00  0.00    +0.107 C 
ATOM     10  C   UNL     1      -9.588  -9.415  -0.268  0.00  0.00    +0.032 C 
ATOM     11  C   UNL     1     -12.500 -10.422   1.531  0.00  0.00    +0.144 A 
ATOM     12  C   UNL     1     -13.440  -9.960   2.453  0.00  0.00    +0.048 A 
ATOM     13  C   UNL     1     -14.093 -10.897   3.237  0.00  0.00    +0.045 A 
ATOM     14  C   UNL     1     -13.772 -12.237   3.058  0.00  0.00    +0.152 A 
ATOM     15  N   UNL     1     -12.869 -12.584   2.162  0.00  0.00    -0.136 NA
ATOM     16  N   UNL     1     -12.265 -11.721   1.428  0.00  0.00    -0.133 NA
ATOM     17 CL   UNL     1     -14.559 -13.453   4.014  0.00  0.00    -0.060 Cl
ENDBRANCH   2   5
BRANCH   1  21
ATOM     18  C   UNL     1      -4.292  -4.346  -0.004  0.00  0.00    -0.025 A 
ATOM     19  C   UNL     1      -4.577  -5.493  -0.756  0.00  0.00    +0.010 A 
ATOM     20  C   UNL     1      -5.844  -6.028  -0.737  0.00  0.00    +0.024 A 
ATOM     21  C   UNL     1      -6.842  -5.431   0.028  0.00  0.00    +0.033 A 
ATOM     22  C   UNL     1      -6.564  -4.292   0.777  0.00  0.00    +0.024 A 
ATOM     23  C   UNL     1      -5.297  -3.753   0.769  0.00  0.00    +0.010 A 
BRANCH  18  25
ATOM     24  C   UNL     1      -1.971  -4.345  -0.768  0.00  0.00    +0.092 C 
ATOM     25  C   UNL     1      -2.940  -3.771  -0.021  0.00  0.00    +0.015 C 
BRANCH  24  26
ATOM     26  C   UNL     1      -0.666  -3.790  -0.785  0.00  0.00    +0.332 C 
ATOM     27  O   UNL     1      -0.419  -2.797  -0.127  0.00  0.00    -0.246 OA
BRANCH  26  28
ATOM     28  O   UNL     1       0.301  -4.363  -1.531  0.00  0.00    -0.462 OA
BRANCH  28  30
ATOM     29  C   UNL     1       2.550  -4.535  -2.400  0.00  0.00    +0.048 C 
ATOM     30  C   UNL     1       1.592  -3.751  -1.500  0.00  0.00    +0.229 C 
ENDBRANCH  28  30
ENDBRANCH  26  28
ENDBRANCH  24  26
ENDBRANCH  18  25
ENDBRANCH   1  21
TORSDOF 6
