REMARK  Name = ZINC64080694
REMARK  10 active torsions:
REMARK  status: ('A' for Active; 'I' for Inactive)
REMARK    1  A    between atoms: C_1  and  C_2
REMARK    2  A    between atoms: C_5  and  O_9
REMARK    3  A    between atoms: C_6  and  C_8
REMARK    4  A    between atoms: O_9  and  C_10
REMARK    5  A    between atoms: C_10  and  C_11
REMARK    6  A    between atoms: N_13  and  N_14
REMARK    7  A    between atoms: N_14  and  C_15
REMARK    8  A    between atoms: C_15  and  N_17
REMARK    9  A    between atoms: N_17  and  C_18
REMARK   10  A    between atoms: C_18  and  C_19
REMARK                            x       y       z     vdW  Elec       q    Type
REMARK                         _______ _______ _______ _____ _____    ______ ____
ROOT
ATOM      1  C   UNL     1       0.079  -6.266  -1.108  0.00  0.00    +0.267 C 
ATOM      2  O   UNL     1       0.090  -6.735   0.010  0.00  0.00    -0.271 OA
ATOM      3  N   UNL     1       0.084  -7.081  -2.182  0.00  0.00    -0.232 N 
ATOM      4  H   UNL     1       0.074  -6.705  -3.076  0.00  0.00    +0.173 HD
ENDROOT
BRANCH   3   5
ATOM      5  N   UNL     1       0.103  -8.471  -2.006  0.00  0.00    -0.246 N 
ATOM      6  H   UNL     1       0.112  -8.846  -1.111  0.00  0.00    +0.172 HD
BRANCH   5   7
ATOM      7  C   UNL     1       0.108  -9.286  -3.079  0.00  0.00    +0.147 C 
ATOM      8  S   UNL     1       0.131 -10.984  -2.864  0.00  0.00    -0.017 S 
BRANCH   7   9
ATOM      9  N   UNL     1       0.095  -8.764  -4.322  0.00  0.00    -0.317 N 
ATOM     10  H   UNL     1       0.082  -7.802  -4.443  0.00  0.00    +0.148 HD
BRANCH   9  11
ATOM     11  C   UNL     1       0.100  -9.650  -5.488  0.00  0.00    +0.216 C 
BRANCH  11  12
ATOM     12  C   UNL     1       0.083  -8.810  -6.767  0.00  0.00    +0.405 C 
ATOM     13  F   UNL     1       1.214  -7.988  -6.800  0.00  0.00    -0.169 F 
ATOM     14  F   UNL     1       0.088  -9.656  -7.881  0.00  0.00    -0.169 F 
ATOM     15  F   UNL     1      -1.070  -8.017  -6.788  0.00  0.00    -0.169 F 
ENDBRANCH  11  12
ENDBRANCH   9  11
ENDBRANCH   7   9
ENDBRANCH   5   7
ENDBRANCH   3   5
BRANCH   1  16
ATOM     16  C   UNL     1       0.058  -4.771  -1.298  0.00  0.00    +0.326 C 
BRANCH  16  17
ATOM     17  O   UNL     1       0.057  -4.129  -0.021  0.00  0.00    -0.482 OA
BRANCH  17  22
ATOM     18  C   UNL     1      -0.018   1.503   0.010  0.00  0.00    +0.044 C 
ATOM     19  C   UNL     1       0.002  -0.004   0.002  0.00  0.00    -0.050 A 
ATOM     20  C   UNL     1       0.006  -0.688  -1.200  0.00  0.00    +0.007 A 
ATOM     21  C   UNL     1       0.024  -2.069  -1.210  0.00  0.00    +0.046 A 
ATOM     22  C   UNL     1       0.039  -2.770  -0.013  0.00  0.00    +0.124 A 
ATOM     23  C   UNL     1       0.036  -2.082   1.191  0.00  0.00    -0.009 A 
ATOM     24  C   UNL     1       0.023  -0.701   1.196  0.00  0.00    +0.010 A 
ATOM     25  C   UNL     1       0.052  -2.841   2.493  0.00  0.00    +0.047 C 
ENDBRANCH  17  22
ENDBRANCH  16  17
ENDBRANCH   1  16
TORSDOF 8
