REMARK  Name = ZINC59154106
REMARK  7 active torsions:
REMARK  status: ('A' for Active; 'I' for Inactive)
REMARK    1  A    between atoms: C_1  and  O_2
REMARK    2  A    between atoms: O_2  and  C_3
REMARK    3  A    between atoms: N_13  and  N_14
REMARK    4  A    between atoms: C_15  and  C_17
REMARK    5  A    between atoms: C_17  and  O_18
REMARK    6  A    between atoms: O_18  and  C_19
REMARK    7  A    between atoms: C_22  and  C_25
REMARK                            x       y       z     vdW  Elec       q    Type
REMARK                         _______ _______ _______ _____ _____    ______ ____
ROOT
ATOM      1  N   UNL     1      -2.682  -6.426   0.015  0.00  0.00    -0.203 N 
ATOM      2  C   UNL     1      -3.585  -7.427   0.021  0.00  0.00    +0.270 C 
ATOM      3  O   UNL     1      -4.771  -7.173   0.030  0.00  0.00    -0.270 OA
ATOM      4  H   UNL     1      -1.733  -6.629   0.008  0.00  0.00    +0.177 HD
ENDROOT
BRANCH   1  15
ATOM      5  C   UNL     1      -1.201  -0.638   0.010  0.00  0.00    +0.142 A 
ATOM      6  C   UNL     1      -2.372   0.101   0.019  0.00  0.00    +0.047 A 
ATOM      7  C   UNL     1      -3.603  -0.532   0.028  0.00  0.00    +0.004 A 
ATOM      8  C   UNL     1      -3.673  -1.911   0.027  0.00  0.00    +0.012 A 
ATOM      9  C   UNL     1      -2.503  -2.663   0.017  0.00  0.00    +0.032 A 
ATOM     10  C   UNL     1      -1.254  -2.031   0.003  0.00  0.00    +0.085 A 
ATOM     11  N   UNL     1      -0.250  -2.996  -0.011  0.00  0.00    -0.277 N 
ATOM     12  C   UNL     1      -0.763  -4.238  -0.013  0.00  0.00    +0.269 C 
ATOM     13  O   UNL     1      -0.127  -5.275  -0.023  0.00  0.00    -0.268 OA
ATOM     14  C   UNL     1      -2.235  -4.120   0.014  0.00  0.00    +0.153 C 
ATOM     15  N   UNL     1      -3.113  -5.093   0.019  0.00  0.00    -0.174 NA
ATOM     16  H   UNL     1       0.699  -2.796  -0.019  0.00  0.00    +0.155 HD
BRANCH   5  18
ATOM     17  C   UNL     1      -0.017   1.425   0.010  0.00  0.00    +0.277 C 
ATOM     18  O   UNL     1       0.002  -0.004   0.002  0.00  0.00    -0.493 OA
ENDBRANCH   5  18
ENDBRANCH   1  15
BRANCH   2  19
ATOM     19  C   UNL     1      -3.121  -8.861   0.017  0.00  0.00    +0.326 C 
BRANCH  19  20
ATOM     20  O   UNL     1      -4.256  -9.729   0.024  0.00  0.00    -0.483 OA
BRANCH  20  21
ATOM     21  C   UNL     1      -4.011 -11.065   0.021  0.00  0.00    +0.121 A 
ATOM     22  C   UNL     1      -2.704 -11.532   0.017  0.00  0.00    +0.046 A 
ATOM     23  C   UNL     1      -2.458 -12.891   0.015  0.00  0.00    +0.007 A 
ATOM     24  C   UNL     1      -3.511 -13.786   0.016  0.00  0.00    -0.044 A 
ATOM     25  C   UNL     1      -4.814 -13.324   0.020  0.00  0.00    +0.007 A 
ATOM     26  C   UNL     1      -5.066 -11.966   0.029  0.00  0.00    +0.046 A 
BRANCH  24  27
ATOM     27  C   UNL     1      -3.239 -15.268   0.013  0.00  0.00    +0.019 C 
ATOM     28  C   UNL     1      -3.860 -15.898  -1.236  0.00  0.00    +0.008 C 
ATOM     29  C   UNL     1      -3.584 -17.403  -1.239  0.00  0.00    +0.001 C 
ATOM     30  C   UNL     1      -4.198 -18.037   0.011  0.00  0.00    +0.000 C 
ATOM     31  C   UNL     1      -3.577 -17.407   1.259  0.00  0.00    +0.001 C 
ATOM     32  C   UNL     1      -3.853 -15.902   1.263  0.00  0.00    +0.008 C 
ENDBRANCH  24  27
ENDBRANCH  20  21
ENDBRANCH  19  20
ENDBRANCH   2  19
TORSDOF 6
