REMARK  Name = ZINC58381713
REMARK  6 active torsions:
REMARK  status: ('A' for Active; 'I' for Inactive)
REMARK    1  A    between atoms: C_1  and  C_2
REMARK    2  A    between atoms: C_7  and  N_8
REMARK    3  A    between atoms: N_8  and  C_9
REMARK    4  A    between atoms: N_12  and  S_15
REMARK    5  A    between atoms: S_15  and  N_18
REMARK    6  A    between atoms: C_23  and  C_25
REMARK                            x       y       z     vdW  Elec       q    Type
REMARK                         _______ _______ _______ _____ _____    ______ ____
ROOT
ATOM      1  C   UNL     1       0.155  -2.069   3.232  0.00  0.00    +0.073 C 
ATOM      2  C   UNL     1      -1.300  -1.813   3.631  0.00  0.00    +0.039 C 
ATOM      3  C   UNL     1      -1.563  -2.429   5.008  0.00  0.00    +0.112 C 
ATOM      4  N   UNL     1      -0.575  -1.901   5.959  0.00  0.00    -0.166 NA
ATOM      5  C   UNL     1       0.853  -2.014   5.630  0.00  0.00    +0.112 C 
ATOM      6  C   UNL     1       1.089  -1.403   4.245  0.00  0.00    +0.039 C 
ENDROOT
BRANCH   4   7
ATOM      7  S   UNL     1      -1.060  -1.193   7.375  0.00  0.00    +0.100 S 
ATOM      8  O   UNL     1      -0.128  -0.156   7.651  0.00  0.00    -0.141 OA
ATOM      9  O   UNL     1      -2.455  -0.949   7.250  0.00  0.00    -0.141 OA
BRANCH   7  10
ATOM     10  N   UNL     1      -0.883  -2.321   8.574  0.00  0.00    -0.164 NA
ATOM     11  C   UNL     1       0.303  -2.311   9.441  0.00  0.00    +0.111 C 
ATOM     12  C   UNL     1      -0.155  -2.286  10.902  0.00  0.00    +0.017 C 
ATOM     13  C   UNL     1      -1.108  -3.457  11.154  0.00  0.00    +0.003 C 
ATOM     14  C   UNL     1      -2.341  -3.314  10.259  0.00  0.00    +0.020 C 
ATOM     15  C   UNL     1      -1.911  -3.347   8.794  0.00  0.00    +0.078 C 
ATOM     16  C   UNL     1      -3.119  -3.063   7.900  0.00  0.00    +0.026 C 
ENDBRANCH   7  10
ENDBRANCH   4   7
BRANCH   1  17
ATOM     17  N   UNL     1       0.402  -1.510   1.900  0.00  0.00    -0.341 N 
ATOM     18  H   UNL     1       0.777  -0.620   1.809  0.00  0.00    +0.146 HD
BRANCH  17  25
ATOM     19  C   UNL     1       0.912  -0.348  -0.646  0.00  0.00    +0.045 C 
ATOM     20  C   UNL     1       0.329  -1.730  -0.502  0.00  0.00    -0.030 A 
ATOM     21  C   UNL     1       0.032  -2.475  -1.626  0.00  0.00    +0.005 A 
ATOM     22  C   UNL     1      -0.504  -3.744  -1.495  0.00  0.00    +0.000 A 
ATOM     23  C   UNL     1      -0.742  -4.271  -0.239  0.00  0.00    +0.002 A 
ATOM     24  C   UNL     1      -0.446  -3.531   0.889  0.00  0.00    +0.023 A 
ATOM     25  C   UNL     1       0.097  -2.259   0.761  0.00  0.00    +0.030 A 
ENDBRANCH  17  25
ENDBRANCH   1  17
TORSDOF 4
