REMARK  Name = ZINC08743560
REMARK  4 active torsions:
REMARK  status: ('A' for Active; 'I' for Inactive)
REMARK    1  A    between atoms: C_9  and  C_11
REMARK    2  A    between atoms: C_12  and  O_26
REMARK    3  A    between atoms: C_14  and  S_25
REMARK    4  A    between atoms: N_15  and  C_18
REMARK                            x       y       z     vdW  Elec       q    Type
REMARK                         _______ _______ _______ _____ _____    ______ ____
ROOT
ATOM      1  C   UNL     1      -1.106  -2.093   0.101  0.00  0.00    +0.069 A 
ATOM      2  C   UNL     1       0.123  -2.719  -0.021  0.00  0.00    +0.222 A 
ATOM      3  N   UNL     1       1.235  -1.986  -0.126  0.00  0.00    -0.188 NA
ATOM      4  C   UNL     1       1.187  -0.669  -0.121  0.00  0.00    +0.177 A 
ATOM      5  N   UNL     1       0.002  -0.004   0.002  0.00  0.00    -0.256 N 
ATOM      6  C   UNL     1      -1.152  -0.695   0.111  0.00  0.00    +0.265 A 
ATOM      7  O   UNL     1      -2.218  -0.109   0.217  0.00  0.00    -0.267 OA
ENDROOT
BRANCH   1  16
ATOM      8  C   UNL     1      -4.731  -2.247  -3.285  0.00  0.00    +0.000 A 
ATOM      9  C   UNL     1      -3.362  -2.418  -3.380  0.00  0.00    +0.000 A 
ATOM     10  C   UNL     1      -2.614  -2.628  -2.239  0.00  0.00    +0.002 A 
ATOM     11  C   UNL     1      -3.228  -2.668  -0.996  0.00  0.00    -0.054 A 
ATOM     12  C   UNL     1      -4.593  -2.495  -0.901  0.00  0.00    -0.047 A 
ATOM     13  C   UNL     1      -5.343  -2.286  -2.049  0.00  0.00    +0.004 A 
ATOM     14  C   UNL     1      -5.303  -2.520   0.427  0.00  0.00    +0.016 C 
ATOM     15  C   UNL     1      -4.405  -3.159   1.487  0.00  0.00    -0.077 C 
ATOM     16  C   UNL     1      -2.371  -2.904   0.220  0.00  0.00    +0.001 C 
ATOM     17  N   UNL     1      -3.085  -2.504   1.440  0.00  0.00    +0.387 N 
ATOM     18  H   UNL     1      -2.537  -2.784   2.262  0.00  0.00    -0.085 HD
ATOM     19  H   UNL     1      -3.210  -1.485   1.443  0.00  0.00    -0.085 HD
ENDBRANCH   1  16
BRANCH   5  20
ATOM     20  C   UNL     1      -0.017   1.397   0.010  0.00  0.00    +0.052 A 
ATOM     21  C   UNL     1      -0.143   2.098  -1.183  0.00  0.00    +0.028 A 
ATOM     22  C   UNL     1      -0.166   3.478  -1.172  0.00  0.00    +0.022 A 
ATOM     23  C   UNL     1      -0.053   4.164   0.025  0.00  0.00    +0.041 A 
ATOM     24  C   UNL     1       0.078   3.469   1.214  0.00  0.00    +0.022 A 
ATOM     25  C   UNL     1       0.096   2.088   1.209  0.00  0.00    +0.028 A 
ATOM     26 CL   UNL     1      -0.075   5.900   0.034  0.00  0.00    -0.084 Cl
ENDBRANCH   5  20
BRANCH   4  27
ATOM     27  S   UNL     1       2.682   0.251  -0.270  0.00  0.00    -0.105 S 
ATOM     28  H   UNL     1       3.611  -0.805  -0.369  0.00  0.00    +0.110 HD
ENDBRANCH   4  27
BRANCH   2  29
ATOM     29  O   UNL     1       0.199  -4.071  -0.034  0.00  0.00    -0.492 OA
ATOM     30  H   UNL     1       1.098  -4.414  -0.122  0.00  0.00    +0.294 HD
ENDBRANCH   2  29
TORSDOF 4
