REMARK  Name = ZINC09673576
REMARK  12 active torsions:
REMARK  status: ('A' for Active; 'I' for Inactive)
REMARK    1  A    between atoms: C_1  and  C_2
REMARK    2  A    between atoms: C_2  and  C_3
REMARK    3  A    between atoms: C_2  and  C_4
REMARK    4  A    between atoms: C_7  and  S_10
REMARK    5  A    between atoms: S_10  and  C_13
REMARK    6  A    between atoms: C_16  and  S_20
REMARK    7  A    between atoms: C_18  and  N_19
REMARK    8  A    between atoms: S_20  and  C_21
REMARK    9  A    between atoms: C_21  and  C_22
REMARK   10  A    between atoms: N_24  and  C_25
REMARK   11  A    between atoms: C_30  and  O_31
REMARK   12  A    between atoms: O_31  and  C_32
REMARK                            x       y       z     vdW  Elec       q    Type
REMARK                         _______ _______ _______ _____ _____    ______ ____
ROOT
ATOM      1  C   UNL     1       7.494   9.286  -0.666  0.00  0.00    +0.151 A 
ATOM      2  C   UNL     1       7.286   7.921  -0.715  0.00  0.00    +0.144 A 
ATOM      3  N   UNL     1       6.050   7.451  -0.644  0.00  0.00    -0.228 NA
ATOM      4  C   UNL     1       5.015   8.271  -0.528  0.00  0.00    +0.190 A 
ATOM      5  N   UNL     1       5.172   9.586  -0.484  0.00  0.00    -0.205 NA
ATOM      6  C   UNL     1       6.385  10.125  -0.544  0.00  0.00    +0.146 A 
ENDROOT
BRANCH   1   7
ATOM      7  S   UNL     1       9.123   9.952  -0.757  0.00  0.00    +0.030 S 
ATOM      8  O   UNL     1      10.008   8.847  -0.872  0.00  0.00    -0.164 OA
ATOM      9  O   UNL     1       9.080  10.998  -1.719  0.00  0.00    -0.164 OA
BRANCH   7  13
ATOM     10  C   UNL     1       9.997  11.902   3.233  0.00  0.00    -0.045 A 
ATOM     11  C   UNL     1      10.169  10.539   3.077  0.00  0.00    +0.006 A 
ATOM     12  C   UNL     1       9.902   9.944   1.859  0.00  0.00    +0.027 A 
ATOM     13  C   UNL     1       9.463  10.711   0.796  0.00  0.00    +0.094 A 
ATOM     14  C   UNL     1       9.296  12.075   0.951  0.00  0.00    +0.027 A 
ATOM     15  C   UNL     1       9.559  12.669   2.171  0.00  0.00    +0.006 A 
BRANCH  10  17
ATOM     16  C   UNL     1      11.385  13.601   4.388  0.00  0.00    +0.012 C 
ATOM     17  C   UNL     1      10.287  12.550   4.562  0.00  0.00    +0.013 C 
ATOM     18  C   UNL     1       9.018  13.222   5.090  0.00  0.00    +0.012 C 
ENDBRANCH  10  17
ENDBRANCH   7  13
ENDBRANCH   1   7
BRANCH   6  19
ATOM     19  N   UNL     1       6.546  11.500  -0.492  0.00  0.00    -0.342 N 
ATOM     20  H   UNL     1       7.425  11.890  -0.622  0.00  0.00    +0.144 HD
ATOM     21  H   UNL     1       5.781  12.072  -0.326  0.00  0.00    +0.144 HD
ENDBRANCH   6  19
BRANCH   4  22
ATOM     22  S   UNL     1       3.390   7.596  -0.438  0.00  0.00    -0.077 S 
BRANCH  22  23
ATOM     23  C   UNL     1       3.776   5.831  -0.549  0.00  0.00    +0.173 C 
BRANCH  23  24
ATOM     24  C   UNL     1       2.499   5.033  -0.491  0.00  0.00    +0.228 C 
ATOM     25  O   UNL     1       1.433   5.601  -0.385  0.00  0.00    -0.275 OA
ATOM     26  N   UNL     1       2.541   3.688  -0.557  0.00  0.00    -0.282 N 
ATOM     27  H   UNL     1       3.396   3.229  -0.563  0.00  0.00    +0.155 HD
BRANCH  26  28
ATOM     28  C   UNL     1       1.351   2.951  -0.618  0.00  0.00    +0.077 A 
ATOM     29  C   UNL     1       0.185   3.551  -1.071  0.00  0.00    +0.047 A 
ATOM     30  C   UNL     1      -0.989   2.821  -1.130  0.00  0.00    +0.043 A 
ATOM     31  C   UNL     1      -1.001   1.492  -0.745  0.00  0.00    +0.024 A 
ATOM     32  C   UNL     1       0.156   0.890  -0.288  0.00  0.00    +0.049 A 
ATOM     33  C   UNL     1       1.336   1.615  -0.226  0.00  0.00    +0.141 A 
ATOM     34 CL   UNL     1      -2.448   3.573  -1.697  0.00  0.00    -0.083 Cl
BRANCH  33  35
ATOM     35  O   UNL     1       2.477   1.022   0.218  0.00  0.00    -0.493 OA
ATOM     36  C   UNL     1       2.386  -0.351   0.604  0.00  0.00    +0.277 C 
ENDBRANCH  33  35
ENDBRANCH  26  28
ENDBRANCH  23  24
ENDBRANCH  22  23
ENDBRANCH   4  22
TORSDOF 9
