REMARK  Name = ZINC00946527
REMARK  7 active torsions:
REMARK  status: ('A' for Active; 'I' for Inactive)
REMARK    1  A    between atoms: C_1  and  C_2
REMARK    2  A    between atoms: C_2  and  O_3
REMARK    3  A    between atoms: O_3  and  C_4
REMARK    4  A    between atoms: C_4  and  C_6
REMARK    5  A    between atoms: C_8  and  C_20
REMARK    6  A    between atoms: C_14  and  C_15
REMARK    7  A    between atoms: C_14  and  O_19
REMARK                            x       y       z     vdW  Elec       q    Type
REMARK                         _______ _______ _______ _____ _____    ______ ____
ROOT
ATOM      1  C   UNL     1       1.928   1.561  -0.392  0.00  0.00    +0.181 C 
ATOM      2  C   UNL     1       2.703   0.272  -0.100  0.00  0.00    +0.121 C 
ATOM      3  N   UNL     1       1.841  -0.879  -0.375  0.00  0.00    -0.319 N 
ATOM      4  C   UNL     1       0.508  -0.798  -0.248  0.00  0.00    +0.133 C 
ATOM      5  S   UNL     1      -0.435  -2.190  -0.574  0.00  0.00    -0.019 S 
ATOM      6  N   UNL     1      -0.116   0.329   0.124  0.00  0.00    -0.291 N 
ATOM      7  C   UNL     1       0.634   1.549   0.428  0.00  0.00    +0.244 C 
ATOM      8  H   UNL     1       2.242  -1.717  -0.655  0.00  0.00    +0.148 HD
ATOM      9  H   UNL     1      -1.084   0.338   0.189  0.00  0.00    +0.151 HD
ENDROOT
BRANCH   2  10
ATOM     10  C   UNL     1       3.123   0.251   1.347  0.00  0.00    -0.026 A 
ATOM     11  C   UNL     1       4.265   0.920   1.745  0.00  0.00    +0.006 A 
ATOM     12  C   UNL     1       4.648   0.906   3.073  0.00  0.00    +0.015 A 
ATOM     13  C   UNL     1       3.893   0.213   4.003  0.00  0.00    +0.018 A 
ATOM     14  C   UNL     1       2.753  -0.460   3.604  0.00  0.00    +0.015 A 
ATOM     15  C   UNL     1       2.368  -0.441   2.276  0.00  0.00    +0.006 A 
ATOM     16 BR   UNL     1       4.420   0.188   5.819  0.00  0.00    -0.050 Br
ENDBRANCH   2  10
BRANCH   7  17
ATOM     17  C   UNL     1      -0.211   2.772   0.067  0.00  0.00    +0.436 C 
ATOM     18  F   UNL     1      -1.333   2.828   0.902  0.00  0.00    -0.166 F 
ATOM     19  F   UNL     1       0.552   3.933   0.234  0.00  0.00    -0.166 F 
ATOM     20  F   UNL     1      -0.627   2.675  -1.266  0.00  0.00    -0.166 F 
ENDBRANCH   7  17
BRANCH   1  21
ATOM     21  C   UNL     1       1.597   1.631  -1.860  0.00  0.00    +0.317 C 
ATOM     22  O   UNL     1       1.104   0.677  -2.414  0.00  0.00    -0.250 OA
BRANCH  21  23
ATOM     23  O   UNL     1       1.849   2.753  -2.553  0.00  0.00    -0.465 OA
BRANCH  23  25
ATOM     24  C   UNL     1       1.863   4.103  -4.580  0.00  0.00    +0.048 C 
ATOM     25  C   UNL     1       1.504   2.749  -3.963  0.00  0.00    +0.229 C 
ENDBRANCH  23  25
ENDBRANCH  21  23
ENDBRANCH   1  21
BRANCH   7  26
ATOM     26  O   UNL     1       0.950   1.580   1.821  0.00  0.00    -0.364 OA
ATOM     27  H   UNL     1       0.176   1.570   2.401  0.00  0.00    +0.212 HD
ENDBRANCH   7  26
TORSDOF 6
