REMARK  Name = ZINC04724384
REMARK  9 active torsions:
REMARK  status: ('A' for Active; 'I' for Inactive)
REMARK    1  A    between atoms: C_1  and  C_2
REMARK    2  A    between atoms: C_2  and  C_3
REMARK    3  A    between atoms: C_2  and  C_4
REMARK    4  A    between atoms: C_2  and  C_5
REMARK    5  A    between atoms: C_10  and  O_11
REMARK    6  A    between atoms: O_11  and  C_12
REMARK    7  A    between atoms: C_12  and  C_13
REMARK    8  A    between atoms: N_15  and  N_16
REMARK    9  A    between atoms: C_17  and  C_18
REMARK                            x       y       z     vdW  Elec       q    Type
REMARK                         _______ _______ _______ _____ _____    ______ ____
ROOT
ATOM      1  C   UNL     1      -2.545   4.034   0.036  0.00  0.00    +0.270 C 
ATOM      2  O   UNL     1      -3.498   3.283   0.036  0.00  0.00    -0.270 OA
ATOM      3  N   UNL     1      -2.738   5.367   0.044  0.00  0.00    -0.204 N 
ATOM      4  H   UNL     1      -1.977   5.968   0.044  0.00  0.00    +0.177 HD
ENDROOT
BRANCH   3   5
ATOM      5  N   UNL     1      -4.040   5.887   0.053  0.00  0.00    -0.188 NA
ATOM      6  C   UNL     1      -4.226   7.171   0.061  0.00  0.00    +0.138 C 
BRANCH   6   7
ATOM      7  C   UNL     1      -5.596   7.717   0.070  0.00  0.00    -0.005 A 
ATOM      8  C   UNL     1      -6.695   6.855   0.065  0.00  0.00    +0.011 A 
ATOM      9  C   UNL     1      -7.973   7.372   0.079  0.00  0.00    +0.020 A 
ATOM     10  C   UNL     1      -8.168   8.743   0.088  0.00  0.00    +0.041 A 
ATOM     11  C   UNL     1      -7.083   9.604   0.088  0.00  0.00    +0.020 A 
ATOM     12  C   UNL     1      -5.800   9.099   0.079  0.00  0.00    +0.011 A 
ATOM     13 CL   UNL     1      -9.781   9.387   0.099  0.00  0.00    -0.084 Cl
ENDBRANCH   6   7
ENDBRANCH   3   5
BRANCH   1  14
ATOM     14  C   UNL     1      -1.145   3.475   0.026  0.00  0.00    +0.326 C 
BRANCH  14  15
ATOM     15  O   UNL     1      -1.202   2.047   0.019  0.00  0.00    -0.482 OA
BRANCH  15  21
ATOM     16  C   UNL     1       0.002  -0.004   0.002  0.00  0.00    -0.000 A 
ATOM     17  C   UNL     1       1.208  -0.677  -0.013  0.00  0.00    +0.008 A 
ATOM     18  C   UNL     1       2.396   0.030  -0.021  0.00  0.00    +0.001 A 
ATOM     19  C   UNL     1       2.380   1.413  -0.013  0.00  0.00    +0.004 A 
ATOM     20  C   UNL     1       1.177   2.091   0.002  0.00  0.00    +0.046 A 
ATOM     21  C   UNL     1      -0.017   1.383   0.010  0.00  0.00    +0.125 A 
BRANCH  16  23
ATOM     22  C   UNL     1      -0.992  -2.276  -0.001  0.00  0.00    +0.015 C 
ATOM     23  C   UNL     1      -1.292  -0.776   0.010  0.00  0.00    -0.009 C 
ATOM     24  C   UNL     1      -2.088  -0.424   1.268  0.00  0.00    +0.015 C 
ATOM     25  C   UNL     1      -2.111  -0.411  -1.230  0.00  0.00    +0.015 C 
ENDBRANCH  16  23
ENDBRANCH  15  21
ENDBRANCH  14  15
ENDBRANCH   1  14
TORSDOF 6
