REMARK  Name = ZINC39711410
REMARK  14 active torsions:
REMARK  status: ('A' for Active; 'I' for Inactive)
REMARK    1  A    between atoms: C_1  and  C_2
REMARK    2  A    between atoms: C_2  and  N_3
REMARK    3  A    between atoms: N_3  and  C_4
REMARK    4  A    between atoms: N_3  and  C_11
REMARK    5  A    between atoms: C_4  and  C_5
REMARK    6  A    between atoms: C_11  and  C_13
REMARK    7  A    between atoms: C_11  and  C_28
REMARK    8  A    between atoms: C_18  and  O_25
REMARK    9  A    between atoms: O_25  and  C_26
REMARK   10  A    between atoms: C_26  and  C_27
REMARK   11  A    between atoms: N_33  and  C_34
REMARK   12  A    between atoms: C_34  and  C_35
REMARK   13  A    between atoms: C_34  and  C_36
REMARK   14  A    between atoms: C_34  and  C_37
REMARK                            x       y       z     vdW  Elec       q    Type
REMARK                         _______ _______ _______ _____ _____    ______ ____
ROOT
ATOM      1  C   UNL     1      -0.077  -2.159  -1.505  0.00  0.00    -0.009 C 
ENDROOT
BRANCH   1   2
ATOM      2  C   UNL     1       0.125  -2.838  -2.861  0.00  0.00    +0.088 C 
ATOM      3  C   UNL     1      -0.344  -1.877  -3.936  0.00  0.00    -0.006 C 
ATOM      4  C   UNL     1      -1.331  -2.308  -4.772  0.00  0.00    -0.004 A 
ATOM      5  C   UNL     1      -1.842  -1.445  -5.837  0.00  0.00    +0.055 A 
ATOM      6  C   UNL     1      -2.828  -1.917  -6.649  0.00  0.00    +0.121 A 
ATOM      7  C   UNL     1      -3.354  -3.204  -6.481  0.00  0.00    +0.047 A 
ATOM      8  C   UNL     1      -2.920  -4.050  -5.511  0.00  0.00    +0.027 A 
ATOM      9  C   UNL     1      -1.904  -3.657  -4.620  0.00  0.00    +0.041 A 
ATOM     10  N   UNL     1      -1.488  -4.499  -3.674  0.00  0.00    -0.285 N 
ATOM     11  C   UNL     1      -0.540  -4.195  -2.804  0.00  0.00    +0.223 C 
ATOM     12  O   UNL     1      -0.203  -5.005  -1.961  0.00  0.00    -0.275 OA
ATOM     13  H   UNL     1      -1.901  -5.375  -3.620  0.00  0.00    +0.155 HD
BRANCH   6  14
ATOM     14  O   UNL     1      -3.312  -1.124  -7.642  0.00  0.00    -0.492 OA
BRANCH  14  15
ATOM     15  C   UNL     1      -4.346  -1.670  -8.463  0.00  0.00    +0.225 C 
ATOM     16  C   UNL     1      -4.758  -0.640  -9.516  0.00  0.00    +0.048 C 
ENDBRANCH  14  15
ENDBRANCH   6  14
ENDBRANCH   1   2
BRANCH   1  17
ATOM     17  C   UNL     1      -1.573  -1.959  -1.252  0.00  0.00    +0.205 C 
ATOM     18  N   UNL     1      -2.101  -0.894  -2.116  0.00  0.00    -0.152 NA
ATOM     19  N   UNL     1      -2.540   0.014  -1.407  0.00  0.00    -0.070 NA
ATOM     20  N   UNL     1      -2.401  -0.247  -0.044  0.00  0.00    -0.179 N 
ATOM     21  N   UNL     1      -1.802  -1.471   0.124  0.00  0.00    -0.183 NA
ATOM     22  H   UNL     1      -2.684   0.343   0.672  0.00  0.00    +0.191 HD
BRANCH  21  23
ATOM     23  C   UNL     1      -2.675  -2.388   0.869  0.00  0.00    +0.035 C 
ATOM     24  C   UNL     1      -1.992  -3.752   0.996  0.00  0.00    +0.029 C 
ATOM     25  C   UNL     1      -2.940  -1.820   2.265  0.00  0.00    +0.029 C 
ATOM     26  C   UNL     1      -4.001  -2.550   0.124  0.00  0.00    +0.029 C 
ENDBRANCH  21  23
ENDBRANCH   1  17
BRANCH   1  27
ATOM     27  N   UNL     1       0.598  -0.854  -1.505  0.00  0.00    +0.387 N 
ATOM     28  H   UNL     1       0.133  -0.235  -2.151  0.00  0.00    -0.081 HD
BRANCH  27  30
ATOM     29  C   UNL     1       1.181   1.116  -0.172  0.00  0.00    -0.017 C 
ATOM     30  C   UNL     1       0.552  -0.278  -0.154  0.00  0.00    -0.081 C 
ENDBRANCH  27  30
BRANCH  27  31
ATOM     31  C   UNL     1       1.998  -1.028  -1.915  0.00  0.00    -0.042 C 
BRANCH  31  32
ATOM     32  C   UNL     1       2.713  -1.892  -0.908  0.00  0.00    -0.064 A 
ATOM     33  C   UNL     1       3.252  -1.324   0.231  0.00  0.00    +0.002 A 
ATOM     34  C   UNL     1       3.908  -2.117   1.154  0.00  0.00    +0.000 A 
ATOM     35  C   UNL     1       4.024  -3.477   0.938  0.00  0.00    +0.000 A 
ATOM     36  C   UNL     1       3.485  -4.045  -0.201  0.00  0.00    +0.000 A 
ATOM     37  C   UNL     1       2.825  -3.253  -1.122  0.00  0.00    +0.002 A 
ENDBRANCH  31  32
ENDBRANCH  27  31
ENDBRANCH   1  27
TORSDOF 9
