REMARK  Name = ZINC38706842
REMARK  5 active torsions:
REMARK  status: ('A' for Active; 'I' for Inactive)
REMARK    1  A    between atoms: C_1  and  C_2
REMARK    2  A    between atoms: C_2  and  N_3
REMARK    3  A    between atoms: C_7  and  N_14
REMARK    4  A    between atoms: C_15  and  C_17
REMARK    5  A    between atoms: C_18  and  C_19
REMARK                            x       y       z     vdW  Elec       q    Type
REMARK                         _______ _______ _______ _____ _____    ______ ____
ROOT
ATOM      1  N   UNL     1      -2.215  -1.394  -5.867  0.00  0.00    -0.282 N 
ATOM      2  C   UNL     1      -3.151  -0.509  -6.263  0.00  0.00    +0.241 C 
ATOM      3  O   UNL     1      -3.300   0.534  -5.653  0.00  0.00    -0.270 OA
ATOM      4  H   UNL     1      -2.043  -2.188  -6.396  0.00  0.00    +0.155 HD
ENDROOT
BRANCH   1   9
ATOM      5  N   UNL     1       0.672  -0.488  -1.191  0.00  0.00    -0.271 N 
ATOM      6  C   UNL     1      -0.056  -0.715  -2.365  0.00  0.00    +0.040 A 
ATOM      7  C   UNL     1      -1.379  -0.302  -2.457  0.00  0.00    +0.025 A 
ATOM      8  C   UNL     1      -2.093  -0.526  -3.616  0.00  0.00    +0.025 A 
ATOM      9  C   UNL     1      -1.490  -1.166  -4.692  0.00  0.00    +0.034 A 
ATOM     10  C   UNL     1      -0.167  -1.579  -4.600  0.00  0.00    +0.028 A 
ATOM     11  C   UNL     1       0.547  -1.355  -3.441  0.00  0.00    -0.024 A 
ATOM     12  C   UNL     1       1.982  -1.801  -3.338  0.00  0.00    +0.046 C 
ATOM     13  C   UNL     1       2.767  -0.809  -2.478  0.00  0.00    +0.101 C 
ATOM     14  C   UNL     1       2.017  -0.527  -1.204  0.00  0.00    +0.220 C 
ATOM     15  O   UNL     1       2.632  -0.337  -0.176  0.00  0.00    -0.275 OA
BRANCH   5  17
ATOM     16  C   UNL     1      -0.243   1.311   0.190  0.00  0.00    +0.025 C 
ATOM     17  C   UNL     1      -0.036  -0.199   0.059  0.00  0.00    +0.110 C 
ENDBRANCH   5  17
ENDBRANCH   1   9
BRANCH   2  18
ATOM     18  C   UNL     1      -3.988  -0.802  -7.426  0.00  0.00    +0.068 C 
ATOM     19  C   UNL     1      -4.926   0.084  -7.823  0.00  0.00    +0.013 C 
BRANCH  19  20
ATOM     20  C   UNL     1      -5.767  -0.211  -8.992  0.00  0.00    -0.021 A 
ATOM     21  C   UNL     1      -5.601  -1.411  -9.692  0.00  0.00    +0.012 A 
ATOM     22  C   UNL     1      -6.391  -1.685 -10.786  0.00  0.00    +0.050 A 
ATOM     23  C   UNL     1      -7.353  -0.773 -11.200  0.00  0.00    +0.166 A 
ATOM     24  C   UNL     1      -7.524   0.427 -10.508  0.00  0.00    +0.167 A 
ATOM     25  C   UNL     1      -6.740   0.706  -9.406  0.00  0.00    +0.057 A 
ATOM     26  O   UNL     1      -8.521   1.139 -11.110  0.00  0.00    -0.453 OA
ATOM     27  C   UNL     1      -8.678   0.552 -12.415  0.00  0.00    +0.466 C 
ATOM     28  O   UNL     1      -8.243  -0.809 -12.233  0.00  0.00    -0.453 OA
ENDBRANCH  19  20
ENDBRANCH   2  18
TORSDOF 4
