REMARK  Name = ZINC59409197
REMARK  7 active torsions:
REMARK  status: ('A' for Active; 'I' for Inactive)
REMARK    1  A    between atoms: C_1  and  O_2
REMARK    2  A    between atoms: O_2  and  C_3
REMARK    3  A    between atoms: C_5  and  C_18
REMARK    4  A    between atoms: C_8  and  O_9
REMARK    5  A    between atoms: O_9  and  C_10
REMARK    6  A    between atoms: C_10  and  C_11
REMARK    7  A    between atoms: C_22  and  C_24
REMARK                            x       y       z     vdW  Elec       q    Type
REMARK                         _______ _______ _______ _____ _____    ______ ____
ROOT
ATOM      1  C   UNL     1      -1.201  -0.638   0.010  0.00  0.00    +0.162 A 
ATOM      2  C   UNL     1      -2.374   0.099   0.019  0.00  0.00    +0.055 A 
ATOM      3  C   UNL     1      -3.596  -0.546   0.027  0.00  0.00    -0.012 A 
ATOM      4  C   UNL     1      -3.652  -1.928   0.026  0.00  0.00    +0.010 A 
ATOM      5  C   UNL     1      -2.485  -2.669   0.017  0.00  0.00    +0.050 A 
ATOM      6  C   UNL     1      -1.257  -2.028   0.003  0.00  0.00    +0.162 A 
ENDROOT
BRANCH   3   7
ATOM      7  C   UNL     1      -4.871   0.257   0.037  0.00  0.00    +0.183 C 
ATOM      8  N   UNL     1      -5.984  -0.506   0.647  0.00  0.00    -0.250 N 
ATOM      9  N   UNL     1      -7.045  -0.768  -0.190  0.00  0.00    -0.178 NA
ATOM     10  C   UNL     1      -7.085  -0.382  -1.430  0.00  0.00    +0.124 C 
ATOM     11  S   UNL     1      -5.537   0.479  -1.664  0.00  0.00    -0.075 S 
ATOM     12  H   UNL     1      -5.967  -0.799   1.572  0.00  0.00    +0.170 HD
BRANCH  10  13
ATOM     13  C   UNL     1      -8.163  -0.603  -2.419  0.00  0.00    +0.008 A 
ATOM     14  C   UNL     1      -8.030  -0.118  -3.720  0.00  0.00    +0.010 A 
ATOM     15  C   UNL     1      -9.039  -0.328  -4.638  0.00  0.00    +0.001 A 
ATOM     16  C   UNL     1     -10.180  -1.018  -4.269  0.00  0.00    +0.000 A 
ATOM     17  C   UNL     1     -10.318  -1.502  -2.981  0.00  0.00    +0.001 A 
ATOM     18  C   UNL     1      -9.314  -1.304  -2.055  0.00  0.00    +0.010 A 
ENDBRANCH  10  13
ENDBRANCH   3   7
BRANCH   1  20
ATOM     19  C   UNL     1      -0.017   1.425   0.010  0.00  0.00    +0.277 C 
ATOM     20  O   UNL     1       0.002  -0.004   0.002  0.00  0.00    -0.491 OA
ENDBRANCH   1  20
BRANCH   6  21
ATOM     21  O   UNL     1      -0.108  -2.756  -0.012  0.00  0.00    -0.484 OA
BRANCH  21  22
ATOM     22  C   UNL     1      -0.242  -4.179  -0.018  0.00  0.00    +0.267 C 
BRANCH  22  23
ATOM     23  C   UNL     1       1.125  -4.812  -0.034  0.00  0.00    +0.025 A 
ATOM     24  C   UNL     1       2.256  -4.016  -0.035  0.00  0.00    +0.010 A 
ATOM     25  C   UNL     1       3.510  -4.597  -0.050  0.00  0.00    +0.001 A 
ATOM     26  C   UNL     1       3.636  -5.973  -0.064  0.00  0.00    +0.003 A 
ATOM     27  C   UNL     1       2.508  -6.771  -0.063  0.00  0.00    +0.039 A 
ATOM     28  C   UNL     1       1.250  -6.191  -0.043  0.00  0.00    +0.130 A 
ATOM     29  F   UNL     1       0.146  -6.970  -0.037  0.00  0.00    -0.205 F 
ENDBRANCH  22  23
ENDBRANCH  21  22
ENDBRANCH   6  21
TORSDOF 6
