REMARK  Name = ZINC22932856
REMARK  13 active torsions:
REMARK  status: ('A' for Active; 'I' for Inactive)
REMARK    1  A    between atoms: C_1  and  C_2
REMARK    2  A    between atoms: C_2  and  C_3
REMARK    3  A    between atoms: C_2  and  C_4
REMARK    4  A    between atoms: C_2  and  O_30
REMARK    5  A    between atoms: C_5  and  C_6
REMARK    6  A    between atoms: C_9  and  C_11
REMARK    7  A    between atoms: C_11  and  N_12
REMARK    8  A    between atoms: N_15  and  C_22
REMARK    9  A    between atoms: C_16  and  C_19
REMARK   10  A    between atoms: C_19  and  C_20
REMARK   11  A    between atoms: C_20  and  O_21
REMARK   12  A    between atoms: C_22  and  C_23
REMARK   13  A    between atoms: C_23  and  C_24
REMARK                            x       y       z     vdW  Elec       q    Type
REMARK                         _______ _______ _______ _____ _____    ______ ____
ROOT
ATOM      1  N   UNL     1      -8.036  -3.844  -1.367  0.00  0.00    -0.301 NA
ATOM      2  C   UNL     1      -6.848  -4.525  -1.901  0.00  0.00    +0.066 C 
ATOM      3  C   UNL     1      -7.126  -4.981  -3.335  0.00  0.00    -0.063 C 
ATOM      4  N   UNL     1      -8.279  -5.892  -3.344  0.00  0.00    +0.383 N 
ATOM      5  C   UNL     1      -9.463  -5.190  -2.831  0.00  0.00    -0.052 C 
ATOM      6  C   UNL     1      -9.204  -4.736  -1.393  0.00  0.00    +0.069 C 
ATOM      7  H   UNL     1      -8.081  -6.690  -2.759  0.00  0.00    -0.081 HD
ENDROOT
BRANCH   1   8
ATOM      8  C   UNL     1      -7.788  -3.340  -0.009  0.00  0.00    +0.126 C 
BRANCH   8  12
ATOM      9  C   UNL     1      -4.577  -0.651  -0.091  0.00  0.00    +0.062 A 
ATOM     10  C   UNL     1      -5.820  -0.089  -0.234  0.00  0.00    +0.025 A 
ATOM     11  C   UNL     1      -6.923  -0.912  -0.217  0.00  0.00    +0.014 A 
ATOM     12  C   UNL     1      -6.749  -2.250  -0.060  0.00  0.00    +0.005 A 
ATOM     13  S   UNL     1      -4.973  -2.385   0.063  0.00  0.00    -0.084 S 
BRANCH   9  15
ATOM     14  C   UNL     1      -2.243   0.508  -0.064  0.00  0.00    -0.062 C 
ATOM     15  C   UNL     1      -3.294  -0.014  -0.076  0.00  0.00    -0.056 C 
BRANCH  14  17
ATOM     16  C   UNL     1      -1.103   2.673  -0.216  0.00  0.00    +0.055 C 
ATOM     17  C   UNL     1      -0.925   1.163  -0.048  0.00  0.00    +0.121 C 
ATOM     18  C   UNL     1      -0.229   0.877   1.284  0.00  0.00    +0.055 C 
BRANCH  17  19
ATOM     19  O   UNL     1      -0.128   0.656  -1.121  0.00  0.00    -0.377 OA
ATOM     20  H   UNL     1       0.026  -0.298  -1.079  0.00  0.00    +0.211 HD
ENDBRANCH  17  19
ENDBRANCH  14  17
ENDBRANCH   9  15
ENDBRANCH   8  12
ENDBRANCH   1   8
BRANCH   5  21
ATOM     21  C   UNL     1     -10.666  -6.135  -2.858  0.00  0.00    +0.014 C 
BRANCH  21  22
ATOM     22  C   UNL     1     -11.916  -5.382  -2.395  0.00  0.00    +0.154 C 
BRANCH  22  23
ATOM     23  O   UNL     1     -13.018  -6.289  -2.323  0.00  0.00    -0.395 OA
ATOM     24  H   UNL     1     -13.845  -5.879  -2.035  0.00  0.00    +0.209 HD
ENDBRANCH  22  23
ENDBRANCH  21  22
ENDBRANCH   5  21
BRANCH   4  25
ATOM     25  C   UNL     1      -8.535  -6.343  -4.718  0.00  0.00    -0.074 C 
BRANCH  25  26
ATOM     26  C   UNL     1      -7.356  -7.190  -5.204  0.00  0.00    +0.016 C 
BRANCH  26  27
ATOM     27  C   UNL     1      -7.619  -7.654  -6.614  0.00  0.00    -0.049 A 
ATOM     28  C   UNL     1      -8.277  -8.848  -6.837  0.00  0.00    +0.003 A 
ATOM     29  C   UNL     1      -8.518  -9.274  -8.130  0.00  0.00    +0.000 A 
ATOM     30  C   UNL     1      -8.101  -8.504  -9.200  0.00  0.00    +0.000 A 
ATOM     31  C   UNL     1      -7.444  -7.309  -8.977  0.00  0.00    +0.000 A 
ATOM     32  C   UNL     1      -7.206  -6.881  -7.684  0.00  0.00    +0.003 A 
ENDBRANCH  26  27
ENDBRANCH  25  26
ENDBRANCH   4  25
TORSDOF 11
