REMARK  Name = ZINC63737029
REMARK  6 active torsions:
REMARK  status: ('A' for Active; 'I' for Inactive)
REMARK    1  A    between atoms: C_1  and  C_2
REMARK    2  A    between atoms: C_5  and  C_8
REMARK    3  A    between atoms: C_19  and  C_21
REMARK    4  A    between atoms: N_23  and  C_24
REMARK    5  A    between atoms: C_26  and  C_31
REMARK    6  A    between atoms: C_29  and  C_30
REMARK                            x       y       z     vdW  Elec       q    Type
REMARK                         _______ _______ _______ _____ _____    ______ ____
ROOT
ATOM      1  C   UNL     1       2.526  -4.449  -0.166  0.00  0.00    +0.259 C 
ATOM      2  O   UNL     1       3.195  -5.346  -0.634  0.00  0.00    -0.271 OA
ATOM      3  N   UNL     1       2.868  -3.164  -0.392  0.00  0.00    -0.282 N 
ATOM      4  H   UNL     1       2.298  -2.448  -0.072  0.00  0.00    +0.155 HD
ENDROOT
BRANCH   1  15
ATOM      5  C   UNL     1       0.056  -4.276  -0.048  0.00  0.00    +0.100 C 
ATOM      6  C   UNL     1      -1.174  -4.794   0.648  0.00  0.00    -0.022 A 
ATOM      7  C   UNL     1      -2.388  -4.159   0.475  0.00  0.00    +0.005 A 
ATOM      8  C   UNL     1      -3.518  -4.638   1.113  0.00  0.00    +0.000 A 
ATOM      9  C   UNL     1      -3.446  -5.755   1.927  0.00  0.00    +0.001 A 
ATOM     10  C   UNL     1      -2.239  -6.399   2.110  0.00  0.00    +0.015 A 
ATOM     11  C   UNL     1      -1.097  -5.919   1.471  0.00  0.00    +0.063 A 
ATOM     12  C   UNL     1       0.210  -6.589   1.659  0.00  0.00    +0.340 C 
ATOM     13  O   UNL     1       0.364  -7.458   2.494  0.00  0.00    -0.245 OA
ATOM     14  O   UNL     1       1.230  -6.188   0.857  0.00  0.00    -0.447 OA
ATOM     15  C   UNL     1       1.313  -4.770   0.669  0.00  0.00    +0.274 C 
BRANCH   5  20
ATOM     16  C   UNL     1      -0.022   1.503  -0.015  0.00  0.00    +0.044 C 
ATOM     17  C   UNL     1      -0.002  -0.004  -0.023  0.00  0.00    -0.050 A 
ATOM     18  C   UNL     1       0.013  -0.688  -1.224  0.00  0.00    +0.003 A 
ATOM     19  C   UNL     1       0.032  -2.071  -1.232  0.00  0.00    +0.004 A 
ATOM     20  C   UNL     1       0.037  -2.769  -0.039  0.00  0.00    -0.036 A 
ATOM     21  C   UNL     1       0.023  -2.084   1.162  0.00  0.00    +0.004 A 
ATOM     22  C   UNL     1       0.008  -0.702   1.170  0.00  0.00    +0.003 A 
ENDBRANCH   5  20
ENDBRANCH   1  15
BRANCH   3  23
ATOM     23  C   UNL     1       4.044  -2.866  -1.089  0.00  0.00    +0.037 A 
ATOM     24  C   UNL     1       4.472  -3.693  -2.119  0.00  0.00    +0.031 A 
ATOM     25  C   UNL     1       5.633  -3.396  -2.804  0.00  0.00    -0.004 A 
ATOM     26  C   UNL     1       6.370  -2.275  -2.466  0.00  0.00    +0.008 A 
ATOM     27  C   UNL     1       5.947  -1.450  -1.440  0.00  0.00    +0.005 A 
ATOM     28  C   UNL     1       4.783  -1.738  -0.755  0.00  0.00    -0.029 A 
ATOM     29  C   UNL     1       4.318  -0.834   0.357  0.00  0.00    +0.045 C 
BRANCH  25  30
ATOM     30  C   UNL     1       6.099  -4.293  -3.922  0.00  0.00    +0.206 C 
ATOM     31  N   UNL     1       5.733  -5.686  -3.636  0.00  0.00    -0.360 N 
ATOM     32  C   UNL     1       6.837  -6.374  -3.573  0.00  0.00    +0.060 A 
ATOM     33  C   UNL     1       7.115  -7.794  -3.320  0.00  0.00    +0.027 A 
ATOM     34  C   UNL     1       8.390  -8.232  -3.316  0.00  0.00    +0.002 A 
ATOM     35  C   UNL     1       9.485  -7.379  -3.544  0.00  0.00    +0.002 A 
ATOM     36  C   UNL     1       9.341  -6.060  -3.785  0.00  0.00    +0.027 A 
ATOM     37  C   UNL     1       7.995  -5.471  -3.815  0.00  0.00    +0.060 A 
ATOM     38  N   UNL     1       7.564  -4.260  -4.018  0.00  0.00    -0.360 N 
ATOM     39  H   UNL     1       4.835  -6.030  -3.515  0.00  0.00    +0.162 HD
ATOM     40  H   UNL     1       8.110  -3.479  -4.200  0.00  0.00    +0.162 HD
ENDBRANCH  25  30
ENDBRANCH   3  23
TORSDOF 4
