REMARK  Name = ZINC33633765
REMARK  12 active torsions:
REMARK  status: ('A' for Active; 'I' for Inactive)
REMARK    1  A    between atoms: C_1  and  C_2
REMARK    2  A    between atoms: C_6  and  C_7
REMARK    3  A    between atoms: C_7  and  N_8
REMARK    4  A    between atoms: N_8  and  C_9
REMARK    5  A    between atoms: C_9  and  C_10
REMARK    6  A    between atoms: C_16  and  C_18
REMARK    7  A    between atoms: C_18  and  N_19
REMARK    8  A    between atoms: N_19  and  C_20
REMARK    9  A    between atoms: C_20  and  C_21
REMARK   10  A    between atoms: C_21  and  C_22
REMARK   11  A    between atoms: C_21  and  C_23
REMARK   12  A    between atoms: N_26  and  C_27
REMARK                            x       y       z     vdW  Elec       q    Type
REMARK                         _______ _______ _______ _____ _____    ______ ____
ROOT
ATOM      1  C   UNL     1       1.544   2.415  -0.033  0.00  0.00    +0.205 C 
ENDROOT
BRANCH   1   2
ATOM      2  N   UNL     1       0.198   1.861  -0.199  0.00  0.00    -0.276 N 
ATOM      3  C   UNL     1       0.020   0.526  -0.246  0.00  0.00    +0.307 C 
ATOM      4  O   UNL     1       0.976  -0.219  -0.151  0.00  0.00    -0.252 OA
ATOM      5  N   UNL     1      -1.218   0.016  -0.398  0.00  0.00    -0.268 N 
ATOM      6  H   UNL     1      -2.092   0.685  -0.402  0.00  0.00    +0.156 HD
BRANCH   5   7
ATOM      7  C   UNL     1      -1.394  -1.365  -0.552  0.00  0.00    +0.053 A 
ATOM      8  C   UNL     1      -0.510  -2.249   0.053  0.00  0.00    +0.026 A 
ATOM      9  C   UNL     1      -0.685  -3.611  -0.099  0.00  0.00    +0.022 A 
ATOM     10  C   UNL     1      -1.740  -4.094  -0.854  0.00  0.00    +0.042 A 
ATOM     11  C   UNL     1      -2.622  -3.216  -1.458  0.00  0.00    +0.041 A 
ATOM     12  C   UNL     1      -2.455  -1.853  -1.304  0.00  0.00    +0.064 A 
ATOM     13 CL   UNL     1      -3.565  -0.751  -2.057  0.00  0.00    -0.082 Cl
ATOM     14 CL   UNL     1      -1.956  -5.806  -1.043  0.00  0.00    -0.083 Cl
ENDBRANCH   5   7
BRANCH   2  15
ATOM     15  C   UNL     1      -0.953   2.758  -0.320  0.00  0.00    +0.113 C 
BRANCH  15  16
ATOM     16  C   UNL     1      -1.526   3.043   1.070  0.00  0.00    +0.000 C 
ATOM     17  C   UNL     1      -0.496   3.815   1.897  0.00  0.00    +0.009 C 
ATOM     18  C   UNL     1      -2.801   3.878   0.935  0.00  0.00    +0.009 C 
ENDBRANCH  15  16
ENDBRANCH   2  15
ENDBRANCH   1   2
BRANCH   1  20
ATOM     19  N   UNL     1       3.414   3.138  -1.482  0.00  0.00    -0.291 N 
ATOM     20  C   UNL     1       2.168   2.632  -1.388  0.00  0.00    +0.234 C 
ATOM     21  O   UNL     1       1.549   2.353  -2.393  0.00  0.00    -0.274 OA
BRANCH  19  22
ATOM     22  C   UNL     1       4.162   3.476  -0.269  0.00  0.00    +0.150 C 
BRANCH  22  28
ATOM     23  C   UNL     1       7.130   3.102  -0.967  0.00  0.00    +0.044 C 
ATOM     24  C   UNL     1       6.346   2.100  -0.158  0.00  0.00    -0.039 A 
ATOM     25  C   UNL     1       6.953   0.950   0.312  0.00  0.00    +0.011 A 
ATOM     26  C   UNL     1       6.218   0.066   1.030  0.00  0.00    +0.046 A 
ATOM     27  S   UNL     1       4.619   0.858   1.066  0.00  0.00    -0.100 S 
ATOM     28  C   UNL     1       5.038   2.314   0.122  0.00  0.00    +0.010 A 
ENDBRANCH  22  28
ENDBRANCH  19  22
BRANCH  19  29
ATOM     29  C   UNL     1       4.020   3.350  -2.799  0.00  0.00    +0.143 C 
BRANCH  29  30
ATOM     30  C   UNL     1       3.795   4.776  -3.232  0.00  0.00    -0.030 A 
ATOM     31  C   UNL     1       2.668   5.107  -3.961  0.00  0.00    +0.005 A 
ATOM     32  C   UNL     1       2.459   6.416  -4.354  0.00  0.00    +0.000 A 
ATOM     33  C   UNL     1       3.383   7.391  -4.028  0.00  0.00    +0.000 A 
ATOM     34  C   UNL     1       4.513   7.059  -3.304  0.00  0.00    +0.000 A 
ATOM     35  C   UNL     1       4.719   5.751  -2.906  0.00  0.00    +0.005 A 
ENDBRANCH  29  30
ENDBRANCH  19  29
ENDBRANCH   1  20
TORSDOF 9
