REMARK  Name = ZINC59410329
REMARK  3 active torsions:
REMARK  status: ('A' for Active; 'I' for Inactive)
REMARK    1  A    between atoms: C_3  and  N_16
REMARK    2  A    between atoms: C_6  and  C_7
REMARK    3  A    between atoms: C_10  and  N_13
REMARK                            x       y       z     vdW  Elec       q    Type
REMARK                         _______ _______ _______ _____ _____    ______ ____
ROOT
ATOM      1  C   UNL     1      -0.017   1.390   0.010  0.00  0.00    +0.010 A 
ATOM      2  C   UNL     1       1.168   2.094   0.002  0.00  0.00    +0.024 A 
ATOM      3  C   UNL     1       2.381   1.416  -0.013  0.00  0.00    +0.044 A 
ATOM      4  C   UNL     1       2.402   0.027  -0.021  0.00  0.00    +0.024 A 
ATOM      5  C   UNL     1       1.220  -0.682  -0.013  0.00  0.00    +0.010 A 
ATOM      6  C   UNL     1       0.002  -0.004   0.002  0.00  0.00    -0.018 A 
ENDROOT
BRANCH   3   7
ATOM      7  N   UNL     1       3.584   2.134  -0.021  0.00  0.00    -0.210 N 
ATOM      8  C   UNL     1       3.655   3.506  -0.009  0.00  0.00    +0.233 C 
ATOM      9  O   UNL     1       2.783   4.290   0.298  0.00  0.00    -0.274 OA
ATOM     10  C   UNL     1       5.056   3.821  -0.461  0.00  0.00    +0.123 C 
ATOM     11  C   UNL     1       5.894   4.924   0.182  0.00  0.00    +0.154 C 
ATOM     12  C   UNL     1       5.992   4.871   1.686  0.00  0.00    +0.003 C 
ATOM     13  C   UNL     1       6.757   3.849   2.047  0.00  0.00    +0.003 C 
ATOM     14  C   UNL     1       7.059   3.111   0.706  0.00  0.00    +0.154 C 
ATOM     15  C   UNL     1       5.684   2.622   0.369  0.00  0.00    +0.123 C 
ATOM     16  C   UNL     1       4.836   1.541  -0.036  0.00  0.00    +0.233 C 
ATOM     17  O   UNL     1       5.138   0.402  -0.321  0.00  0.00    -0.274 OA
ATOM     18  O   UNL     1       7.223   4.334  -0.148  0.00  0.00    -0.364 OA
ENDBRANCH   3   7
BRANCH   6  19
ATOM     19  C   UNL     1      -1.272  -0.764   0.011  0.00  0.00    -0.018 A 
ATOM     20  C   UNL     1      -2.490  -0.088   0.021  0.00  0.00    +0.011 A 
ATOM     21  C   UNL     1      -3.672  -0.800   0.029  0.00  0.00    +0.033 A 
ATOM     22  C   UNL     1      -3.649  -2.183   0.027  0.00  0.00    +0.126 A 
ATOM     23  C   UNL     1      -2.442  -2.860   0.017  0.00  0.00    +0.033 A 
ATOM     24  C   UNL     1      -1.254  -2.158   0.003  0.00  0.00    +0.011 A 
BRANCH  22  25
ATOM     25  N   UNL     1      -4.920  -2.942   0.036  0.00  0.00    +0.056 N 
ATOM     26  O   UNL     1      -5.976  -2.353   0.045  0.00  0.00    -0.126 OA
ATOM     27  O   UNL     1      -4.902  -4.151   0.034  0.00  0.00    -0.126 OA
ENDBRANCH  22  25
ENDBRANCH   6  19
TORSDOF 3
