REMARK  Name = ZINC25680145
REMARK  8 active torsions:
REMARK  status: ('A' for Active; 'I' for Inactive)
REMARK    1  A    between atoms: C_1  and  C_2
REMARK    2  A    between atoms: C_5  and  S_9
REMARK    3  A    between atoms: C_7  and  C_8
REMARK    4  A    between atoms: S_9  and  N_12
REMARK    5  A    between atoms: C_18  and  C_20
REMARK    6  A    between atoms: C_20  and  N_21
REMARK    7  A    between atoms: C_24  and  C_27
REMARK    8  A    between atoms: C_30  and  O_33
REMARK                            x       y       z     vdW  Elec       q    Type
REMARK                         _______ _______ _______ _____ _____    ______ ____
ROOT
ATOM      1  N   UNL     1      -0.897   1.885  -1.312  0.00  0.00    -0.174 NA
ATOM      2  C   UNL     1      -1.885   0.978  -1.913  0.00  0.00    +0.128 C 
ATOM      3  C   UNL     1      -3.242   1.700  -1.960  0.00  0.00    +0.125 C 
ATOM      4  N   UNL     1      -3.046   3.028  -2.557  0.00  0.00    -0.300 N 
ATOM      5  C   UNL     1      -2.054   3.934  -1.959  0.00  0.00    +0.125 C 
ATOM      6  C   UNL     1      -0.701   3.214  -1.909  0.00  0.00    +0.128 C 
ATOM      7  C   UNL     1      -3.761   3.409  -3.634  0.00  0.00    +0.199 C 
ATOM      8  O   UNL     1      -3.590   4.508  -4.118  0.00  0.00    -0.278 OA
ENDROOT
BRANCH   1   9
ATOM      9  S   UNL     1      -0.017   1.417   0.010  0.00  0.00    +0.061 S 
ATOM     10  O   UNL     1       0.002  -0.004   0.002  0.00  0.00    -0.153 OA
ATOM     11  O   UNL     1       1.172   2.195   0.003  0.00  0.00    -0.153 OA
BRANCH   9  16
ATOM     12  C   UNL     1      -3.132   3.072   4.905  0.00  0.00    +0.044 C 
ATOM     13  C   UNL     1      -2.354   2.659   3.683  0.00  0.00    -0.047 A 
ATOM     14  C   UNL     1      -1.434   3.526   3.122  0.00  0.00    +0.005 A 
ATOM     15  C   UNL     1      -0.717   3.145   2.004  0.00  0.00    +0.029 A 
ATOM     16  C   UNL     1      -0.927   1.900   1.439  0.00  0.00    +0.106 A 
ATOM     17  C   UNL     1      -1.846   1.033   2.000  0.00  0.00    +0.032 A 
ATOM     18  C   UNL     1      -2.559   1.412   3.122  0.00  0.00    -0.046 A 
ATOM     19  C   UNL     1      -3.561   0.467   3.733  0.00  0.00    +0.044 C 
ENDBRANCH   9  16
ENDBRANCH   1   9
BRANCH   7  20
ATOM     20  C   UNL     1      -4.775   2.470  -4.236  0.00  0.00    +0.019 C 
BRANCH  20  21
ATOM     21  N   UNL     1      -5.416   3.116  -5.389  0.00  0.00    +0.388 N 
ATOM     22  C   UNL     1      -6.557   2.321  -5.872  0.00  0.00    -0.073 C 
ATOM     23  C   UNL     1      -7.369   3.177  -6.847  0.00  0.00    +0.017 C 
ATOM     24  C   UNL     1      -6.450   3.800  -7.861  0.00  0.00    -0.048 C 
ATOM     25  C   UNL     1      -5.148   3.870  -7.691  0.00  0.00    -0.041 C 
ATOM     26  C   UNL     1      -4.451   3.331  -6.475  0.00  0.00    -0.050 C 
ATOM     27  H   UNL     1      -5.788   4.096  -5.058  0.00  0.00    -0.081 HD
BRANCH  24  28
ATOM     28  C   UNL     1      -7.034   4.355  -9.100  0.00  0.00    -0.022 A 
ATOM     29  C   UNL     1      -7.898   5.450  -9.036  0.00  0.00    +0.012 A 
ATOM     30  C   UNL     1      -8.437   5.969 -10.194  0.00  0.00    +0.046 A 
ATOM     31  C   UNL     1      -8.130   5.396 -11.421  0.00  0.00    +0.117 A 
ATOM     32  C   UNL     1      -7.276   4.304 -11.488  0.00  0.00    +0.046 A 
ATOM     33  C   UNL     1      -6.729   3.783 -10.335  0.00  0.00    +0.012 A 
BRANCH  31  34
ATOM     34  O   UNL     1      -8.668   5.907 -12.560  0.00  0.00    -0.507 OA
ATOM     35  H   UNL     1      -8.426   5.455 -13.533  0.00  0.00    +0.292 HD
ENDBRANCH  31  34
ENDBRANCH  24  28
ENDBRANCH  20  21
ENDBRANCH   7  20
TORSDOF 6
