REMARK  Name = ZINC39631390
REMARK  11 active torsions:
REMARK  status: ('A' for Active; 'I' for Inactive)
REMARK    1  A    between atoms: C_1  and  C_2
REMARK    2  A    between atoms: C_2  and  C_4
REMARK    3  A    between atoms: C_2  and  N_11
REMARK    4  A    between atoms: C_4  and  C_5
REMARK    5  A    between atoms: C_5  and  C_6
REMARK    6  A    between atoms: C_6  and  C_7
REMARK    7  A    between atoms: C_7  and  C_8
REMARK    8  A    between atoms: C_7  and  C_9
REMARK    9  A    between atoms: C_7  and  O_10
REMARK   10  A    between atoms: C_12  and  C_14
REMARK   11  A    between atoms: C_25  and  C_27
REMARK                            x       y       z     vdW  Elec       q    Type
REMARK                         _______ _______ _______ _____ _____    ______ ____
ROOT
ATOM      1  C   UNL     1       2.674  -1.468  -1.942  0.00  0.00    +0.100 C 
ATOM      2  C   UNL     1       2.332  -2.854  -2.534  0.00  0.00    +0.121 C 
ATOM      3  N   UNL     1       3.619  -3.363  -3.063  0.00  0.00    -0.296 N 
ATOM      4  C   UNL     1       4.623  -2.947  -2.054  0.00  0.00    +0.115 C 
ATOM      5  C   UNL     1       4.178  -1.534  -1.627  0.00  0.00    -0.004 C 
ATOM      6  C   UNL     1       4.415  -1.336  -0.133  0.00  0.00    -0.010 C 
ATOM      7  C   UNL     1       5.920  -1.346   0.146  0.00  0.00    -0.082 C 
ATOM      8  N   UNL     1       6.569  -0.275  -0.618  0.00  0.00    +0.379 N 
ATOM      9  C   UNL     1       6.417  -0.523  -2.057  0.00  0.00    -0.082 C 
ATOM     10  C   UNL     1       4.932  -0.478  -2.430  0.00  0.00    -0.010 C 
ATOM     11  C   UNL     1       3.830  -4.049  -4.204  0.00  0.00    +0.247 C 
ATOM     12  O   UNL     1       2.917  -4.221  -4.988  0.00  0.00    -0.270 OA
ATOM     13  H   UNL     1       6.144   0.610  -0.384  0.00  0.00    -0.086 HD
ATOM     14  H   UNL     1       7.551  -0.244  -0.386  0.00  0.00    -0.086 HD
ENDROOT
BRANCH  11  15
ATOM     15  C   UNL     1       5.172  -4.593  -4.502  0.00  0.00    +0.040 A 
ATOM     16  C   UNL     1       6.087  -4.807  -3.469  0.00  0.00    +0.033 A 
ATOM     17  C   UNL     1       7.339  -5.315  -3.754  0.00  0.00    +0.043 A 
ATOM     18  C   UNL     1       7.688  -5.613  -5.060  0.00  0.00    +0.040 A 
ATOM     19  C   UNL     1       6.785  -5.403  -6.089  0.00  0.00    +0.043 A 
ATOM     20  C   UNL     1       5.528  -4.901  -5.816  0.00  0.00    +0.033 A 
ATOM     21 CL   UNL     1       7.232  -5.778  -7.724  0.00  0.00    -0.083 Cl
ATOM     22 CL   UNL     1       8.478  -5.581  -2.471  0.00  0.00    -0.083 Cl
ENDBRANCH  11  15
BRANCH   1  24
ATOM     23  N   UNL     1       1.562   0.030  -0.318  0.00  0.00    -0.312 N 
ATOM     24  C   UNL     1       1.884  -1.227  -0.681  0.00  0.00    +0.218 C 
ATOM     25  O   UNL     1       1.539  -2.165   0.007  0.00  0.00    -0.275 OA
ATOM     26  H   UNL     1       1.838   0.779  -0.868  0.00  0.00    +0.149 HD
BRANCH  23  28
ATOM     27  C   UNL     1       1.747   0.320   2.103  0.00  0.00    +0.028 C 
ATOM     28  C   UNL     1       0.794   0.264   0.907  0.00  0.00    +0.070 C 
BRANCH  28  29
ATOM     29  C   UNL     1       0.042   1.592   0.792  0.00  0.00    +0.022 C 
BRANCH  29  30
ATOM     30  C   UNL     1      -0.999   1.493  -0.325  0.00  0.00    +0.005 C 
BRANCH  30  31
ATOM     31  C   UNL     1      -1.750   2.821  -0.440  0.00  0.00    +0.034 C 
BRANCH  31  32
ATOM     32  C   UNL     1      -2.791   2.722  -1.557  0.00  0.00    +0.061 C 
ATOM     33  C   UNL     1      -3.782   1.601  -1.234  0.00  0.00    +0.041 C 
ATOM     34  C   UNL     1      -3.543   4.049  -1.672  0.00  0.00    +0.041 C 
BRANCH  32  35
ATOM     35  O   UNL     1      -2.136   2.436  -2.794  0.00  0.00    -0.389 OA
ATOM     36  H   UNL     1      -1.493   3.107  -3.062  0.00  0.00    +0.210 HD
ENDBRANCH  32  35
ENDBRANCH  31  32
ENDBRANCH  30  31
ENDBRANCH  29  30
ENDBRANCH  28  29
ENDBRANCH  23  28
ENDBRANCH   1  24
TORSDOF 8
