REMARK  Name = ZINC08777516
REMARK  10 active torsions:
REMARK  status: ('A' for Active; 'I' for Inactive)
REMARK    1  A    between atoms: C_1  and  C_2
REMARK    2  A    between atoms: C_2  and  C_3
REMARK    3  A    between atoms: C_3  and  N_4
REMARK    4  A    between atoms: N_4  and  C_5
REMARK    5  A    between atoms: C_6  and  N_21
REMARK    6  A    between atoms: N_7  and  C_14
REMARK    7  A    between atoms: C_14  and  C_15
REMARK    8  A    between atoms: C_22  and  C_24
REMARK    9  A    between atoms: C_24  and  S_25
REMARK   10  A    between atoms: S_25  and  C_26
REMARK                            x       y       z     vdW  Elec       q    Type
REMARK                         _______ _______ _______ _____ _____    ______ ____
ROOT
ATOM      1  N   UNL     1       0.071   0.014  -0.025  0.00  0.00    -0.264 N 
ATOM      2  C   UNL     1      -1.091  -0.659   0.112  0.00  0.00    +0.230 C 
ATOM      3  O   UNL     1      -2.142  -0.053   0.152  0.00  0.00    -0.274 OA
ENDROOT
BRANCH   1   4
ATOM      4  C   UNL     1       0.074   1.425  -0.019  0.00  0.00    +0.140 A 
ATOM      5  C   UNL     1       0.426   2.131  -1.150  0.00  0.00    +0.128 A 
ATOM      6  N   UNL     1       0.417   3.506  -1.114  0.00  0.00    -0.276 N 
ATOM      7  C   UNL     1       0.076   4.155   0.015  0.00  0.00    +0.331 A 
ATOM      8  O   UNL     1       0.077   5.370   0.028  0.00  0.00    -0.246 OA
ATOM      9  N   UNL     1      -0.266   3.483   1.128  0.00  0.00    -0.273 N 
ATOM     10  H   UNL     1      -0.515   3.989   1.954  0.00  0.00    +0.173 HD
ATOM     11  C   UNL     1      -0.277   2.136   1.144  0.00  0.00    +0.277 A 
ATOM     12  O   UNL     1      -0.588   1.536   2.160  0.00  0.00    -0.266 OA
BRANCH   5  13
ATOM     13  N   UNL     1       0.780   1.468  -2.301  0.00  0.00    -0.343 N 
ATOM     14  H   UNL     1       0.833   0.500  -2.307  0.00  0.00    +0.144 HD
ATOM     15  H   UNL     1       0.976   1.970  -3.108  0.00  0.00    +0.144 HD
ENDBRANCH   5  13
BRANCH   6  16
ATOM     16  C   UNL     1       0.785   4.269  -2.309  0.00  0.00    +0.163 C 
BRANCH  16  17
ATOM     17  C   UNL     1       2.270   4.524  -2.305  0.00  0.00    -0.028 A 
ATOM     18  C   UNL     1       2.774   5.665  -1.710  0.00  0.00    +0.005 A 
ATOM     19  C   UNL     1       4.136   5.897  -1.702  0.00  0.00    +0.000 A 
ATOM     20  C   UNL     1       4.995   4.992  -2.297  0.00  0.00    +0.000 A 
ATOM     21  C   UNL     1       4.491   3.852  -2.897  0.00  0.00    +0.000 A 
ATOM     22  C   UNL     1       3.128   3.618  -2.900  0.00  0.00    +0.005 A 
ENDBRANCH  16  17
ENDBRANCH   6  16
ENDBRANCH   1   4
BRANCH   1  23
ATOM     23  C   UNL     1       1.328  -0.721  -0.182  0.00  0.00    +0.114 C 
BRANCH  23  25
ATOM     24  C   UNL     1       3.187  -1.866   1.033  0.00  0.00    +0.005 C 
ATOM     25  C   UNL     1       1.873  -1.099   1.197  0.00  0.00    +0.016 C 
ENDBRANCH  23  25
ENDBRANCH   1  23
BRANCH   2  26
ATOM     26  C   UNL     1      -1.083  -2.162   0.217  0.00  0.00    +0.170 C 
BRANCH  26  27
ATOM     27  S   UNL     1      -2.785  -2.765   0.392  0.00  0.00    -0.116 S 
BRANCH  27  28
ATOM     28  C   UNL     1      -2.609  -4.515   0.501  0.00  0.00    +0.012 A 
ATOM     29  C   UNL     1      -1.346  -5.090   0.437  0.00  0.00    +0.018 A 
ATOM     30  C   UNL     1      -1.204  -6.463   0.528  0.00  0.00    +0.050 A 
ATOM     31  C   UNL     1      -2.325  -7.263   0.672  0.00  0.00    +0.162 A 
ATOM     32  C   UNL     1      -3.588  -6.692   0.730  0.00  0.00    +0.163 A 
ATOM     33  C   UNL     1      -3.734  -5.318   0.645  0.00  0.00    +0.064 A 
ATOM     34  O   UNL     1      -4.684  -7.492   0.874  0.00  0.00    -0.488 OA
ATOM     35  C   UNL     1      -4.998  -8.326  -0.243  0.00  0.00    +0.232 C 
ATOM     36  C   UNL     1      -4.192  -9.615  -0.199  0.00  0.00    +0.082 C 
ATOM     37  C   UNL     1      -2.699  -9.368  -0.350  0.00  0.00    +0.232 C 
ATOM     38  O   UNL     1      -2.194  -8.620   0.757  0.00  0.00    -0.488 OA
ENDBRANCH  27  28
ENDBRANCH  26  27
ENDBRANCH   2  26
TORSDOF 9
