REMARK  Name = ZINC20860492
REMARK  8 active torsions:
REMARK  status: ('A' for Active; 'I' for Inactive)
REMARK    1  A    between atoms: C_3  and  C_11
REMARK    2  A    between atoms: C_5  and  C_7
REMARK    3  A    between atoms: C_11  and  N_12
REMARK    4  A    between atoms: N_12  and  C_13
REMARK    5  A    between atoms: C_13  and  C_14
REMARK    6  A    between atoms: C_23  and  N_24
REMARK    7  A    between atoms: C_28  and  C_31
REMARK    8  A    between atoms: C_31  and  O_32
REMARK                            x       y       z     vdW  Elec       q    Type
REMARK                         _______ _______ _______ _____ _____    ______ ____
ROOT
ATOM      1  C   UNL     1      -0.177   7.926  -2.777  0.00  0.00    -0.024 A 
ATOM      2  C   UNL     1       0.948   8.451  -3.340  0.00  0.00    +0.015 A 
ATOM      3  C   UNL     1       0.937   8.732  -4.720  0.00  0.00    +0.004 A 
ATOM      4  C   UNL     1       2.064   9.269  -5.362  0.00  0.00    +0.059 A 
ATOM      5  C   UNL     1       2.021   9.534  -6.701  0.00  0.00    +0.167 A 
ATOM      6  C   UNL     1       0.857   9.274  -7.444  0.00  0.00    +0.168 A 
ATOM      7  C   UNL     1      -0.253   8.751  -6.843  0.00  0.00    +0.078 A 
ATOM      8  C   UNL     1      -0.238   8.469  -5.468  0.00  0.00    +0.077 A 
ATOM      9  N   UNL     1      -1.315   7.957  -4.860  0.00  0.00    -0.232 NA
ATOM     10  C   UNL     1      -1.308   7.688  -3.570  0.00  0.00    +0.123 A 
ATOM     11  O   UNL     1       1.087   9.628  -8.743  0.00  0.00    -0.453 OA
ATOM     12  C   UNL     1       2.518   9.715  -8.871  0.00  0.00    +0.466 C 
ATOM     13  O   UNL     1       2.966  10.047  -7.543  0.00  0.00    -0.453 OA
ENDROOT
BRANCH  10  14
ATOM     14  N   UNL     1      -2.448   7.157  -2.982  0.00  0.00    -0.315 N 
ATOM     15  C   UNL     1      -3.578   8.089  -3.088  0.00  0.00    +0.106 C 
ATOM     16  C   UNL     1      -4.772   7.537  -2.307  0.00  0.00    +0.019 C 
ATOM     17  C   UNL     1      -5.159   6.169  -2.876  0.00  0.00    +0.009 C 
ATOM     18  C   UNL     1      -3.951   5.232  -2.798  0.00  0.00    +0.032 C 
ATOM     19  C   UNL     1      -2.781   5.851  -3.566  0.00  0.00    +0.112 C 
BRANCH  18  20
ATOM     20  C   UNL     1      -4.312   3.881  -3.420  0.00  0.00    +0.160 C 
BRANCH  20  21
ATOM     21  O   UNL     1      -5.328   3.252  -2.636  0.00  0.00    -0.395 OA
ATOM     22  H   UNL     1      -5.718   2.267  -2.930  0.00  0.00    +0.209 HD
ENDBRANCH  20  21
ENDBRANCH  18  20
ENDBRANCH  10  14
BRANCH   1  23
ATOM     23  C   UNL     1      -0.206   7.606  -1.305  0.00  0.00    -0.043 C 
BRANCH  23  24
ATOM     24  N   UNL     1      -0.067   6.156  -1.116  0.00  0.00    +0.384 N 
ATOM     25  H   UNL     1       0.888   5.833  -1.556  0.00  0.00    -0.085 HD
ATOM     26  H   UNL     1      -0.898   5.651  -1.631  0.00  0.00    -0.085 HD
BRANCH  24  27
ATOM     27  C   UNL     1      -0.091   5.806   0.310  0.00  0.00    -0.046 C 
BRANCH  27  30
ATOM     28  C   UNL     1      -0.936   2.139   0.620  0.00  0.00    +0.001 A 
ATOM     29  C   UNL     1      -1.069   3.509   0.485  0.00  0.00    +0.002 A 
ATOM     30  C   UNL     1       0.054   4.314   0.465  0.00  0.00    -0.064 A 
ATOM     31  C   UNL     1       1.310   3.750   0.585  0.00  0.00    +0.014 A 
ATOM     32  C   UNL     1       1.444   2.382   0.726  0.00  0.00    +0.055 A 
ATOM     33  C   UNL     1       0.320   1.577   0.746  0.00  0.00    +0.012 A 
BRANCH  32  34
ATOM     34  C   UNL     1       2.813   1.768   0.857  0.00  0.00    +0.417 C 
ATOM     35  F   UNL     1       2.692   0.380   0.986  0.00  0.00    -0.166 F 
ATOM     36  F   UNL     1       3.569   2.066  -0.282  0.00  0.00    -0.166 F 
ATOM     37  F   UNL     1       3.451   2.287   1.989  0.00  0.00    -0.166 F 
ENDBRANCH  32  34
ENDBRANCH  27  30
ENDBRANCH  24  27
ENDBRANCH  23  24
ENDBRANCH   1  23
TORSDOF 8
