REMARK  Name = ZINC59777894
REMARK  8 active torsions:
REMARK  status: ('A' for Active; 'I' for Inactive)
REMARK    1  A    between atoms: C_1  and  C_2
REMARK    2  A    between atoms: C_2  and  C_3
REMARK    3  A    between atoms: C_3  and  S_4
REMARK    4  A    between atoms: S_4  and  C_5
REMARK    5  A    between atoms: C_11  and  C_13
REMARK    6  A    between atoms: C_13  and  S_14
REMARK    7  A    between atoms: S_14  and  C_15
REMARK    8  A    between atoms: C_18  and  C_21
REMARK                            x       y       z     vdW  Elec       q    Type
REMARK                         _______ _______ _______ _____ _____    ______ ____
ROOT
ATOM      1  C   UNL     1      -9.233  -4.660   0.067  0.00  0.00    +0.173 C 
ENDROOT
BRANCH   1   8
ATOM      2  C   UNL     1      -3.112  -2.797   0.017  0.00  0.00    +0.160 A 
ATOM      3  N   UNL     1      -4.195  -2.033   0.025  0.00  0.00    -0.133 NA
ATOM      4  N   UNL     1      -5.357  -2.523   0.035  0.00  0.00    -0.125 NA
ATOM      5  C   UNL     1      -5.567  -3.829   0.037  0.00  0.00    +0.189 A 
ATOM      6  S   UNL     1      -3.876  -4.417   0.015  0.00  0.00    -0.024 S 
ATOM      7  N   UNL     1      -6.763  -4.544   0.047  0.00  0.00    -0.263 N 
ATOM      8  C   UNL     1      -7.940  -3.887   0.056  0.00  0.00    +0.229 C 
ATOM      9  O   UNL     1      -7.958  -2.675   0.056  0.00  0.00    -0.275 OA
ATOM     10  H   UNL     1      -6.748  -5.514   0.047  0.00  0.00    +0.157 HD
BRANCH   2  11
ATOM     11  S   UNL     1      -1.409  -2.348   0.003  0.00  0.00    -0.097 S 
BRANCH  11  12
ATOM     12  C   UNL     1      -1.433  -0.534   0.013  0.00  0.00    +0.076 C 
BRANCH  12  14
ATOM     13  C   UNL     1      -0.019   1.526   0.010  0.00  0.00    +0.004 C 
ATOM     14  C   UNL     1       0.002  -0.004   0.002  0.00  0.00    +0.008 C 
ENDBRANCH  12  14
ENDBRANCH  11  12
ENDBRANCH   2  11
ENDBRANCH   1   8
BRANCH   1  15
ATOM     15  S   UNL     1     -10.630  -3.502   0.078  0.00  0.00    -0.077 S 
BRANCH  15  16
ATOM     16  C   UNL     1     -12.049  -4.546   0.090  0.00  0.00    +0.185 A 
ATOM     17  N   UNL     1     -12.041  -5.861   0.091  0.00  0.00    -0.201 NA
ATOM     18  H   UNL     1     -13.653  -3.219   0.113  0.00  0.00    +0.191 HD
ATOM     19  C   UNL     1     -13.301  -6.320   0.102  0.00  0.00    +0.182 A 
ATOM     20  N   UNL     1     -14.126  -5.297   0.107  0.00  0.00    -0.152 NA
ATOM     21  N   UNL     1     -13.337  -4.136   0.106  0.00  0.00    -0.253 N 
BRANCH  19  22
ATOM     22  C   UNL     1     -13.699  -7.749   0.105  0.00  0.00    +0.021 A 
ATOM     23  C   UNL     1     -12.726  -8.746   0.104  0.00  0.00    +0.013 A 
ATOM     24  C   UNL     1     -13.101 -10.074   0.107  0.00  0.00    +0.016 A 
ATOM     25  C   UNL     1     -14.442 -10.416   0.112  0.00  0.00    +0.018 A 
ATOM     26  C   UNL     1     -15.413  -9.430   0.114  0.00  0.00    +0.016 A 
ATOM     27  C   UNL     1     -15.048  -8.099   0.117  0.00  0.00    +0.013 A 
ATOM     28 BR   UNL     1     -14.949 -12.238   0.116  0.00  0.00    -0.050 Br
ENDBRANCH  19  22
ENDBRANCH  15  16
ENDBRANCH   1  15
TORSDOF 7
