REMARK  Name = ZINC21965221
REMARK  4 active torsions:
REMARK  status: ('A' for Active; 'I' for Inactive)
REMARK    1  A    between atoms: C_1  and  C_2
REMARK    2  A    between atoms: C_3  and  N_16
REMARK    3  A    between atoms: C_4  and  C_7
REMARK    4  A    between atoms: C_8  and  C_9
REMARK                            x       y       z     vdW  Elec       q    Type
REMARK                         _______ _______ _______ _____ _____    ______ ____
ROOT
ATOM      1  C   UNL     1      -2.682  10.831   0.088  0.00  0.00    +0.091 C 
ATOM      2  C   UNL     1      -1.903   9.541   0.073  0.00  0.00    +0.165 A 
ATOM      3  C   UNL     1      -2.414   8.290   0.071  0.00  0.00    +0.195 A 
ATOM      4  C   UNL     1      -1.264   7.449   0.055  0.00  0.00    +0.137 A 
ATOM      5  N   UNL     1      -0.226   8.253   0.056  0.00  0.00    -0.076 NA
ATOM      6  O   UNL     1      -0.568   9.413   0.061  0.00  0.00    -0.357 OA
ENDROOT
BRANCH   3   7
ATOM      7  N   UNL     1      -3.839   7.887   0.082  0.00  0.00    +0.062 N 
ATOM      8  O   UNL     1      -4.415   7.715   1.141  0.00  0.00    -0.126 OA
ATOM      9  O   UNL     1      -4.435   7.728  -0.969  0.00  0.00    -0.126 OA
ENDBRANCH   3   7
BRANCH   4  10
ATOM     10  C   UNL     1      -1.243   5.974   0.046  0.00  0.00    +0.034 C 
ATOM     11  C   UNL     1      -0.071   5.320   0.032  0.00  0.00    +0.010 C 
BRANCH  11  12
ATOM     12  C   UNL     1      -0.050   3.846   0.023  0.00  0.00    -0.024 A 
ATOM     13  C   UNL     1      -1.249   3.127   0.031  0.00  0.00    +0.008 A 
ATOM     14  C   UNL     1      -1.222   1.748   0.017  0.00  0.00    +0.002 A 
ATOM     15  C   UNL     1      -0.013   1.076   0.008  0.00  0.00    +0.015 A 
ATOM     16  C   UNL     1       1.179   1.781   0.000  0.00  0.00    +0.018 A 
ATOM     17  C   UNL     1       1.167   3.161   0.008  0.00  0.00    +0.023 A 
ATOM     18 BR   UNL     1       2.825   0.851  -0.020  0.00  0.00    -0.050 Br
ENDBRANCH  11  12
ENDBRANCH   4  10
TORSDOF 3
