REMARK  Name = ZINC09496438
REMARK  10 active torsions:
REMARK  status: ('A' for Active; 'I' for Inactive)
REMARK    1  A    between atoms: C_1  and  C_2
REMARK    2  A    between atoms: C_2  and  C_3
REMARK    3  A    between atoms: C_3  and  C_4
REMARK    4  A    between atoms: C_11  and  C_19
REMARK    5  A    between atoms: C_13  and  C_14
REMARK    6  A    between atoms: C_14  and  O_16
REMARK    7  A    between atoms: O_16  and  C_17
REMARK    8  A    between atoms: C_17  and  C_18
REMARK    9  A    between atoms: C_24  and  O_25
REMARK   10  A    between atoms: O_25  and  C_26
REMARK                            x       y       z     vdW  Elec       q    Type
REMARK                         _______ _______ _______ _____ _____    ______ ____
ROOT
ATOM      1  C   UNL     1       0.820  -2.021   1.324  0.00  0.00    +0.023 C 
ATOM      2  N   UNL     1      -0.205  -2.700   1.933  0.00  0.00    -0.287 N 
ATOM      3  C   UNL     1      -0.368  -4.039   1.606  0.00  0.00    +0.218 A 
ATOM      4  N   UNL     1      -1.359  -4.852   1.851  0.00  0.00    -0.201 NA
ATOM      5  C   UNL     1      -1.086  -6.057   1.341  0.00  0.00    +0.247 A 
ATOM      6  N   UNL     1       0.089  -6.024   0.763  0.00  0.00    -0.156 NA
ATOM      7  N   UNL     1       0.579  -4.729   0.923  0.00  0.00    -0.221 N 
ATOM      8  C   UNL     1       1.844  -4.146   0.482  0.00  0.00    +0.182 C 
ATOM      9  C   UNL     1       1.783  -2.649   0.633  0.00  0.00    +0.082 C 
ATOM     10  H   UNL     1      -0.793  -2.262   2.568  0.00  0.00    +0.155 HD
ENDROOT
BRANCH   8  11
ATOM     11  C   UNL     1       2.969  -4.695   1.321  0.00  0.00    +0.024 A 
ATOM     12  C   UNL     1       2.967  -4.505   2.690  0.00  0.00    +0.025 A 
ATOM     13  C   UNL     1       4.000  -5.009   3.460  0.00  0.00    +0.018 A 
ATOM     14  C   UNL     1       5.037  -5.704   2.862  0.00  0.00    +0.019 A 
ATOM     15  C   UNL     1       5.042  -5.896   1.494  0.00  0.00    +0.047 A 
ATOM     16  C   UNL     1       4.004  -5.396   0.720  0.00  0.00    +0.126 A 
ATOM     17 BR   UNL     1       3.996  -4.747   5.333  0.00  0.00    -0.050 Br
BRANCH  16  18
ATOM     18  O   UNL     1       4.005  -5.588  -0.625  0.00  0.00    -0.495 OA
ATOM     19  C   UNL     1       5.103  -6.319  -1.176  0.00  0.00    +0.277 C 
ENDBRANCH  16  18
ENDBRANCH   8  11
BRANCH   9  20
ATOM     20  C   UNL     1       2.791  -1.870   0.022  0.00  0.00    +0.339 C 
ATOM     21  O   UNL     1       2.731  -1.622  -1.168  0.00  0.00    -0.245 OA
BRANCH  20  22
ATOM     22  O   UNL     1       3.820  -1.400   0.758  0.00  0.00    -0.462 OA
BRANCH  22  23
ATOM     23  C   UNL     1       4.803  -0.620   0.075  0.00  0.00    +0.229 C 
ATOM     24  C   UNL     1       5.883  -0.179   1.066  0.00  0.00    +0.048 C 
ENDBRANCH  22  23
ENDBRANCH  20  22
ENDBRANCH   9  20
BRANCH   1  25
ATOM     25  C   UNL     1       0.861  -0.518   1.429  0.00  0.00    +0.051 C 
BRANCH  25  27
ATOM     26  C   UNL     1       0.083   1.621   0.399  0.00  0.00    +0.004 C 
ATOM     27  C   UNL     1       0.041   0.096   0.292  0.00  0.00    +0.002 C 
ENDBRANCH  25  27
ENDBRANCH   1  25
TORSDOF 7
