REMARK  Name = ZINC13638601
REMARK  5 active torsions:
REMARK  status: ('A' for Active; 'I' for Inactive)
REMARK    1  A    between atoms: C_1  and  O_2
REMARK    2  A    between atoms: O_2  and  C_3
REMARK    3  A    between atoms: C_9  and  C_13
REMARK    4  A    between atoms: C_13  and  C_14
REMARK    5  A    between atoms: C_14  and  N_15
REMARK                            x       y       z     vdW  Elec       q    Type
REMARK                         _______ _______ _______ _____ _____    ______ ____
ROOT
ATOM      1  N   UNL     1       2.376   0.012  -0.021  0.00  0.00    -0.314 N 
ATOM      2  C   UNL     1       1.184  -0.647  -0.013  0.00  0.00    +0.091 A 
ATOM      3  C   UNL     1       0.002  -0.004   0.002  0.00  0.00    +0.046 A 
ATOM      4  C   UNL     1      -0.018   1.456   0.010  0.00  0.00    +0.083 A 
ATOM      5  C   UNL     1       1.222   2.144   0.002  0.00  0.00    +0.083 A 
ATOM      6  C   UNL     1       2.456   1.358  -0.014  0.00  0.00    +0.262 A 
ATOM      7  O   UNL     1       3.541   1.912  -0.021  0.00  0.00    -0.267 OA
ATOM      8  C   UNL     1       1.214   3.539   0.009  0.00  0.00    +0.129 A 
ATOM      9  N   UNL     1       0.047   4.159   0.024  0.00  0.00    -0.222 NA
ATOM     10  C   UNL     1      -1.098   3.484   0.031  0.00  0.00    +0.218 A 
ATOM     11  N   UNL     1      -1.145   2.160   0.019  0.00  0.00    -0.214 NA
ATOM     12  N   UNL     1      -2.284   4.190   0.046  0.00  0.00    -0.300 N 
ATOM     13  C   UNL     1      -3.142   3.803  -1.081  0.00  0.00    +0.108 C 
ATOM     14  C   UNL     1      -4.501   4.494  -0.952  0.00  0.00    +0.019 C 
ATOM     15  C   UNL     1      -4.297   6.012  -0.939  0.00  0.00    +0.003 C 
ATOM     16  C   UNL     1      -3.362   6.383   0.215  0.00  0.00    +0.019 C 
ATOM     17  C   UNL     1      -2.036   5.637   0.052  0.00  0.00    +0.108 C 
ENDROOT
BRANCH   1  18
ATOM     18  C   UNL     1       3.615  -0.770  -0.037  0.00  0.00    +0.129 C 
BRANCH  18  19
ATOM     19  C   UNL     1       4.032  -1.034  -1.486  0.00  0.00    +0.059 C 
BRANCH  19  26
ATOM     20  C   UNL     1       4.934  -5.639  -1.222  0.00  0.00    +0.121 A 
ATOM     21  C   UNL     1       6.296  -5.922  -1.279  0.00  0.00    +0.047 A 
ATOM     22  C   UNL     1       7.219  -4.908  -1.401  0.00  0.00    +0.030 A 
ATOM     23  C   UNL     1       6.794  -3.585  -1.467  0.00  0.00    +0.047 A 
ATOM     24  C   UNL     1       5.419  -3.295  -1.403  0.00  0.00    +0.006 A 
ATOM     25  C   UNL     1       4.492  -4.333  -1.286  0.00  0.00    +0.056 A 
ATOM     26  C   UNL     1       5.307  -1.838  -1.502  0.00  0.00    -0.021 A 
ATOM     27  C   UNL     1       6.555  -1.354  -1.606  0.00  0.00    +0.087 A 
ATOM     28  N   UNL     1       7.457  -2.382  -1.586  0.00  0.00    -0.360 N 
ATOM     29  H   UNL     1       8.420  -2.280  -1.647  0.00  0.00    +0.165 HD
BRANCH  20  31
ATOM     30  C   UNL     1       4.561  -7.981  -1.040  0.00  0.00    +0.277 C 
ATOM     31  O   UNL     1       4.036  -6.653  -1.101  0.00  0.00    -0.495 OA
ENDBRANCH  20  31
ENDBRANCH  19  26
ENDBRANCH  18  19
ENDBRANCH   1  18
TORSDOF 4
