REMARK  Name = ZINC02385986
REMARK  7 active torsions:
REMARK  status: ('A' for Active; 'I' for Inactive)
REMARK    1  A    between atoms: C_4  and  S_7
REMARK    2  A    between atoms: S_7  and  C_8
REMARK    3  A    between atoms: C_8  and  C_9
REMARK    4  A    between atoms: C_10  and  C_20
REMARK    5  A    between atoms: N_22  and  N_23
REMARK    6  A    between atoms: C_24  and  C_25
REMARK    7  A    between atoms: C_28  and  C_31
REMARK                            x       y       z     vdW  Elec       q    Type
REMARK                         _______ _______ _______ _____ _____    ______ ____
ROOT
ATOM      1  C   UNL     1       1.272   1.805  -0.000  0.00  0.00    +0.089 A 
ATOM      2  C   UNL     1       2.042   0.677  -0.014  0.00  0.00    +0.173 A 
ATOM      3  N   UNL     1       1.229  -0.394  -0.012  0.00  0.00    -0.124 NA
ATOM      4  N   UNL     1       0.002  -0.004   0.002  0.00  0.00    -0.058 NA
ATOM      5  N   UNL     1      -0.017   1.398   0.010  0.00  0.00    -0.191 N 
ATOM      6  C   UNL     1      -1.151   2.217   0.020  0.00  0.00    +0.240 A 
ATOM      7  C   UNL     1      -2.543   1.756   0.025  0.00  0.00    +0.206 A 
ATOM      8  N   UNL     1      -3.322   2.803   0.035  0.00  0.00    -0.032 NA
ATOM      9  O   UNL     1      -2.499   3.956   0.036  0.00  0.00    -0.239 OA
ATOM     10  N   UNL     1      -1.151   3.520   0.032  0.00  0.00    -0.027 NA
ATOM     11  N   UNL     1      -2.961   0.430   0.019  0.00  0.00    -0.337 N 
ATOM     12  H   UNL     1      -2.305  -0.285   0.012  0.00  0.00    +0.144 HD
ATOM     13  H   UNL     1      -3.908   0.220   0.023  0.00  0.00    +0.144 HD
ENDROOT
BRANCH   2  14
ATOM     14  C   UNL     1       3.516   0.640  -0.028  0.00  0.00    +0.285 C 
ATOM     15  O   UNL     1       4.151   1.678  -0.028  0.00  0.00    -0.267 OA
ATOM     16  N   UNL     1       4.161  -0.543  -0.040  0.00  0.00    -0.202 N 
ATOM     17  H   UNL     1       3.655  -1.371  -0.040  0.00  0.00    +0.178 HD
BRANCH  16  18
ATOM     18  N   UNL     1       5.561  -0.579  -0.053  0.00  0.00    -0.187 NA
ATOM     19  C   UNL     1       6.181  -1.718  -0.065  0.00  0.00    +0.138 C 
BRANCH  19  20
ATOM     20  C   UNL     1       7.656  -1.755  -0.079  0.00  0.00    -0.005 A 
ATOM     21  C   UNL     1       8.387  -0.566  -0.085  0.00  0.00    +0.010 A 
ATOM     22  C   UNL     1       9.766  -0.608  -0.094  0.00  0.00    +0.013 A 
ATOM     23  C   UNL     1      10.424  -1.825  -0.107  0.00  0.00    +0.055 A 
ATOM     24  C   UNL     1       9.706  -3.007  -0.106  0.00  0.00    +0.013 A 
ATOM     25  C   UNL     1       8.327  -2.980  -0.092  0.00  0.00    +0.010 A 
BRANCH  23  26
ATOM     26  C   UNL     1      11.931  -1.863  -0.122  0.00  0.00    +0.417 C 
ATOM     27  F   UNL     1      12.383  -1.867  -1.446  0.00  0.00    -0.166 F 
ATOM     28  F   UNL     1      12.432  -0.736   0.538  0.00  0.00    -0.166 F 
ATOM     29  F   UNL     1      12.375  -3.020   0.526  0.00  0.00    -0.166 F 
ENDBRANCH  23  26
ENDBRANCH  19  20
ENDBRANCH  16  18
ENDBRANCH   2  14
BRANCH   1  30
ATOM     30  C   UNL     1       1.764   3.230   0.003  0.00  0.00    +0.132 C 
BRANCH  30  31
ATOM     31  S   UNL     1       1.978   3.792   1.714  0.00  0.00    -0.119 S 
BRANCH  31  35
ATOM     32  C   UNL     1       3.446   8.056   1.291  0.00  0.00    +0.000 A 
ATOM     33  C   UNL     1       3.271   7.508   2.549  0.00  0.00    +0.001 A 
ATOM     34  C   UNL     1       2.824   6.208   2.682  0.00  0.00    +0.015 A 
ATOM     35  C   UNL     1       2.549   5.451   1.549  0.00  0.00    +0.008 A 
ATOM     36  C   UNL     1       2.732   6.003   0.287  0.00  0.00    +0.015 A 
ATOM     37  C   UNL     1       3.173   7.305   0.162  0.00  0.00    +0.001 A 
ENDBRANCH  31  35
ENDBRANCH  30  31
ENDBRANCH   1  30
TORSDOF 7
