REMARK  Name = ZINC09545905
REMARK  8 active torsions:
REMARK  status: ('A' for Active; 'I' for Inactive)
REMARK    1  A    between atoms: C_1  and  C_2
REMARK    2  A    between atoms: N_11  and  C_15
REMARK    3  A    between atoms: C_15  and  C_16
REMARK    4  A    between atoms: C_16  and  O_18
REMARK    5  A    between atoms: O_18  and  C_19
REMARK    6  A    between atoms: C_19  and  C_21
REMARK    7  A    between atoms: C_19  and  C_22
REMARK    8  A    between atoms: N_24  and  C_25
REMARK                            x       y       z     vdW  Elec       q    Type
REMARK                         _______ _______ _______ _____ _____    ______ ____
ROOT
ATOM      1  C   UNL     1      -2.975   0.372   5.579  0.00  0.00    +0.326 C 
ATOM      2  O   UNL     1      -1.790   0.411   5.350  0.00  0.00    -0.249 OA
ENDROOT
BRANCH   1   3
ATOM      3  C   UNL     1      -3.963   0.371   4.441  0.00  0.00    +0.238 C 
BRANCH   3  13
ATOM      4  C   UNL     1      -0.013   1.116   2.516  0.00  0.00    +0.010 C 
ATOM      5  C   UNL     1      -0.745   1.644   1.280  0.00  0.00    +0.018 C 
ATOM      6  C   UNL     1      -0.025   1.162   0.018  0.00  0.00    +0.006 C 
ATOM      7  C   UNL     1      -0.769   1.673  -1.218  0.00  0.00    +0.000 C 
ATOM      8  C   UNL     1      -2.199   1.129  -1.217  0.00  0.00    +0.003 C 
ATOM      9  C   UNL     1      -2.926   1.611   0.041  0.00  0.00    +0.035 C 
ATOM     10  C   UNL     1      -2.179   1.126   1.279  0.00  0.00    +0.115 C 
ATOM     11  C   UNL     1      -2.899   1.562   2.534  0.00  0.00    +0.247 C 
ATOM     12  O   UNL     1      -3.121   2.697   2.896  0.00  0.00    -0.273 OA
ATOM     13  N   UNL     1      -3.241   0.421   3.167  0.00  0.00    -0.213 N 
ATOM     14  C   UNL     1      -2.839  -0.660   2.488  0.00  0.00    +0.310 C 
ATOM     15  O   UNL     1      -3.031  -1.802   2.858  0.00  0.00    -0.252 OA
ATOM     16  N   UNL     1      -2.196  -0.340   1.348  0.00  0.00    -0.285 N 
ATOM     17  H   UNL     1      -1.819  -0.957   0.702  0.00  0.00    +0.151 HD
ENDBRANCH   3  13
ENDBRANCH   1   3
BRANCH   1  18
ATOM     18  O   UNL     1      -3.413   0.330   6.848  0.00  0.00    -0.451 OA
BRANCH  18  19
ATOM     19  C   UNL     1      -2.405   0.334   7.893  0.00  0.00    +0.259 C 
ATOM     20  C   UNL     1      -2.091   1.777   8.293  0.00  0.00    +0.062 C 
BRANCH  19  21
ATOM     21  C   UNL     1      -2.921  -0.419   9.091  0.00  0.00    +0.258 C 
ATOM     22  O   UNL     1      -4.029  -0.911   9.067  0.00  0.00    -0.271 OA
ATOM     23  N   UNL     1      -2.151  -0.546  10.190  0.00  0.00    -0.281 N 
ATOM     24  H   UNL     1      -1.236  -0.223  10.182  0.00  0.00    +0.155 HD
BRANCH  23  25
ATOM     25  C   UNL     1      -2.672  -1.144  11.345  0.00  0.00    +0.052 A 
ATOM     26  C   UNL     1      -4.041  -1.140  11.573  0.00  0.00    +0.026 A 
ATOM     27  C   UNL     1      -4.552  -1.731  12.712  0.00  0.00    +0.022 A 
ATOM     28  C   UNL     1      -3.701  -2.326  13.626  0.00  0.00    +0.042 A 
ATOM     29  C   UNL     1      -2.336  -2.331  13.402  0.00  0.00    +0.041 A 
ATOM     30  C   UNL     1      -1.819  -1.747  12.261  0.00  0.00    +0.064 A 
ATOM     31 CL   UNL     1      -0.107  -1.761  11.977  0.00  0.00    -0.082 Cl
ATOM     32 CL   UNL     1      -4.347  -3.067  15.057  0.00  0.00    -0.083 Cl
ENDBRANCH  23  25
ENDBRANCH  19  21
ENDBRANCH  18  19
ENDBRANCH   1  18
TORSDOF 6
