REMARK  Name = ZINC09579539
REMARK  9 active torsions:
REMARK  status: ('A' for Active; 'I' for Inactive)
REMARK    1  A    between atoms: C_1  and  C_2
REMARK    2  A    between atoms: C_3  and  S_8
REMARK    3  A    between atoms: C_4  and  C_7
REMARK    4  A    between atoms: S_8  and  N_11
REMARK    5  A    between atoms: C_16  and  C_18
REMARK    6  A    between atoms: C_16  and  C_19
REMARK    7  A    between atoms: C_16  and  N_62
REMARK    8  A    between atoms: N_21  and  C_22
REMARK    9  A    between atoms: C_23  and  C_32
REMARK                            x       y       z     vdW  Elec       q    Type
REMARK                         _______ _______ _______ _____ _____    ______ ____
ROOT
ATOM      1  C   UNL     1       2.158   7.147   1.259  0.00  0.00    +0.017 C 
ATOM      2  C   UNL     1       0.815   6.595   0.779  0.00  0.00    -0.004 C 
ENDROOT
BRANCH   1   8
ATOM      3  N   UNL     1       3.943   4.941   4.351  0.00  0.00    -0.180 NA
ATOM      4  C   UNL     1       2.605   4.513   3.915  0.00  0.00    +0.091 C 
ATOM      5  C   UNL     1       1.940   5.686   3.178  0.00  0.00    -0.060 C 
ATOM      6  C   UNL     1       4.091   6.667   2.636  0.00  0.00    -0.060 C 
ATOM      7  C   UNL     1       4.842   5.540   3.353  0.00  0.00    +0.091 C 
ATOM      8  N   UNL     1       2.833   6.122   2.082  0.00  0.00    +0.389 N 
ATOM      9  H   UNL     1       3.053   5.312   1.490  0.00  0.00    -0.081 HD
BRANCH   3  10
ATOM     10  S   UNL     1       4.427   4.748   5.923  0.00  0.00    +0.066 S 
ATOM     11  O   UNL     1       5.847   4.705   5.908  0.00  0.00    -0.153 OA
ATOM     12  O   UNL     1       3.639   3.697   6.465  0.00  0.00    -0.153 OA
BRANCH  10  15
ATOM     13  C   UNL     1       1.578   5.570   7.599  0.00  0.00    +0.071 C 
ATOM     14  C   UNL     1       2.766   6.487   7.468  0.00  0.00    +0.107 A 
ATOM     15  C   UNL     1       3.977   6.213   6.791  0.00  0.00    +0.170 A 
ATOM     16  C   UNL     1       4.710   7.340   6.963  0.00  0.00    +0.161 A 
ATOM     17  O   UNL     1       3.954   8.178   7.686  0.00  0.00    -0.358 OA
ATOM     18  N   UNL     1       2.880   7.690   7.952  0.00  0.00    -0.081 NA
ATOM     19  C   UNL     1       6.100   7.599   6.443  0.00  0.00    +0.091 C 
ENDBRANCH  10  15
ENDBRANCH   3  10
ENDBRANCH   1   8
BRANCH   1  20
ATOM     20  C   UNL     1       3.026   7.464   0.069  0.00  0.00    +0.204 C 
ATOM     21  O   UNL     1       3.803   6.635  -0.353  0.00  0.00    -0.277 OA
ATOM     22  N   UNL     1       2.938   8.670  -0.527  0.00  0.00    -0.280 N 
ATOM     23  H   UNL     1       2.316   9.333  -0.190  0.00  0.00    +0.155 HD
BRANCH  22  24
ATOM     24  C   UNL     1       3.737   8.962  -1.624  0.00  0.00    +0.090 A 
ATOM     25  C   UNL     1       3.790  10.132  -2.363  0.00  0.00    +0.084 A 
ATOM     26  C   UNL     1       4.726  10.188  -3.478  0.00  0.00    -0.018 A 
ATOM     27  C   UNL     1       5.446   9.062  -3.674  0.00  0.00    -0.004 A 
ATOM     28  S   UNL     1       4.916   7.954  -2.396  0.00  0.00    -0.077 S 
ATOM     29  C   UNL     1       6.469   8.802  -4.734  0.00  0.00    +0.043 C 
ATOM     30  C   UNL     1       7.457   9.976  -4.782  0.00  0.00    +0.005 C 
ATOM     31  C   UNL     1       6.922  11.019  -5.758  0.00  0.00    +0.001 C 
ATOM     32  C   UNL     1       5.395  11.031  -5.729  0.00  0.00    +0.005 C 
ATOM     33  C   UNL     1       4.891  11.429  -4.346  0.00  0.00    +0.037 C 
BRANCH  25  34
ATOM     34  C   UNL     1       2.953  11.249  -2.043  0.00  0.00    +0.102 C 
ATOM     35  N   UNL     1       2.290  12.135  -1.788  0.00  0.00    -0.191 NA
ENDBRANCH  25  34
ENDBRANCH  22  24
ENDBRANCH   1  20
TORSDOF 6
