REMARK  Name = ZINC16167809
REMARK  8 active torsions:
REMARK  status: ('A' for Active; 'I' for Inactive)
REMARK    1  A    between atoms: C_6  and  C_7
REMARK    2  A    between atoms: C_7  and  C_12
REMARK    3  A    between atoms: C_12  and  O_14
REMARK    4  A    between atoms: O_14  and  C_15
REMARK    5  A    between atoms: C_15  and  C_16
REMARK    6  A    between atoms: N_18  and  C_19
REMARK    7  A    between atoms: C_19  and  C_20
REMARK    8  A    between atoms: N_22  and  C_23
REMARK                            x       y       z     vdW  Elec       q    Type
REMARK                         _______ _______ _______ _____ _____    ______ ____
ROOT
ATOM      1  C   UNL     1       5.866   1.413   2.219  0.00  0.00    +0.327 C 
ENDROOT
BRANCH   1   2
ATOM      2  C   UNL     1       6.140   2.894   2.161  0.00  0.00    +0.251 C 
ATOM      3  O   UNL     1       5.678   3.561   1.259  0.00  0.00    -0.272 OA
ATOM      4  N   UNL     1       6.898   3.477   3.110  0.00  0.00    -0.304 N 
ATOM      5  H   UNL     1       7.267   2.943   3.831  0.00  0.00    +0.149 HD
BRANCH   4   6
ATOM      6  C   UNL     1       7.164   4.916   3.054  0.00  0.00    +0.200 C 
BRANCH   6   7
ATOM      7  C   UNL     1       8.029   5.313   4.222  0.00  0.00    +0.234 C 
ATOM      8  O   UNL     1       8.388   4.476   5.023  0.00  0.00    -0.274 OA
ATOM      9  N   UNL     1       8.405   6.598   4.377  0.00  0.00    -0.282 N 
ATOM     10  H   UNL     1       8.051   7.281   3.785  0.00  0.00    +0.155 HD
BRANCH   9  11
ATOM     11  C   UNL     1       9.305   6.948   5.392  0.00  0.00    +0.072 A 
ATOM     12  C   UNL     1      10.313   6.068   5.761  0.00  0.00    +0.029 A 
ATOM     13  C   UNL     1      11.203   6.416   6.759  0.00  0.00    +0.043 A 
ATOM     14  C   UNL     1      11.085   7.637   7.400  0.00  0.00    +0.161 A 
ATOM     15  C   UNL     1      10.076   8.517   7.040  0.00  0.00    +0.195 A 
ATOM     16  C   UNL     1       9.185   8.174   6.036  0.00  0.00    +0.182 A 
ATOM     17  F   UNL     1       8.202   9.031   5.683  0.00  0.00    -0.200 F 
ATOM     18  F   UNL     1       9.962   9.708   7.667  0.00  0.00    -0.199 F 
ATOM     19  F   UNL     1      11.954   7.971   8.379  0.00  0.00    -0.202 F 
ENDBRANCH   9  11
ENDBRANCH   6   7
ENDBRANCH   4   6
ENDBRANCH   1   2
BRANCH   1  20
ATOM     20  O   UNL     1       5.032   1.031   1.093  0.00  0.00    -0.455 OA
BRANCH  20  21
ATOM     21  C   UNL     1       4.694  -0.265   0.998  0.00  0.00    +0.318 C 
ATOM     22  O   UNL     1       5.082  -1.053   1.827  0.00  0.00    -0.250 OA
BRANCH  21  23
ATOM     23  C   UNL     1       3.831  -0.736  -0.144  0.00  0.00    +0.093 C 
ATOM     24  C   UNL     1       4.550  -0.491  -1.487  0.00  0.00    +0.023 C 
ATOM     25  C   UNL     1       5.235  -1.843  -1.804  0.00  0.00    +0.001 C 
ATOM     26  C   UNL     1       4.188  -2.878  -1.323  0.00  0.00    +0.001 C 
ATOM     27  C   UNL     1       3.602  -2.254  -0.040  0.00  0.00    +0.023 C 
BRANCH  23  33
ATOM     28  C   UNL     1       1.615  -0.182  -1.165  0.00  0.00    +0.008 A 
ATOM     29  C   UNL     1       0.403   0.482  -1.152  0.00  0.00    +0.050 A 
ATOM     30  C   UNL     1       0.082   1.321  -0.096  0.00  0.00    +0.162 A 
ATOM     31  C   UNL     1       0.980   1.490   0.951  0.00  0.00    +0.162 A 
ATOM     32  C   UNL     1       2.195   0.822   0.931  0.00  0.00    +0.054 A 
ATOM     33  C   UNL     1       2.510  -0.012  -0.126  0.00  0.00    -0.027 A 
ATOM     34  O   UNL     1       0.682   2.303   2.001  0.00  0.00    -0.485 OA
ATOM     35  C   UNL     1      -0.380   3.243   1.806  0.00  0.00    +0.270 C 
ATOM     36  C   UNL     1      -1.558   2.509   1.151  0.00  0.00    +0.270 C 
ATOM     37  O   UNL     1      -1.112   1.975  -0.101  0.00  0.00    -0.485 OA
ENDBRANCH  23  33
ENDBRANCH  21  23
ENDBRANCH  20  21
ENDBRANCH   1  20
TORSDOF 8
