REMARK  Name = ZINC06083284
REMARK  9 active torsions:
REMARK  status: ('A' for Active; 'I' for Inactive)
REMARK    1  A    between atoms: C_1  and  C_2
REMARK    2  A    between atoms: C_7  and  C_30
REMARK    3  A    between atoms: N_9  and  C_10
REMARK    4  A    between atoms: C_10  and  S_12
REMARK    5  A    between atoms: S_12  and  C_13
REMARK    6  A    between atoms: C_13  and  C_14
REMARK    7  A    between atoms: N_16  and  C_17
REMARK    8  A    between atoms: C_22  and  C_23
REMARK    9  A    between atoms: C_23  and  C_24
REMARK                            x       y       z     vdW  Elec       q    Type
REMARK                         _______ _______ _______ _____ _____    ______ ____
ROOT
ATOM      1  C   UNL     1      -5.471   6.411   2.010  0.00  0.00    +0.227 C 
ATOM      2  O   UNL     1      -5.149   6.177   3.155  0.00  0.00    -0.275 OA
ATOM      3  N   UNL     1      -6.554   7.172   1.756  0.00  0.00    -0.285 N 
ATOM      4  H   UNL     1      -6.857   7.295   0.843  0.00  0.00    +0.155 HD
ENDROOT
BRANCH   3   5
ATOM      5  C   UNL     1      -7.241   7.785   2.810  0.00  0.00    +0.037 A 
ATOM      6  C   UNL     1      -6.584   8.057   4.004  0.00  0.00    +0.023 A 
ATOM      7  C   UNL     1      -7.265   8.661   5.042  0.00  0.00    +0.002 A 
ATOM      8  C   UNL     1      -8.598   8.996   4.895  0.00  0.00    +0.000 A 
ATOM      9  C   UNL     1      -9.255   8.727   3.708  0.00  0.00    +0.006 A 
ATOM     10  C   UNL     1      -8.578   8.128   2.663  0.00  0.00    -0.022 A 
BRANCH  10  11
ATOM     11  C   UNL     1      -9.292   7.840   1.368  0.00  0.00    +0.072 C 
BRANCH  11  12
ATOM     12  C   UNL     1      -9.807   6.424   1.381  0.00  0.00    -0.043 A 
ATOM     13  C   UNL     1      -9.017   5.397   0.899  0.00  0.00    +0.004 A 
ATOM     14  C   UNL     1      -9.486   4.097   0.916  0.00  0.00    +0.000 A 
ATOM     15  C   UNL     1     -10.750   3.825   1.405  0.00  0.00    +0.000 A 
ATOM     16  C   UNL     1     -11.542   4.853   1.882  0.00  0.00    +0.000 A 
ATOM     17  C   UNL     1     -11.070   6.152   1.871  0.00  0.00    +0.004 A 
ENDBRANCH  11  12
ENDBRANCH  10  11
ENDBRANCH   3   5
BRANCH   1  18
ATOM     18  C   UNL     1      -4.659   5.852   0.869  0.00  0.00    +0.172 C 
BRANCH  18  19
ATOM     19  S   UNL     1      -3.281   4.881   1.529  0.00  0.00    -0.093 S 
BRANCH  19  20
ATOM     20  C   UNL     1      -2.525   4.363   0.024  0.00  0.00    +0.110 C 
ATOM     21  S   UNL     1      -3.191   4.842  -1.478  0.00  0.00    -0.028 S 
BRANCH  20  28
ATOM     22  C   UNL     1      -1.507   3.754  -2.388  0.00  0.00    +0.028 C 
ATOM     23  C   UNL     1      -0.710   3.249  -1.183  0.00  0.00    +0.072 C 
ATOM     24  C   UNL     1      -0.564   1.727  -1.265  0.00  0.00    +0.022 C 
ATOM     25  C   UNL     1       0.112   1.213   0.009  0.00  0.00    +0.004 C 
ATOM     26  C   UNL     1      -0.760   1.550   1.221  0.00  0.00    +0.022 C 
ATOM     27  C   UNL     1      -0.908   3.071   1.331  0.00  0.00    +0.072 C 
ATOM     28  N   UNL     1      -1.421   3.590   0.056  0.00  0.00    -0.313 N 
ATOM     29  C   UNL     1       0.456   3.699   1.629  0.00  0.00    +0.028 C 
ENDBRANCH  20  28
ENDBRANCH  19  20
ENDBRANCH  18  19
ENDBRANCH   1  18
TORSDOF 7
