REMARK  Name = ZINC60348029
REMARK  7 active torsions:
REMARK  status: ('A' for Active; 'I' for Inactive)
REMARK    1  A    between atoms: C_1  and  C_2
REMARK    2  A    between atoms: C_2  and  C_3
REMARK    3  A    between atoms: C_2  and  C_4
REMARK    4  A    between atoms: C_2  and  N_5
REMARK    5  A    between atoms: C_6  and  C_8
REMARK    6  A    between atoms: C_14  and  C_16
REMARK    7  A    between atoms: N_21  and  C_23
REMARK                            x       y       z     vdW  Elec       q    Type
REMARK                         _______ _______ _______ _____ _____    ______ ____
ROOT
ATOM      1  C   UNL     1       2.837  -1.215  -2.740  0.00  0.00    +0.172 C 
ATOM      2  C   UNL     1       2.231  -1.419  -4.151  0.00  0.00    +0.102 C 
ATOM      3  S   UNL     1       3.352  -0.333  -5.140  0.00  0.00    -0.139 S 
ATOM      4  C   UNL     1       4.838  -0.533  -4.062  0.00  0.00    +0.178 C 
ATOM      5  N   UNL     1       4.208  -0.734  -2.743  0.00  0.00    -0.280 N 
ATOM      6  C   UNL     1       4.874  -0.486  -1.598  0.00  0.00    +0.222 C 
ATOM      7  O   UNL     1       4.304  -0.581  -0.532  0.00  0.00    -0.275 OA
ENDROOT
BRANCH   6   8
ATOM      8  C   UNL     1       6.328  -0.090  -1.643  0.00  0.00    +0.102 C 
ATOM      9  C   UNL     1       6.489   1.441  -1.504  0.00  0.00    +0.110 C 
ATOM     10  C   UNL     1       6.695   1.659  -0.021  0.00  0.00    +0.221 C 
ATOM     11  O   UNL     1       6.585   2.725   0.547  0.00  0.00    -0.275 OA
ATOM     12  N   UNL     1       7.019   0.499   0.576  0.00  0.00    -0.270 N 
ATOM     13  C   UNL     1       7.079  -0.602  -0.394  0.00  0.00    +0.127 C 
BRANCH  12  14
ATOM     14  C   UNL     1       7.267   0.358   1.946  0.00  0.00    +0.050 A 
ATOM     15  C   UNL     1       6.227   0.054   2.814  0.00  0.00    +0.024 A 
ATOM     16  C   UNL     1       6.474  -0.085   4.166  0.00  0.00    +0.002 A 
ATOM     17  C   UNL     1       7.757   0.080   4.656  0.00  0.00    +0.001 A 
ATOM     18  C   UNL     1       8.796   0.383   3.795  0.00  0.00    +0.017 A 
ATOM     19  C   UNL     1       8.556   0.517   2.441  0.00  0.00    +0.039 A 
ATOM     20 BR   UNL     1       9.978   0.925   1.263  0.00  0.00    -0.048 Br
ENDBRANCH  12  14
ENDBRANCH   6   8
BRANCH   1  22
ATOM     21  N   UNL     1       0.674  -0.473  -1.796  0.00  0.00    -0.309 N 
ATOM     22  C   UNL     1       1.984  -0.223  -1.992  0.00  0.00    +0.235 C 
ATOM     23  O   UNL     1       2.476   0.801  -1.567  0.00  0.00    -0.274 OA
ATOM     24  H   UNL     1       0.280  -1.292  -2.136  0.00  0.00    +0.149 HD
BRANCH  21  26
ATOM     25  C   UNL     1      -0.141   1.833  -1.804  0.00  0.00    +0.031 C 
ATOM     26  C   UNL     1      -0.155   0.491  -1.069  0.00  0.00    +0.026 C 
ATOM     27  C   UNL     1       0.401   0.679   0.344  0.00  0.00    +0.031 C 
ATOM     28  C   UNL     1      -1.591  -0.031  -0.987  0.00  0.00    +0.031 C 
ENDBRANCH  21  26
ENDBRANCH   1  22
TORSDOF 4
