REMARK  Name = ZINC39987327
REMARK  11 active torsions:
REMARK  status: ('A' for Active; 'I' for Inactive)
REMARK    1  A    between atoms: C_1  and  C_2
REMARK    2  A    between atoms: N_9  and  N_10
REMARK    3  A    between atoms: C_11  and  C_13
REMARK    4  A    between atoms: C_13  and  C_15
REMARK    5  A    between atoms: C_13  and  O_16
REMARK    6  A    between atoms: O_16  and  C_17
REMARK    7  A    between atoms: N_25  and  C_26
REMARK    8  A    between atoms: C_26  and  C_27
REMARK    9  A    between atoms: C_27  and  C_28
REMARK   10  A    between atoms: C_28  and  O_29
REMARK   11  A    between atoms: O_29  and  C_30
REMARK                            x       y       z     vdW  Elec       q    Type
REMARK                         _______ _______ _______ _____ _____    ______ ____
ROOT
ATOM      1  C   UNL     1       1.448   1.516   0.155  0.00  0.00    +0.044 C 
ATOM      2  C   UNL     1       1.213   0.029   0.115  0.00  0.00    -0.050 A 
ATOM      3  C   UNL     1       1.166  -0.632  -1.101  0.00  0.00    +0.005 A 
ATOM      4  C   UNL     1       0.951  -1.994  -1.154  0.00  0.00    +0.024 A 
ATOM      5  C   UNL     1       0.778  -2.719   0.020  0.00  0.00    +0.046 A 
ATOM      6  C   UNL     1       0.826  -2.047   1.248  0.00  0.00    +0.029 A 
ATOM      7  C   UNL     1       1.049  -0.676   1.291  0.00  0.00    +0.015 A 
ATOM      8  C   UNL     1       0.611  -3.074   2.295  0.00  0.00    +0.153 C 
ATOM      9  N   UNL     1       0.577  -2.895   3.593  0.00  0.00    -0.174 NA
ATOM     10  C   UNL     1       0.444  -4.342   1.557  0.00  0.00    +0.271 C 
ATOM     11  O   UNL     1       0.245  -5.437   2.049  0.00  0.00    -0.268 OA
ATOM     12  N   UNL     1       0.551  -4.073   0.244  0.00  0.00    -0.265 N 
ENDROOT
BRANCH   9  13
ATOM     13  N   UNL     1       0.361  -3.986   4.445  0.00  0.00    -0.203 N 
ATOM     14  C   UNL     1       0.326  -3.802   5.779  0.00  0.00    +0.273 C 
ATOM     15  O   UNL     1       0.480  -2.693   6.243  0.00  0.00    -0.270 OA
ATOM     16  H   UNL     1       0.237  -4.874   4.074  0.00  0.00    +0.177 HD
BRANCH  14  17
ATOM     17  C   UNL     1       0.094  -4.976   6.696  0.00  0.00    +0.257 C 
ATOM     18  C   UNL     1       1.269  -5.949   6.585  0.00  0.00    +0.062 C 
BRANCH  17  19
ATOM     19  O   UNL     1      -0.017  -4.514   8.043  0.00  0.00    -0.480 OA
BRANCH  19  20
ATOM     20  C   UNL     1      -0.716  -5.295   8.908  0.00  0.00    +0.122 A 
ATOM     21  C   UNL     1      -0.963  -4.852  10.200  0.00  0.00    +0.045 A 
ATOM     22  C   UNL     1      -1.675  -5.648  11.077  0.00  0.00    +0.004 A 
ATOM     23  C   UNL     1      -2.140  -6.884  10.669  0.00  0.00    +0.000 A 
ATOM     24  C   UNL     1      -1.894  -7.328   9.382  0.00  0.00    +0.004 A 
ATOM     25  C   UNL     1      -1.189  -6.533   8.499  0.00  0.00    +0.045 A 
ENDBRANCH  19  20
ENDBRANCH  17  19
ENDBRANCH  14  17
ENDBRANCH   9  13
BRANCH  12  26
ATOM     26  C   UNL     1       0.442  -5.078  -0.816  0.00  0.00    +0.117 C 
BRANCH  26  27
ATOM     27  C   UNL     1       1.826  -5.655  -1.116  0.00  0.00    +0.060 C 
BRANCH  27  28
ATOM     28  C   UNL     1       1.712  -6.705  -2.223  0.00  0.00    +0.230 C 
BRANCH  28  29
ATOM     29  O   UNL     1       3.006  -7.244  -2.503  0.00  0.00    -0.492 OA
BRANCH  29  30
ATOM     30  C   UNL     1       3.081  -8.196  -3.470  0.00  0.00    +0.121 A 
ATOM     31  C   UNL     1       1.919  -8.595  -4.138  0.00  0.00    +0.046 A 
ATOM     32  C   UNL     1       1.962  -9.546  -5.109  0.00  0.00    +0.012 A 
ATOM     33  C   UNL     1       3.190 -10.138  -5.451  0.00  0.00    -0.018 A 
ATOM     34  C   UNL     1       3.271 -11.123  -6.450  0.00  0.00    +0.008 A 
ATOM     35  C   UNL     1       4.477 -11.675  -6.756  0.00  0.00    +0.001 A 
ATOM     36  C   UNL     1       5.637 -11.279  -6.092  0.00  0.00    +0.001 A 
ATOM     37  C   UNL     1       5.597 -10.329  -5.119  0.00  0.00    +0.008 A 
ATOM     38  C   UNL     1       4.370  -9.735  -4.776  0.00  0.00    -0.014 A 
ATOM     39  C   UNL     1       4.292  -8.747  -3.780  0.00  0.00    +0.054 A 
ENDBRANCH  29  30
ENDBRANCH  28  29
ENDBRANCH  27  28
ENDBRANCH  26  27
ENDBRANCH  12  26
TORSDOF 9
