REMARK  Name = ZINC13893932
REMARK  8 active torsions:
REMARK  status: ('A' for Active; 'I' for Inactive)
REMARK    1  A    between atoms: C_1  and  O_2
REMARK    2  A    between atoms: O_2  and  C_3
REMARK    3  A    between atoms: C_6  and  C_11
REMARK    4  A    between atoms: C_7  and  O_9
REMARK    5  A    between atoms: O_9  and  C_10
REMARK    6  A    between atoms: N_12  and  N_13
REMARK    7  A    between atoms: C_14  and  C_16
REMARK    8  A    between atoms: C_24  and  C_25
REMARK                            x       y       z     vdW  Elec       q    Type
REMARK                         _______ _______ _______ _____ _____    ______ ____
ROOT
ATOM      1  N   UNL     1       3.262  -4.821   5.143  0.00  0.00    -0.207 N 
ATOM      2  C   UNL     1       3.477  -6.150   5.207  0.00  0.00    +0.236 C 
ATOM      3  O   UNL     1       3.138  -6.864   4.287  0.00  0.00    -0.274 OA
ATOM      4  H   UNL     1       3.533  -4.250   5.879  0.00  0.00    +0.177 HD
ENDROOT
BRANCH   2   5
ATOM      5  C   UNL     1       4.139  -6.748   6.422  0.00  0.00    +0.084 C 
ATOM      6  C   UNL     1       3.343  -6.550   7.726  0.00  0.00    +0.009 C 
ATOM      7  C   UNL     1       4.216  -6.840   8.960  0.00  0.00    +0.005 C 
ATOM      8  C   UNL     1       4.444  -8.357   9.037  0.00  0.00    +0.001 C 
ATOM      9  C   UNL     1       4.837  -8.865   7.642  0.00  0.00    +0.005 C 
ATOM     10  C   UNL     1       3.852  -8.250   6.610  0.00  0.00    +0.009 C 
ATOM     11  C   UNL     1       2.546  -7.798   7.295  0.00  0.00    +0.027 C 
BRANCH  11  12
ATOM     12  C   UNL     1       1.424  -7.502   6.332  0.00  0.00    -0.044 A 
ATOM     13  C   UNL     1       1.104  -8.413   5.343  0.00  0.00    +0.004 A 
ATOM     14  C   UNL     1       0.075  -8.142   4.460  0.00  0.00    +0.000 A 
ATOM     15  C   UNL     1      -0.633  -6.960   4.567  0.00  0.00    +0.000 A 
ATOM     16  C   UNL     1      -0.314  -6.049   5.556  0.00  0.00    +0.000 A 
ATOM     17  C   UNL     1       0.712  -6.322   6.442  0.00  0.00    +0.004 A 
ENDBRANCH  11  12
ENDBRANCH   2   5
BRANCH   1  19
ATOM     18  C   UNL     1       2.439  -2.985   3.953  0.00  0.00    +0.142 C 
ATOM     19  N   UNL     1       2.646  -4.265   4.014  0.00  0.00    -0.188 NA
BRANCH  18  23
ATOM     20  C   UNL     1       0.574  -1.297   0.529  0.00  0.00    +0.124 A 
ATOM     21  C   UNL     1       0.962  -0.479   1.584  0.00  0.00    +0.046 A 
ATOM     22  C   UNL     1       1.567  -1.022   2.696  0.00  0.00    +0.016 A 
ATOM     23  C   UNL     1       1.792  -2.400   2.766  0.00  0.00    +0.036 A 
ATOM     24  C   UNL     1       1.399  -3.223   1.700  0.00  0.00    +0.132 A 
ATOM     25  C   UNL     1       0.788  -2.666   0.591  0.00  0.00    +0.091 A 
BRANCH  20  27
ATOM     26  C   UNL     1      -0.213   0.662  -0.562  0.00  0.00    +0.277 C 
ATOM     27  O   UNL     1      -0.022  -0.754  -0.564  0.00  0.00    -0.495 OA
ENDBRANCH  20  27
BRANCH  24  28
ATOM     28  O   UNL     1       1.614  -4.562   1.760  0.00  0.00    -0.494 OA
ATOM     29  C   UNL     1       1.188  -5.338   0.638  0.00  0.00    +0.277 C 
ENDBRANCH  24  28
ENDBRANCH  18  23
ENDBRANCH   1  19
TORSDOF 6
