REMARK  Name = ZINC50972032
REMARK  3 active torsions:
REMARK  status: ('A' for Active; 'I' for Inactive)
REMARK    1  A    between atoms: C_6  and  C_7
REMARK    2  A    between atoms: C_7  and  C_9
REMARK    3  A    between atoms: C_7  and  O_16
REMARK                            x       y       z     vdW  Elec       q    Type
REMARK                         _______ _______ _______ _____ _____    ______ ____
ROOT
ATOM      1  C   UNL     1      -0.017   1.379   0.010  0.00  0.00    +0.013 A 
ATOM      2  C   UNL     1       1.167   2.083   0.002  0.00  0.00    -0.017 A 
ATOM      3  C   UNL     1       2.388   1.421  -0.013  0.00  0.00    +0.038 A 
ATOM      4  C   UNL     1       2.400   0.027  -0.021  0.00  0.00    +0.044 A 
ATOM      5  C   UNL     1       1.212  -0.676  -0.015  0.00  0.00    +0.048 A 
ATOM      6  C   UNL     1       0.002  -0.004   0.002  0.00  0.00    +0.002 A 
ATOM      7 CL   UNL     1       1.236  -2.412  -0.026  0.00  0.00    -0.083 Cl
ATOM      8  N   UNL     1       3.436   2.342  -0.018  0.00  0.00    -0.285 N 
ATOM      9  C   UNL     1       2.998   3.612  -0.006  0.00  0.00    +0.222 C 
ATOM     10  O   UNL     1       3.684   4.611  -0.007  0.00  0.00    -0.275 OA
ATOM     11  C   UNL     1       1.485   3.560   0.007  0.00  0.00    +0.133 C 
ATOM     12  H   UNL     1       4.374   2.094  -0.028  0.00  0.00    +0.155 HD
ENDROOT
BRANCH   6  13
ATOM     13  C   UNL     1      -1.291  -0.777   0.011  0.00  0.00    +0.175 C 
BRANCH  13  14
ATOM     14  C   UNL     1      -1.679  -1.139  -1.425  0.00  0.00    +0.151 C 
ATOM     15  C   UNL     1      -2.992  -1.925  -1.416  0.00  0.00    +0.034 C 
ATOM     16  C   UNL     1      -3.342  -2.336  -2.850  0.00  0.00    +0.005 C 
ATOM     17  C   UNL     1      -2.182  -3.148  -3.434  0.00  0.00    +0.028 C 
ATOM     18  C   UNL     1      -0.900  -2.315  -3.365  0.00  0.00    +0.160 C 
ATOM     19  O   UNL     1      -0.649  -1.940  -2.009  0.00  0.00    -0.374 OA
ENDBRANCH  13  14
BRANCH  13  20
ATOM     20  O   UNL     1      -2.321   0.023   0.594  0.00  0.00    -0.385 OA
ATOM     21  H   UNL     1      -2.488   0.853   0.126  0.00  0.00    +0.210 HD
ENDBRANCH  13  20
ENDBRANCH   6  13
TORSDOF 3
