REMARK  Name = ZINC12606484
REMARK  11 active torsions:
REMARK  status: ('A' for Active; 'I' for Inactive)
REMARK    1  A    between atoms: C_1  and  C_2
REMARK    2  A    between atoms: C_2  and  C_3
REMARK    3  A    between atoms: C_4  and  C_23
REMARK    4  A    between atoms: C_5  and  N_22
REMARK    5  A    between atoms: C_7  and  S_9
REMARK    6  A    between atoms: S_9  and  C_10
REMARK    7  A    between atoms: C_10  and  C_11
REMARK    8  A    between atoms: C_11  and  C_13
REMARK    9  A    between atoms: C_11  and  O_21
REMARK   10  A    between atoms: C_13  and  O_14
REMARK   11  A    between atoms: O_14  and  C_15
REMARK                            x       y       z     vdW  Elec       q    Type
REMARK                         _______ _______ _______ _____ _____    ______ ____
ROOT
ATOM      1  C   UNL     1      12.254   0.682   0.317  0.00  0.00    +0.055 A 
ATOM      2  C   UNL     1      11.959   2.041   0.406  0.00  0.00    +0.043 A 
ATOM      3  C   UNL     1      10.608   2.433   0.378  0.00  0.00    +0.129 A 
ATOM      4  N   UNL     1       9.671   1.499   0.263  0.00  0.00    -0.207 NA
ATOM      5  C   UNL     1       9.999   0.217   0.186  0.00  0.00    +0.190 A 
ATOM      6  N   UNL     1      11.262  -0.186   0.210  0.00  0.00    -0.226 NA
ENDROOT
BRANCH   2   7
ATOM      7  C   UNL     1      13.041   3.048   0.528  0.00  0.00    -0.013 A 
ATOM      8  C   UNL     1      13.849   3.072   1.664  0.00  0.00    +0.010 A 
ATOM      9  C   UNL     1      14.857   4.008   1.770  0.00  0.00    +0.020 A 
ATOM     10  C   UNL     1      15.062   4.928   0.756  0.00  0.00    +0.041 A 
ATOM     11  C   UNL     1      14.259   4.911  -0.372  0.00  0.00    +0.020 A 
ATOM     12  C   UNL     1      13.251   3.976  -0.490  0.00  0.00    +0.010 A 
ATOM     13 CL   UNL     1      16.328   6.106   0.899  0.00  0.00    -0.084 Cl
ENDBRANCH   2   7
BRANCH   3  14
ATOM     14  N   UNL     1      10.262   3.770   0.463  0.00  0.00    -0.343 N 
ATOM     15  H   UNL     1      10.953   4.446   0.543  0.00  0.00    +0.144 HD
ATOM     16  H   UNL     1       9.328   4.032   0.442  0.00  0.00    +0.144 HD
ENDBRANCH   3  14
BRANCH   1  18
ATOM     17  C   UNL     1      14.230   0.154  -1.085  0.00  0.00    +0.010 C 
ATOM     18  C   UNL     1      13.684   0.208   0.343  0.00  0.00    +0.053 C 
ENDBRANCH   1  18
BRANCH   5  19
ATOM     19  S   UNL     1       8.719  -0.985   0.041  0.00  0.00    -0.083 S 
BRANCH  19  20
ATOM     20  C   UNL     1       7.268   0.097   0.060  0.00  0.00    +0.112 C 
BRANCH  20  21
ATOM     21  C   UNL     1       5.999  -0.750  -0.059  0.00  0.00    +0.162 C 
BRANCH  21  22
ATOM     22  O   UNL     1       6.029  -1.485  -1.284  0.00  0.00    -0.388 OA
ATOM     23  H   UNL     1       6.077  -0.930  -2.074  0.00  0.00    +0.210 HD
ENDBRANCH  21  22
BRANCH  21  24
ATOM     24  C   UNL     1       4.772   0.164  -0.042  0.00  0.00    +0.261 C 
BRANCH  24  25
ATOM     25  O   UNL     1       3.586  -0.632  -0.035  0.00  0.00    -0.489 OA
BRANCH  25  26
ATOM     26  C   UNL     1       2.399   0.030  -0.021  0.00  0.00    +0.121 A 
ATOM     27  C   UNL     1       1.207  -0.680  -0.013  0.00  0.00    +0.045 A 
ATOM     28  C   UNL     1       0.002  -0.004   0.002  0.00  0.00    +0.004 A 
ATOM     29  C   UNL     1      -0.017   1.378   0.010  0.00  0.00    +0.000 A 
ATOM     30  C   UNL     1       1.170   2.088   0.002  0.00  0.00    +0.004 A 
ATOM     31  C   UNL     1       2.377   1.417  -0.013  0.00  0.00    +0.045 A 
ENDBRANCH  25  26
ENDBRANCH  24  25
ENDBRANCH  21  24
ENDBRANCH  20  21
ENDBRANCH  19  20
ENDBRANCH   5  19
TORSDOF 10
