REMARK  Name = ZINC38930691
REMARK  5 active torsions:
REMARK  status: ('A' for Active; 'I' for Inactive)
REMARK    1  A    between atoms: C_1  and  C_2
REMARK    2  A    between atoms: C_5  and  C_8
REMARK    3  A    between atoms: N_10  and  C_11
REMARK    4  A    between atoms: C_11  and  C_18
REMARK    5  A    between atoms: C_12  and  C_13
REMARK                            x       y       z     vdW  Elec       q    Type
REMARK                         _______ _______ _______ _____ _____    ______ ____
ROOT
ATOM      1  C   UNL     1      -0.001  -6.336   1.137  0.00  0.00    +0.056 C 
ATOM      2  C   UNL     1       0.607  -6.922   2.176  0.00  0.00    +0.037 C 
ENDROOT
BRANCH   1   3
ATOM      3  C   UNL     1      -0.112  -7.063  -0.179  0.00  0.00    +0.254 C 
ATOM      4  N   UNL     1       0.980  -6.662  -1.085  0.00  0.00    -0.298 N 
ATOM      5  C   UNL     1       0.353  -6.107  -2.147  0.00  0.00    +0.152 C 
ATOM      6  N   UNL     1      -0.995  -6.138  -1.962  0.00  0.00    -0.221 N 
ATOM      7  N   UNL     1      -1.333  -6.656  -0.891  0.00  0.00    -0.190 NA
ATOM      8  S   UNL     1       1.141  -5.460  -3.522  0.00  0.00    -0.017 S 
ATOM      9  H   UNL     1       1.934  -6.772  -0.950  0.00  0.00    +0.150 HD
ATOM     10  H   UNL     1      -1.629  -5.789  -2.608  0.00  0.00    +0.176 HD
ENDBRANCH   1   3
BRANCH   2  11
ATOM     11  C   UNL     1       1.329  -8.188   1.986  0.00  0.00    +0.014 A 
ATOM     12  C   UNL     1       1.905  -9.014   2.934  0.00  0.00    +0.015 A 
ATOM     13  C   UNL     1       2.535 -10.162   2.505  0.00  0.00    +0.008 A 
ATOM     14  C   UNL     1       2.572 -10.443   1.179  0.00  0.00    +0.046 A 
ATOM     15  S   UNL     1       1.687  -9.064   0.472  0.00  0.00    -0.097 S 
ENDBRANCH   2  11
BRANCH   1  18
ATOM     16  C   UNL     1      -1.856  -4.862   1.145  0.00  0.00    +0.248 C 
ATOM     17  O   UNL     1      -2.580  -5.785   0.826  0.00  0.00    -0.270 OA
ATOM     18  N   UNL     1      -0.528  -5.060   1.271  0.00  0.00    -0.282 N 
ATOM     19  H   UNL     1       0.058  -4.310   1.456  0.00  0.00    +0.155 HD
BRANCH  16  24
ATOM     20  C   UNL     1      -4.095   0.347   2.125  0.00  0.00    +0.044 C 
ATOM     21  C   UNL     1      -3.509  -1.017   1.868  0.00  0.00    -0.050 A 
ATOM     22  C   UNL     1      -4.336  -2.065   1.504  0.00  0.00    +0.004 A 
ATOM     23  C   UNL     1      -3.805  -3.317   1.268  0.00  0.00    +0.013 A 
ATOM     24  C   UNL     1      -2.431  -3.524   1.397  0.00  0.00    +0.037 A 
ATOM     25  C   UNL     1      -1.602  -2.463   1.765  0.00  0.00    +0.013 A 
ATOM     26  C   UNL     1      -2.145  -1.215   1.992  0.00  0.00    +0.004 A 
ENDBRANCH  16  24
ENDBRANCH   1  18
TORSDOF 4
