REMARK  Name = ZINC20150709
REMARK  13 active torsions:
REMARK  status: ('A' for Active; 'I' for Inactive)
REMARK    1  A    between atoms: C_1  and  C_2
REMARK    2  A    between atoms: C_2  and  C_3
REMARK    3  A    between atoms: C_3  and  C_4
REMARK    4  A    between atoms: C_4  and  C_5
REMARK    5  A    between atoms: C_5  and  C_32
REMARK    6  A    between atoms: C_10  and  C_13
REMARK    7  A    between atoms: N_20  and  C_23
REMARK    8  A    between atoms: C_26  and  O_29
REMARK    9  A    between atoms: O_29  and  C_30
REMARK   10  A    between atoms: C_30  and  C_31
REMARK   11  A    between atoms: C_32  and  O_34
REMARK   12  A    between atoms: O_34  and  C_35
REMARK   13  A    between atoms: C_35  and  C_36
REMARK                            x       y       z     vdW  Elec       q    Type
REMARK                         _______ _______ _______ _____ _____    ______ ____
ROOT
ATOM      1  C   UNL     1      -2.637  -2.751  -0.280  0.00  0.00    +0.129 C 
ATOM      2  C   UNL     1      -2.610  -4.244   0.110  0.00  0.00    +0.120 C 
ATOM      3  C   UNL     1      -3.013  -4.271   1.609  0.00  0.00    +0.112 C 
ATOM      4  C   UNL     1      -3.229  -2.792   1.988  0.00  0.00    +0.104 C 
ATOM      5  N   UNL     1      -3.563  -2.123   0.697  0.00  0.00    -0.293 NA
ATOM      6  C   UNL     1      -4.340  -4.997   1.601  0.00  0.00    +0.232 C 
ATOM      7  O   UNL     1      -5.012  -5.238   2.580  0.00  0.00    -0.274 OA
ATOM      8  N   UNL     1      -4.656  -5.330   0.344  0.00  0.00    -0.210 N 
ATOM      9  C   UNL     1      -3.746  -4.960  -0.586  0.00  0.00    +0.232 C 
ATOM     10  O   UNL     1      -3.821  -5.161  -1.779  0.00  0.00    -0.274 OA
ATOM     11  H   UNL     1      -3.403  -1.129   0.758  0.00  0.00    +0.124 HD
ENDROOT
BRANCH   8  12
ATOM     12  C   UNL     1      -5.835  -6.017   0.015  0.00  0.00    +0.044 A 
ATOM     13  C   UNL     1      -6.830  -5.378  -0.713  0.00  0.00    +0.027 A 
ATOM     14  C   UNL     1      -7.990  -6.054  -1.037  0.00  0.00    +0.047 A 
ATOM     15  C   UNL     1      -8.161  -7.371  -0.635  0.00  0.00    +0.121 A 
ATOM     16  C   UNL     1      -7.167  -8.009   0.092  0.00  0.00    +0.047 A 
ATOM     17  C   UNL     1      -6.005  -7.336   0.412  0.00  0.00    +0.027 A 
BRANCH  15  18
ATOM     18  O   UNL     1      -9.303  -8.036  -0.955  0.00  0.00    -0.492 OA
BRANCH  18  19
ATOM     19  C   UNL     1      -9.412  -9.389  -0.509  0.00  0.00    +0.225 C 
ATOM     20  C   UNL     1     -10.754  -9.968  -0.959  0.00  0.00    +0.048 C 
ENDBRANCH  18  19
ENDBRANCH  15  18
ENDBRANCH   8  12
BRANCH   4  21
ATOM     21  C   UNL     1      -4.384  -2.658   2.947  0.00  0.00    +0.007 A 
ATOM     22  C   UNL     1      -4.361  -2.506   4.293  0.00  0.00    +0.013 A 
ATOM     23  C   UNL     1      -5.559  -2.402   4.976  0.00  0.00    +0.008 A 
ATOM     24  C   UNL     1      -6.720  -2.456   4.279  0.00  0.00    +0.045 A 
ATOM     25  S   UNL     1      -6.136  -2.652   2.603  0.00  0.00    -0.100 S 
ENDBRANCH   4  21
BRANCH   1  26
ATOM     26  C   UNL     1      -3.159  -2.582  -1.683  0.00  0.00    +0.328 C 
ATOM     27  O   UNL     1      -2.387  -2.500  -2.609  0.00  0.00    -0.249 OA
BRANCH  26  28
ATOM     28  O   UNL     1      -4.482  -2.522  -1.904  0.00  0.00    -0.464 OA
BRANCH  28  29
ATOM     29  C   UNL     1      -4.906  -2.360  -3.259  0.00  0.00    +0.229 C 
ATOM     30  C   UNL     1      -6.435  -2.313  -3.312  0.00  0.00    +0.048 C 
ENDBRANCH  28  29
ENDBRANCH  26  28
ENDBRANCH   1  26
BRANCH   1  31
ATOM     31  C   UNL     1      -1.238  -2.143  -0.156  0.00  0.00    +0.034 C 
BRANCH  31  32
ATOM     32  C   UNL     1      -1.322  -0.627  -0.345  0.00  0.00    +0.002 C 
BRANCH  32  34
ATOM     33  C   UNL     1      -0.008   1.496  -0.410  0.00  0.00    +0.004 C 
ATOM     34  C   UNL     1       0.076  -0.019  -0.221  0.00  0.00    -0.003 C 
ENDBRANCH  32  34
ENDBRANCH  31  32
ENDBRANCH   1  31
TORSDOF 10
