REMARK  Name = ZINC05035752
REMARK  3 active torsions:
REMARK  status: ('A' for Active; 'I' for Inactive)
REMARK    1  A    between atoms: C_6  and  S_7
REMARK    2  A    between atoms: S_7  and  N_10
REMARK    3  A    between atoms: N_10  and  C_11
REMARK                            x       y       z     vdW  Elec       q    Type
REMARK                         _______ _______ _______ _____ _____    ______ ____
ROOT
ATOM      1  C   UNL     1       3.557  -0.716  -1.568  0.00  0.00    +0.030 A 
ATOM      2  C   UNL     1       3.659  -1.820  -2.387  0.00  0.00    +0.027 A 
ATOM      3  C   UNL     1       2.930  -2.980  -2.115  0.00  0.00    +0.055 A 
ATOM      4  C   UNL     1       2.098  -3.016  -1.008  0.00  0.00    +0.057 A 
ATOM      5  C   UNL     1       2.007  -1.893  -0.182  0.00  0.00    +0.053 A 
ATOM      6  C   UNL     1       2.727  -0.752  -0.464  0.00  0.00    +0.107 A 
ATOM      7  N   UNL     1       1.331  -4.121  -0.652  0.00  0.00    -0.284 N 
ATOM      8  C   UNL     1       0.654  -4.898  -1.493  0.00  0.00    +0.226 C 
ATOM      9  O   UNL     1      -0.011  -5.812  -1.054  0.00  0.00    -0.275 OA
ATOM     10  C   UNL     1       0.699  -4.664  -2.981  0.00  0.00    +0.192 C 
ATOM     11  C   UNL     1       2.123  -4.837  -3.443  0.00  0.00    +0.226 C 
ATOM     12  O   UNL     1       2.388  -5.712  -4.240  0.00  0.00    -0.275 OA
ATOM     13  N   UNL     1       3.094  -4.046  -2.994  0.00  0.00    -0.284 N 
ATOM     14  H   UNL     1       1.287  -4.344   0.291  0.00  0.00    +0.155 HD
ATOM     15  H   UNL     1       3.994  -4.229  -3.306  0.00  0.00    +0.155 HD
ENDROOT
BRANCH   6  16
ATOM     16  S   UNL     1       2.594   0.657   0.587  0.00  0.00    +0.059 S 
ATOM     17  O   UNL     1       3.790   1.405   0.416  0.00  0.00    -0.153 OA
ATOM     18  O   UNL     1       2.170   0.178   1.856  0.00  0.00    -0.153 OA
BRANCH  16  19
ATOM     19  N   UNL     1       1.362   1.593  -0.002  0.00  0.00    -0.187 NA
ATOM     20  H   UNL     1       1.550   2.477  -0.354  0.00  0.00    +0.148 HD
BRANCH  19  21
ATOM     21  C   UNL     1      -0.013   1.086   0.008  0.00  0.00    +0.077 C 
ATOM     22  C   UNL     1      -0.729   1.579   1.267  0.00  0.00    +0.020 C 
ATOM     23  C   UNL     1      -2.239   1.400   1.098  0.00  0.00    +0.002 C 
ATOM     24  C   UNL     1      -2.600  -0.076   1.276  0.00  0.00    +0.000 C 
ATOM     25  C   UNL     1      -2.205  -0.852   0.018  0.00  0.00    +0.000 C 
ATOM     26  C   UNL     1      -2.624  -0.062  -1.223  0.00  0.00    +0.000 C 
ATOM     27  C   UNL     1      -1.376   0.408  -1.973  0.00  0.00    +0.002 C 
ATOM     28  C   UNL     1      -0.752   1.593  -1.232  0.00  0.00    +0.020 C 
ENDBRANCH  19  21
ENDBRANCH  16  19
ENDBRANCH   6  16
TORSDOF 3
