REMARK  Name = ZINC13959780
REMARK  5 active torsions:
REMARK  status: ('A' for Active; 'I' for Inactive)
REMARK    1  A    between atoms: C_6  and  C_7
REMARK    2  A    between atoms: C_8  and  C_13
REMARK    3  A    between atoms: N_14  and  N_15
REMARK    4  A    between atoms: C_16  and  C_21
REMARK    5  A    between atoms: C_19  and  S_20
REMARK                            x       y       z     vdW  Elec       q    Type
REMARK                         _______ _______ _______ _____ _____    ______ ____
ROOT
ATOM      1  C   UNL     1      -0.855   2.980  -0.133  0.00  0.00    +0.101 A 
ATOM      2  C   UNL     1       0.599   3.099   0.001  0.00  0.00    +0.040 A 
ATOM      3  C   UNL     1       1.085   1.818   0.143  0.00  0.00    +0.115 A 
ATOM      4  N   UNL     1       0.038   0.973   0.103  0.00  0.00    -0.284 N 
ATOM      5  H   UNL     1       0.097  -0.022   0.185  0.00  0.00    +0.188 HD
ATOM      6  N   UNL     1      -1.143   1.699  -0.072  0.00  0.00    -0.173 NA
ENDROOT
BRANCH   1  12
ATOM      7  C   UNL     1      -3.009   4.109   0.417  0.00  0.00    +0.011 A 
ATOM      8  C   UNL     1      -3.900   5.150   0.252  0.00  0.00    +0.016 A 
ATOM      9  C   UNL     1      -3.618   6.171  -0.639  0.00  0.00    +0.018 A 
ATOM     10  C   UNL     1      -2.440   6.157  -1.365  0.00  0.00    +0.016 A 
ATOM     11  C   UNL     1      -1.540   5.124  -1.205  0.00  0.00    +0.011 A 
ATOM     12  C   UNL     1      -1.819   4.093  -0.309  0.00  0.00    +0.003 A 
ATOM     13 BR   UNL     1      -4.848   7.590  -0.864  0.00  0.00    -0.050 Br
ENDBRANCH   1  12
BRANCH   2  14
ATOM     14  C   UNL     1       1.387   4.345  -0.013  0.00  0.00    +0.145 C 
ATOM     15  N   UNL     1       0.786   5.492  -0.100  0.00  0.00    -0.170 NA
BRANCH  15  16
ATOM     16  N   UNL     1       1.535   6.676  -0.114  0.00  0.00    -0.185 N 
ATOM     17  C   UNL     1       2.037   7.324  -1.210  0.00  0.00    +0.240 A 
ATOM     18  N   UNL     1       2.668   8.381  -0.780  0.00  0.00    -0.124 NA
ATOM     19  N   UNL     1       2.601   8.446   0.502  0.00  0.00    -0.121 NA
ATOM     20  C   UNL     1       1.911   7.428   0.965  0.00  0.00    +0.209 A 
BRANCH  17  21
ATOM     21  C   UNL     1       1.888   6.896  -2.647  0.00  0.00    +0.384 C 
ATOM     22  F   UNL     1       2.803   7.597  -3.440  0.00  0.00    -0.179 F 
ATOM     23  F   UNL     1       2.136   5.523  -2.752  0.00  0.00    -0.179 F 
ATOM     24 CL   UNL     1       0.211   7.249  -3.209  0.00  0.00    -0.039 Cl
ENDBRANCH  17  21
BRANCH  20  25
ATOM     25  S   UNL     1       1.545   7.093   2.656  0.00  0.00    -0.102 S 
ATOM     26  H   UNL     1       2.665   6.307   2.998  0.00  0.00    +0.110 HD
ENDBRANCH  20  25
ENDBRANCH  15  16
ENDBRANCH   2  14
TORSDOF 5
