REMARK  Name = ZINC58637175
REMARK  4 active torsions:
REMARK  status: ('A' for Active; 'I' for Inactive)
REMARK    1  A    between atoms: C_1  and  C_2
REMARK    2  A    between atoms: C_5  and  C_26
REMARK    3  A    between atoms: N_13  and  S_14
REMARK    4  A    between atoms: S_14  and  C_17
REMARK                            x       y       z     vdW  Elec       q    Type
REMARK                         _______ _______ _______ _____ _____    ______ ____
ROOT
ATOM      1  C   UNL     1      -0.102   1.900   0.255  0.00  0.00    +0.030 C 
ATOM      2  C   UNL     1      -0.152   0.375   0.142  0.00  0.00    +0.096 C 
ATOM      3  C   UNL     1      -1.554  -0.128   0.510  0.00  0.00    +0.041 C 
ATOM      4  C   UNL     1      -1.599  -1.644   0.324  0.00  0.00    +0.108 C 
ATOM      5  C   UNL     1      -0.449  -2.298   1.043  0.00  0.00    -0.013 A 
ATOM      6  C   UNL     1      -0.537  -3.643   1.364  0.00  0.00    +0.006 A 
ATOM      7  C   UNL     1       0.502  -4.272   2.021  0.00  0.00    +0.000 A 
ATOM      8  C   UNL     1       1.640  -3.563   2.361  0.00  0.00    +0.002 A 
ATOM      9  C   UNL     1       1.735  -2.223   2.046  0.00  0.00    +0.025 A 
ATOM     10  C   UNL     1       0.689  -1.586   1.387  0.00  0.00    +0.055 A 
ATOM     11  N   UNL     1       0.804  -0.225   1.083  0.00  0.00    -0.200 N 
ENDROOT
BRANCH   4  12
ATOM     12  C   UNL     1      -2.895  -2.176   0.879  0.00  0.00    +0.218 C 
ATOM     13  O   UNL     1      -3.459  -1.584   1.775  0.00  0.00    -0.275 OA
ATOM     14  N   UNL     1      -3.428  -3.308   0.379  0.00  0.00    -0.329 N 
ATOM     15  H   UNL     1      -2.943  -3.820  -0.286  0.00  0.00    +0.145 HD
ATOM     16  H   UNL     1      -4.297  -3.612   0.686  0.00  0.00    +0.145 HD
ENDBRANCH   4  12
BRANCH  11  17
ATOM     17  S   UNL     1       1.995   0.695   1.773  0.00  0.00    +0.078 S 
ATOM     18  O   UNL     1       3.209  -0.025   1.610  0.00  0.00    -0.150 OA
ATOM     19  O   UNL     1       1.823   2.018   1.283  0.00  0.00    -0.150 OA
BRANCH  17  20
ATOM     20  C   UNL     1       1.672   0.753   3.504  0.00  0.00    +0.147 A 
ATOM     21  C   UNL     1       2.581   0.212   4.395  0.00  0.00    +0.035 A 
ATOM     22  C   UNL     1       2.330   0.256   5.753  0.00  0.00    +0.043 A 
ATOM     23  C   UNL     1       1.167   0.842   6.224  0.00  0.00    +0.161 A 
ATOM     24  C   UNL     1       0.255   1.385   5.333  0.00  0.00    +0.195 A 
ATOM     25  C   UNL     1       0.512   1.345   3.972  0.00  0.00    +0.188 A 
ATOM     26  F   UNL     1      -0.373   1.878   3.101  0.00  0.00    -0.200 F 
ATOM     27  F   UNL     1      -0.880   1.957   5.791  0.00  0.00    -0.199 F 
ATOM     28  F   UNL     1       0.922   0.885   7.552  0.00  0.00    -0.202 F 
ENDBRANCH  17  20
ENDBRANCH  11  17
TORSDOF 3
