REMARK  Name = ZINC40120689
REMARK  10 active torsions:
REMARK  status: ('A' for Active; 'I' for Inactive)
REMARK    1  A    between atoms: C_1  and  C_2
REMARK    2  A    between atoms: C_2  and  N_3
REMARK    3  A    between atoms: N_3  and  C_4
REMARK    4  A    between atoms: N_3  and  C_6
REMARK    5  A    between atoms: C_4  and  C_5
REMARK    6  A    between atoms: C_6  and  C_8
REMARK    7  A    between atoms: C_6  and  C_26
REMARK    8  A    between atoms: C_8  and  N_9
REMARK    9  A    between atoms: N_12  and  C_13
REMARK   10  A    between atoms: C_16  and  N_19
REMARK                            x       y       z     vdW  Elec       q    Type
REMARK                         _______ _______ _______ _____ _____    ______ ____
ROOT
ATOM      1  N   UNL     1       1.173  -1.858  -1.043  0.00  0.00    -0.300 N 
ATOM      2  C   UNL     1       1.734  -2.321  -2.178  0.00  0.00    +0.304 C 
ATOM      3  O   UNL     1       2.713  -3.040  -2.123  0.00  0.00    -0.253 OA
ATOM      4  N   UNL     1       1.211  -1.986  -3.374  0.00  0.00    -0.269 N 
ATOM      5  H   UNL     1       0.393  -1.284  -1.087  0.00  0.00    +0.150 HD
ATOM      6  H   UNL     1       0.473  -1.358  -3.422  0.00  0.00    +0.156 HD
ENDROOT
BRANCH   4   7
ATOM      7  C   UNL     1       1.732  -2.546  -4.549  0.00  0.00    +0.035 A 
ATOM      8  C   UNL     1       1.763  -1.800  -5.719  0.00  0.00    +0.025 A 
ATOM      9  C   UNL     1       2.276  -2.351  -6.876  0.00  0.00    +0.025 A 
ATOM     10  C   UNL     1       2.762  -3.652  -6.869  0.00  0.00    +0.030 A 
ATOM     11  C   UNL     1       2.731  -4.399  -5.699  0.00  0.00    +0.025 A 
ATOM     12  C   UNL     1       2.222  -3.845  -4.540  0.00  0.00    +0.025 A 
BRANCH  10  13
ATOM     13  N   UNL     1       3.282  -4.211  -8.042  0.00  0.00    -0.320 N 
ATOM     14  C   UNL     1       3.685  -5.626  -8.103  0.00  0.00    +0.124 C 
ATOM     15  C   UNL     1       2.822  -6.323  -9.156  0.00  0.00    +0.123 C 
ATOM     16  N   UNL     1       2.760  -5.533 -10.378  0.00  0.00    -0.313 N 
ATOM     17  C   UNL     1       2.995  -4.222 -10.445  0.00  0.00    +0.230 C 
ATOM     18  O   UNL     1       2.834  -3.658 -11.507  0.00  0.00    -0.274 OA
ATOM     19  C   UNL     1       3.443  -3.411  -9.265  0.00  0.00    +0.200 C 
ATOM     20  H   UNL     1       2.532  -5.993 -11.202  0.00  0.00    +0.149 HD
ENDBRANCH  10  13
ENDBRANCH   4   7
BRANCH   1  21
ATOM     21  C   UNL     1       1.742  -2.222   0.257  0.00  0.00    +0.095 C 
BRANCH  21  22
ATOM     22  C   UNL     1       0.981  -1.496   1.368  0.00  0.00    -0.020 C 
BRANCH  22  23
ATOM     23  C   UNL     1       1.412  -2.036   2.707  0.00  0.00    -0.052 A 
ATOM     24  C   UNL     1       0.637  -2.970   3.369  0.00  0.00    +0.009 A 
ATOM     25  C   UNL     1       1.053  -3.435   4.573  0.00  0.00    +0.045 A 
ATOM     26  S   UNL     1       2.583  -2.546   4.803  0.00  0.00    -0.105 S 
ATOM     27  C   UNL     1       2.568  -1.618   3.278  0.00  0.00    +0.047 A 
ENDBRANCH  22  23
BRANCH  22  28
ATOM     28  N   UNL     1       1.273  -0.058   1.303  0.00  0.00    +0.385 N 
ATOM     29  H   UNL     1       2.272   0.081   1.273  0.00  0.00    -0.081 HD
BRANCH  28  31
ATOM     30  C   UNL     1      -0.861   0.395   0.190  0.00  0.00    -0.017 C 
ATOM     31  C   UNL     1       0.662   0.511   0.095  0.00  0.00    -0.081 C 
ENDBRANCH  28  31
BRANCH  28  32
ATOM     32  C   UNL     1       0.722   0.608   2.491  0.00  0.00    -0.081 C 
ATOM     33  C   UNL     1       1.143   2.078   2.494  0.00  0.00    -0.017 C 
ENDBRANCH  28  32
ENDBRANCH  22  28
ENDBRANCH  21  22
ENDBRANCH   1  21
TORSDOF 8
