REMARK  Name = ZINC18045308
REMARK  7 active torsions:
REMARK  status: ('A' for Active; 'I' for Inactive)
REMARK    1  A    between atoms: C_1  and  C_2
REMARK    2  A    between atoms: C_7  and  N_8
REMARK    3  A    between atoms: C_13  and  C_27
REMARK    4  A    between atoms: N_15  and  C_21
REMARK    5  A    between atoms: C_31  and  O_34
REMARK    6  A    between atoms: C_32  and  O_33
REMARK    7  A    between atoms: O_34  and  C_35
REMARK                            x       y       z     vdW  Elec       q    Type
REMARK                         _______ _______ _______ _____ _____    ______ ____
ROOT
ATOM      1  N   UNL     1       0.025  -0.013   2.419  0.00  0.00    -0.208 N 
ATOM      2  C   UNL     1      -1.116   0.342   3.093  0.00  0.00    +0.235 C 
ATOM      3  O   UNL     1      -2.245  -0.049   2.892  0.00  0.00    -0.274 OA
ATOM      4  C   UNL     1      -0.677   1.283   4.095  0.00  0.00    +0.146 C 
ATOM      5  C   UNL     1      -1.111   1.838   5.387  0.00  0.00    +0.161 C 
ATOM      6  N   UNL     1       0.183   2.292   5.991  0.00  0.00    -0.244 N 
ATOM      7  O   UNL     1       1.244   1.910   5.085  0.00  0.00    -0.257 OA
ATOM      8  C   UNL     1       0.746   0.707   4.474  0.00  0.00    +0.249 C 
ATOM      9  C   UNL     1       1.163   0.376   3.066  0.00  0.00    +0.259 C 
ATOM     10  O   UNL     1       2.280   0.443   2.602  0.00  0.00    -0.272 OA
ENDROOT
BRANCH   1  17
ATOM     11  C   UNL     1      -0.018   1.503   0.010  0.00  0.00    +0.045 C 
ATOM     12  C   UNL     1       0.002  -0.004   0.002  0.00  0.00    -0.029 A 
ATOM     13  C   UNL     1       0.006  -0.689  -1.198  0.00  0.00    +0.005 A 
ATOM     14  C   UNL     1       0.025  -2.071  -1.206  0.00  0.00    +0.000 A 
ATOM     15  C   UNL     1       0.041  -2.773  -0.014  0.00  0.00    +0.002 A 
ATOM     16  C   UNL     1       0.037  -2.094   1.188  0.00  0.00    +0.024 A 
ATOM     17  C   UNL     1       0.023  -0.705   1.200  0.00  0.00    +0.047 A 
ENDBRANCH   1  17
BRANCH   6  18
ATOM     18  C   UNL     1       0.337   2.961   7.207  0.00  0.00    +0.065 A 
ATOM     19  C   UNL     1      -0.776   3.261   7.982  0.00  0.00    +0.028 A 
ATOM     20  C   UNL     1      -0.620   3.923   9.184  0.00  0.00    +0.002 A 
ATOM     21  C   UNL     1       0.642   4.287   9.616  0.00  0.00    +0.000 A 
ATOM     22  C   UNL     1       1.752   3.990   8.847  0.00  0.00    +0.002 A 
ATOM     23  C   UNL     1       1.604   3.324   7.646  0.00  0.00    +0.028 A 
ENDBRANCH   6  18
BRANCH   5  24
ATOM     24  C   UNL     1      -1.760   0.776   6.236  0.00  0.00    +0.023 A 
ATOM     25  C   UNL     1      -1.043   0.165   7.247  0.00  0.00    +0.009 A 
ATOM     26  C   UNL     1      -1.635  -0.810   8.028  0.00  0.00    +0.004 A 
ATOM     27  C   UNL     1      -2.949  -1.178   7.800  0.00  0.00    +0.049 A 
ATOM     28  C   UNL     1      -3.673  -0.570   6.788  0.00  0.00    +0.162 A 
ATOM     29  C   UNL     1      -3.078   0.416   6.006  0.00  0.00    +0.164 A 
BRANCH  29  30
ATOM     30  O   UNL     1      -3.787   1.020   5.016  0.00  0.00    -0.503 OA
ATOM     31  H   UNL     1      -3.724   0.576   4.159  0.00  0.00    +0.292 HD
ENDBRANCH  29  30
BRANCH  28  32
ATOM     32  O   UNL     1      -4.965  -0.931   6.563  0.00  0.00    -0.491 OA
ATOM     33  C   UNL     1      -5.512  -1.946   7.408  0.00  0.00    +0.277 C 
ENDBRANCH  28  32
ENDBRANCH   5  24
TORSDOF 5
