REMARK  Name = ZINC36670038
REMARK  9 active torsions:
REMARK  status: ('A' for Active; 'I' for Inactive)
REMARK    1  A    between atoms: C_1  and  C_2
REMARK    2  A    between atoms: C_5  and  C_23
REMARK    3  A    between atoms: N_8  and  C_10
REMARK    4  A    between atoms: C_10  and  C_11
REMARK    5  A    between atoms: C_11  and  C_13
REMARK    6  A    between atoms: C_11  and  O_22
REMARK    7  A    between atoms: C_13  and  O_14
REMARK    8  A    between atoms: O_14  and  C_15
REMARK    9  A    between atoms: C_20  and  N_21
REMARK                            x       y       z     vdW  Elec       q    Type
REMARK                         _______ _______ _______ _____ _____    ______ ____
ROOT
ATOM      1  C   UNL     1       2.993  -2.028   2.239  0.00  0.00    +0.135 C 
ENDROOT
BRANCH   1   2
ATOM      2  O   UNL     1       3.532  -2.581   1.037  0.00  0.00    -0.390 OA
ATOM      3  H   UNL     1       3.517  -3.547   1.007  0.00  0.00    +0.210 HD
ENDBRANCH   1   2
BRANCH   1   4
ATOM      4  C   UNL     1       1.534  -2.461   2.390  0.00  0.00    -0.044 C 
BRANCH   4  10
ATOM      5  C   UNL     1      -0.019   1.526   0.010  0.00  0.00    +0.005 C 
ATOM      6  C   UNL     1       0.002  -0.004   0.002  0.00  0.00    -0.031 C 
ATOM      7  C   UNL     1      -1.434  -0.535   0.015  0.00  0.00    +0.003 C 
ATOM      8  C   UNL     1      -1.402  -2.064   0.086  0.00  0.00    -0.031 C 
ATOM      9  C   UNL     1      -0.613  -2.496   1.324  0.00  0.00    -0.076 C 
ATOM     10  N   UNL     1       0.758  -1.980   1.239  0.00  0.00    +0.382 N 
ATOM     11  C   UNL     1       0.740  -0.512   1.242  0.00  0.00    -0.076 C 
ATOM     12  C   UNL     1      -0.728  -2.620  -1.170  0.00  0.00    +0.005 C 
ATOM     13  H   UNL     1       1.188  -2.307   0.386  0.00  0.00    -0.082 HD
ENDBRANCH   4  10
ENDBRANCH   1   4
BRANCH   1  14
ATOM     14  C   UNL     1       3.800  -2.529   3.438  0.00  0.00    +0.258 C 
BRANCH  14  15
ATOM     15  O   UNL     1       5.136  -2.027   3.357  0.00  0.00    -0.488 OA
BRANCH  15  16
ATOM     16  C   UNL     1       5.991  -2.382   4.354  0.00  0.00    +0.141 A 
ATOM     17  C   UNL     1       5.555  -3.200   5.383  0.00  0.00    +0.047 A 
ATOM     18  C   UNL     1       6.425  -3.559   6.396  0.00  0.00    +0.004 A 
ATOM     19  C   UNL     1       7.731  -3.105   6.385  0.00  0.00    +0.002 A 
ATOM     20  C   UNL     1       8.174  -2.289   5.360  0.00  0.00    +0.026 A 
ATOM     21  C   UNL     1       7.308  -1.929   4.338  0.00  0.00    +0.067 A 
BRANCH  21  22
ATOM     22  N   UNL     1       7.755  -1.107   3.297  0.00  0.00    -0.355 N 
ATOM     23  H   UNL     1       7.148  -0.853   2.585  0.00  0.00    +0.142 HD
ATOM     24  H   UNL     1       8.672  -0.792   3.287  0.00  0.00    +0.142 HD
ENDBRANCH  21  22
ENDBRANCH  15  16
ENDBRANCH  14  15
ENDBRANCH   1  14
TORSDOF 7
