REMARK  Name = ZINC63806657
REMARK  9 active torsions:
REMARK  status: ('A' for Active; 'I' for Inactive)
REMARK    1  A    between atoms: C_1  and  C_2
REMARK    2  A    between atoms: C_2  and  C_3
REMARK    3  A    between atoms: C_3  and  C_4
REMARK    4  A    between atoms: C_4  and  C_5
REMARK    5  A    between atoms: C_8  and  N_11
REMARK    6  A    between atoms: C_12  and  C_14
REMARK    7  A    between atoms: C_14  and  N_15
REMARK    8  A    between atoms: C_18  and  C_23
REMARK    9  A    between atoms: C_23  and  C_24
REMARK                            x       y       z     vdW  Elec       q    Type
REMARK                         _______ _______ _______ _____ _____    ______ ____
ROOT
ATOM      1  N   UNL     1       6.894  -4.409  -6.966  0.00  0.00    -0.216 N 
ATOM      2  C   UNL     1       7.729  -3.360  -7.101  0.00  0.00    +0.244 C 
ATOM      3  O   UNL     1       7.440  -2.232  -7.439  0.00  0.00    -0.273 OA
ATOM      4  C   UNL     1       9.106  -3.883  -6.742  0.00  0.00    +0.165 C 
ATOM      5  N   UNL     1       8.864  -5.299  -6.415  0.00  0.00    -0.287 N 
ATOM      6  C   UNL     1       7.544  -5.509  -6.570  0.00  0.00    +0.310 C 
ATOM      7  O   UNL     1       7.003  -6.580  -6.376  0.00  0.00    -0.252 OA
ATOM      8  H   UNL     1       9.526  -5.952  -6.139  0.00  0.00    +0.151 HD
ENDROOT
BRANCH   1   9
ATOM      9  C   UNL     1       5.452  -4.350  -7.215  0.00  0.00    +0.214 C 
BRANCH   9  11
ATOM     10  N   UNL     1       3.394  -3.857  -5.933  0.00  0.00    -0.284 N 
ATOM     11  C   UNL     1       4.737  -3.972  -5.943  0.00  0.00    +0.235 C 
ATOM     12  O   UNL     1       5.370  -3.772  -4.928  0.00  0.00    -0.274 OA
ATOM     13  H   UNL     1       2.882  -4.091  -6.722  0.00  0.00    +0.155 HD
BRANCH  10  17
ATOM     14  C   UNL     1       1.445  -2.495  -2.512  0.00  0.00    -0.047 A 
ATOM     15  C   UNL     1       2.702  -2.012  -2.828  0.00  0.00    +0.005 A 
ATOM     16  C   UNL     1       3.351  -2.462  -3.962  0.00  0.00    +0.023 A 
ATOM     17  C   UNL     1       2.740  -3.400  -4.784  0.00  0.00    +0.033 A 
ATOM     18  C   UNL     1       1.478  -3.883  -4.463  0.00  0.00    +0.023 A 
ATOM     19  C   UNL     1       0.837  -3.433  -3.325  0.00  0.00    +0.005 A 
BRANCH  14  20
ATOM     20  C   UNL     1       0.740  -2.002  -1.274  0.00  0.00    +0.035 C 
BRANCH  20  21
ATOM     21  C   UNL     1       1.109  -2.895  -0.088  0.00  0.00    +0.004 C 
BRANCH  21  23
ATOM     22  C   UNL     1       0.762  -3.287   2.355  0.00  0.00    +0.004 C 
ATOM     23  C   UNL     1       0.393  -2.395   1.169  0.00  0.00    -0.003 C 
ENDBRANCH  21  23
ENDBRANCH  20  21
ENDBRANCH  14  20
ENDBRANCH  10  17
ENDBRANCH   9  11
ENDBRANCH   1   9
BRANCH   4  24
ATOM     24  C   UNL     1       9.666  -3.136  -5.530  0.00  0.00    +0.065 C 
BRANCH  24  25
ATOM     25  C   UNL     1      11.080  -3.589  -5.271  0.00  0.00    -0.039 C 
ATOM     26  C   UNL     1      12.216  -2.994  -5.702  0.00  0.00    -0.001 A 
ATOM     27  C   UNL     1      12.466  -1.796  -6.511  0.00  0.00    +0.010 A 
ATOM     28  C   UNL     1      13.743  -1.444  -6.785  0.00  0.00    +0.001 A 
ATOM     29  C   UNL     1      14.831  -2.194  -6.317  0.00  0.00    +0.002 A 
ATOM     30  C   UNL     1      14.681  -3.307  -5.569  0.00  0.00    +0.026 A 
ATOM     31  C   UNL     1      13.382  -3.769  -5.219  0.00  0.00    +0.043 A 
ATOM     32  N   UNL     1      12.982  -4.801  -4.518  0.00  0.00    -0.380 N 
ATOM     33  C   UNL     1      11.516  -4.795  -4.470  0.00  0.00    +0.144 C 
ATOM     34  H   UNL     1      13.560  -5.457  -4.096  0.00  0.00    +0.160 HD
ENDBRANCH  24  25
ENDBRANCH   4  24
TORSDOF 8
