REMARK  Name = ZINC09041041
REMARK  13 active torsions:
REMARK  status: ('A' for Active; 'I' for Inactive)
REMARK    1  A    between atoms: C_1  and  C_2
REMARK    2  A    between atoms: C_2  and  C_3
REMARK    3  A    between atoms: C_3  and  C_4
REMARK    4  A    between atoms: C_4  and  S_5
REMARK    5  A    between atoms: S_5  and  C_6
REMARK    6  A    between atoms: C_6  and  S_28
REMARK    7  A    between atoms: C_7  and  C_26
REMARK    8  A    between atoms: C_13  and  C_20
REMARK    9  A    between atoms: C_15  and  C_18
REMARK   10  A    between atoms: S_28  and  C_29
REMARK   11  A    between atoms: C_29  and  C_30
REMARK   12  A    between atoms: C_30  and  C_31
REMARK   13  A    between atoms: C_31  and  C_32
REMARK                            x       y       z     vdW  Elec       q    Type
REMARK                         _______ _______ _______ _____ _____    ______ ____
ROOT
ATOM      1  C   UNL     1       1.325   1.814  -0.047  0.00  0.00    +0.157 C 
ATOM      2  C   UNL     1       2.247   0.946  -0.908  0.00  0.00    +0.148 C 
ATOM      3  C   UNL     1       3.723   1.078  -0.735  0.00  0.00    -0.029 C 
ATOM      4  C   UNL     1       4.494  -0.014  -0.753  0.00  0.00    -0.011 C 
ATOM      5  C   UNL     1       5.942   0.368  -0.584  0.00  0.00    +0.049 C 
ATOM      6  C   UNL     1       5.915   1.808  -0.021  0.00  0.00    +0.010 C 
ATOM      7  C   UNL     1       4.546   2.317  -0.531  0.00  0.00    +0.034 C 
ATOM      8  C   UNL     1       2.534  -1.500  -1.068  0.00  0.00    +0.113 C 
ATOM      9  C   UNL     1       1.897  -0.421  -0.237  0.00  0.00    +0.156 C 
ATOM     10  C   UNL     1       0.429  -0.316  -0.051  0.00  0.00    +0.092 C 
ATOM     11  N   UNL     1      -0.453  -1.364  -0.017  0.00  0.00    -0.347 N 
ATOM     12  H   UNL     1      -1.400  -1.198   0.110  0.00  0.00    +0.143 HD
ATOM     13  H   UNL     1      -0.129  -2.273  -0.120  0.00  0.00    +0.143 HD
ATOM     14  N   UNL     1       4.041  -1.364  -0.907  0.00  0.00    -0.401 NA
ATOM     15  H   UNL     1       4.327  -1.896  -0.076  0.00  0.00    +0.124 HD
ATOM     16  H   UNL     1       4.492  -1.762  -1.739  0.00  0.00    +0.124 HD
ATOM     17  N   UNL     1       0.108   0.956   0.076  0.00  0.00    -0.351 N 
ATOM     18  H   UNL     1      -0.844   1.307   0.237  0.00  0.00    +0.163 HD
ENDROOT
BRANCH   8  19
ATOM     19  C   UNL     1       2.133  -1.348  -2.512  0.00  0.00    -0.027 A 
ATOM     20  C   UNL     1       0.811  -1.506  -2.883  0.00  0.00    +0.005 A 
ATOM     21  C   UNL     1       0.442  -1.363  -4.208  0.00  0.00    +0.000 A 
ATOM     22  C   UNL     1       1.398  -1.072  -5.163  0.00  0.00    +0.000 A 
ATOM     23  C   UNL     1       2.721  -0.919  -4.793  0.00  0.00    +0.000 A 
ATOM     24  C   UNL     1       3.089  -1.058  -3.468  0.00  0.00    +0.005 A 
ENDBRANCH   8  19
BRANCH   9  25
ATOM     25  C   UNL     1       2.525  -0.437   1.094  0.00  0.00    +0.081 C 
ATOM     26  N   UNL     1       3.010  -0.449   2.121  0.00  0.00    -0.195 NA
ENDBRANCH   9  25
BRANCH   2  27
ATOM     27  C   UNL     1       1.869   0.973  -2.331  0.00  0.00    +0.080 C 
ATOM     28  N   UNL     1       1.577   0.994  -3.429  0.00  0.00    -0.195 NA
ENDBRANCH   2  27
BRANCH   1  29
ATOM     29  S   UNL     1       0.929   3.372  -0.888  0.00  0.00    -0.120 S 
BRANCH  29  30
ATOM     30  C   UNL     1      -0.860   3.557  -0.648  0.00  0.00    +0.072 C 
BRANCH  30  31
ATOM     31  C   UNL     1      -1.312   4.908  -1.206  0.00  0.00    +0.010 C 
BRANCH  31  33
ATOM     32  C   UNL     1      -3.272   6.415  -1.562  0.00  0.00    +0.004 C 
ATOM     33  C   UNL     1      -2.820   5.064  -1.004  0.00  0.00    -0.003 C 
ENDBRANCH  31  33
ENDBRANCH  30  31
ENDBRANCH  29  30
ENDBRANCH   1  29
BRANCH   1  34
ATOM     34  S   UNL     1       2.064   2.128   1.580  0.00  0.00    -0.120 S 
BRANCH  34  35
ATOM     35  C   UNL     1       0.904   3.273   2.375  0.00  0.00    +0.072 C 
BRANCH  35  36
ATOM     36  C   UNL     1       1.470   3.716   3.726  0.00  0.00    +0.010 C 
BRANCH  36  37
ATOM     37  C   UNL     1       0.491   4.681   4.397  0.00  0.00    -0.003 C 
ATOM     38  C   UNL     1       1.057   5.124   5.748  0.00  0.00    +0.004 C 
ENDBRANCH  36  37
ENDBRANCH  35  36
ENDBRANCH  34  35
ENDBRANCH   1  34
TORSDOF 11
