REMARK  Name = ZINC04092889
REMARK  7 active torsions:
REMARK  status: ('A' for Active; 'I' for Inactive)
REMARK    1  A    between atoms: C_4  and  N_20
REMARK    2  A    between atoms: C_5  and  N_7
REMARK    3  A    between atoms: C_8  and  C_10
REMARK    4  A    between atoms: C_10  and  N_11
REMARK    5  A    between atoms: N_11  and  C_12
REMARK    6  A    between atoms: C_12  and  C_13
REMARK    7  A    between atoms: C_13  and  C_14
REMARK                            x       y       z     vdW  Elec       q    Type
REMARK                         _______ _______ _______ _____ _____    ______ ____
ROOT
ATOM      1  N   UNL     1       1.234  -2.082  -0.021  0.00  0.00    -0.286 N 
ATOM      2  C   UNL     1       0.082  -2.775   0.088  0.00  0.00    +0.200 C 
ATOM      3  O   UNL     1      -0.979  -2.188   0.102  0.00  0.00    -0.278 OA
ATOM      4  H   UNL     1       2.078  -2.554  -0.097  0.00  0.00    +0.155 HD
ENDROOT
BRANCH   1   9
ATOM      5  C   UNL     1       0.135   1.378  -0.617  0.00  0.00    +0.002 A 
ATOM      6  C   UNL     1       1.166   2.090  -0.032  0.00  0.00    +0.002 A 
ATOM      7  C   UNL     1       2.224   1.423   0.558  0.00  0.00    +0.025 A 
ATOM      8  C   UNL     1       2.252   0.036   0.565  0.00  0.00    +0.051 A 
ATOM      9  C   UNL     1       1.211  -0.681  -0.025  0.00  0.00    +0.055 A 
ATOM     10  C   UNL     1       0.154  -0.004  -0.614  0.00  0.00    +0.025 A 
BRANCH   8  11
ATOM     11  N   UNL     1       3.321  -0.641   1.161  0.00  0.00    -0.328 N 
ATOM     12  C   UNL     1       4.515  -0.991   0.380  0.00  0.00    +0.105 C 
ATOM     13  C   UNL     1       5.753  -0.449   1.101  0.00  0.00    +0.019 C 
ATOM     14  C   UNL     1       5.768  -0.970   2.540  0.00  0.00    +0.003 C 
ATOM     15  C   UNL     1       4.523  -0.473   3.278  0.00  0.00    +0.019 C 
ATOM     16  C   UNL     1       3.274  -1.010   2.583  0.00  0.00    +0.105 C 
ENDBRANCH   8  11
ENDBRANCH   1   9
BRANCH   2  17
ATOM     17  C   UNL     1       0.114  -4.278   0.193  0.00  0.00    +0.015 C 
BRANCH  17  18
ATOM     18  N   UNL     1      -1.259  -4.790   0.300  0.00  0.00    +0.385 N 
ATOM     19  H   UNL     1      -1.698  -4.404   1.123  0.00  0.00    -0.085 HD
ATOM     20  H   UNL     1      -1.784  -4.520  -0.518  0.00  0.00    -0.085 HD
BRANCH  18  21
ATOM     21  C   UNL     1      -1.228  -6.255   0.402  0.00  0.00    -0.078 C 
BRANCH  21  22
ATOM     22  C   UNL     1      -2.658  -6.788   0.515  0.00  0.00    +0.011 C 
BRANCH  22  23
ATOM     23  C   UNL     1      -2.627  -8.291   0.619  0.00  0.00    -0.075 C 
ATOM     24  C   UNL     1      -2.660  -8.818   1.801  0.00  0.00    -0.028 C 
ATOM     25  C   UNL     1      -2.624 -10.295   2.065  0.00  0.00    +0.027 C 
ATOM     26  C   UNL     1      -2.971 -11.066   0.789  0.00  0.00    +0.004 C 
ATOM     27  C   UNL     1      -2.113 -10.518  -0.358  0.00  0.00    +0.005 C 
ATOM     28  C   UNL     1      -2.565  -9.084  -0.653  0.00  0.00    +0.030 C 
ENDBRANCH  22  23
ENDBRANCH  21  22
ENDBRANCH  18  21
ENDBRANCH  17  18
ENDBRANCH   2  17
TORSDOF 7
