REMARK  Name = ZINC63589046
REMARK  8 active torsions:
REMARK  status: ('A' for Active; 'I' for Inactive)
REMARK    1  A    between atoms: C_1  and  C_2
REMARK    2  A    between atoms: C_5  and  C_9
REMARK    3  A    between atoms: C_9  and  N_11
REMARK    4  A    between atoms: C_12  and  N_21
REMARK    5  A    between atoms: N_13  and  C_14
REMARK    6  A    between atoms: N_21  and  C_22
REMARK    7  A    between atoms: C_22  and  C_23
REMARK    8  A    between atoms: C_23  and  C_24
REMARK                            x       y       z     vdW  Elec       q    Type
REMARK                         _______ _______ _______ _____ _____    ______ ____
ROOT
ATOM      1  N   UNL     1       1.408  -4.961   0.645  0.00  0.00    -0.141 NA
ATOM      2  C   UNL     1       1.068  -6.241   0.672  0.00  0.00    +0.216 C 
ATOM      3  N   UNL     1       0.016  -6.684  -0.075  0.00  0.00    -0.326 N 
ATOM      4  H   UNL     1      -0.152  -6.303  -0.951  0.00  0.00    +0.169 HD
ENDROOT
BRANCH   3   5
ATOM      5  C   UNL     1      -0.822  -7.688   0.423  0.00  0.00    +0.042 A 
ATOM      6  C   UNL     1      -1.161  -7.707   1.769  0.00  0.00    +0.027 A 
ATOM      7  C   UNL     1      -1.989  -8.699   2.258  0.00  0.00    +0.017 A 
ATOM      8  C   UNL     1      -2.480  -9.674   1.407  0.00  0.00    +0.018 A 
ATOM      9  C   UNL     1      -2.143  -9.658   0.065  0.00  0.00    +0.017 A 
ATOM     10  C   UNL     1      -1.321  -8.665  -0.430  0.00  0.00    +0.027 A 
ATOM     11 BR   UNL     1      -3.612 -11.030   2.079  0.00  0.00    -0.050 Br
ENDBRANCH   3   5
BRANCH   1  12
ATOM     12  C   UNL     1       0.635  -4.077   0.000  0.00  0.00    +0.270 C 
ATOM     13  O   UNL     1      -0.309  -4.465  -0.664  0.00  0.00    -0.268 OA
BRANCH  12  18
ATOM     14  C   UNL     1       1.774   1.556   0.367  0.00  0.00    +0.047 C 
ATOM     15  C   UNL     1       1.477   0.082   0.272  0.00  0.00    -0.015 A 
ATOM     16  C   UNL     1       0.404  -0.357  -0.484  0.00  0.00    +0.007 A 
ATOM     17  C   UNL     1       0.127  -1.706  -0.576  0.00  0.00    +0.013 A 
ATOM     18  C   UNL     1       0.929  -2.629   0.095  0.00  0.00    +0.042 A 
ATOM     19  C   UNL     1       2.010  -2.182   0.855  0.00  0.00    +0.051 A 
ATOM     20  C   UNL     1       2.282  -0.830   0.936  0.00  0.00    +0.127 A 
ATOM     21  F   UNL     1       3.331  -0.395   1.668  0.00  0.00    -0.205 F 
ENDBRANCH  12  18
ENDBRANCH   1  12
BRANCH   2  22
ATOM     22  N   UNL     1       1.771  -7.117   1.448  0.00  0.00    -0.252 NA
BRANCH  22  23
ATOM     23  C   UNL     1       2.037  -8.473   0.963  0.00  0.00    +0.149 C 
BRANCH  23  24
ATOM     24  C   UNL     1       2.941  -9.202   1.959  0.00  0.00    +0.056 C 
BRANCH  24  25
ATOM     25  C   UNL     1       3.312 -10.554   1.405  0.00  0.00    -0.040 C 
ATOM     26  C   UNL     1       4.410 -10.861   0.677  0.00  0.00    -0.001 A 
ATOM     27  C   UNL     1       5.543 -10.060   0.201  0.00  0.00    +0.010 A 
ATOM     28  C   UNL     1       6.513 -10.662  -0.525  0.00  0.00    +0.001 A 
ATOM     29  C   UNL     1       6.463 -12.028  -0.832  0.00  0.00    +0.002 A 
ATOM     30  C   UNL     1       5.454 -12.830  -0.430  0.00  0.00    +0.026 A 
ATOM     31  C   UNL     1       4.380 -12.302   0.339  0.00  0.00    +0.043 A 
ATOM     32  N   UNL     1       3.306 -12.864   0.839  0.00  0.00    -0.380 N 
ATOM     33  C   UNL     1       2.535 -11.842   1.556  0.00  0.00    +0.144 C 
ATOM     34  H   UNL     1       3.064 -13.799   0.752  0.00  0.00    +0.160 HD
ENDBRANCH  24  25
ENDBRANCH  23  24
ENDBRANCH  22  23
ENDBRANCH   2  22
TORSDOF 7
