REMARK  Name = ZINC38768301
REMARK  10 active torsions:
REMARK  status: ('A' for Active; 'I' for Inactive)
REMARK    1  A    between atoms: C_1  and  C_2
REMARK    2  A    between atoms: C_3  and  O_24
REMARK    3  A    between atoms: C_4  and  C_8
REMARK    4  A    between atoms: C_11  and  O_15
REMARK    5  A    between atoms: C_13  and  O_14
REMARK    6  A    between atoms: O_15  and  C_16
REMARK    7  A    between atoms: C_16  and  C_17
REMARK    8  A    between atoms: O_24  and  C_25
REMARK    9  A    between atoms: C_28  and  O_31
REMARK   10  A    between atoms: O_31  and  C_32
REMARK                            x       y       z     vdW  Elec       q    Type
REMARK                         _______ _______ _______ _____ _____    ______ ____
ROOT
ATOM      1  C   UNL     1      -1.099  -2.998  -1.066  0.00  0.00    +0.025 A 
ATOM      2  C   UNL     1      -0.345  -3.173  -2.211  0.00  0.00    +0.013 A 
ATOM      3  C   UNL     1      -0.855  -3.895  -3.273  0.00  0.00    +0.046 A 
ATOM      4  C   UNL     1      -2.127  -4.446  -3.192  0.00  0.00    +0.124 A 
ATOM      5  C   UNL     1      -2.885  -4.271  -2.045  0.00  0.00    +0.091 A 
ATOM      6  C   UNL     1      -2.369  -3.551  -0.979  0.00  0.00    +0.126 A 
ENDROOT
BRANCH   1  10
ATOM      7  C   UNL     1      -0.016   1.484  -0.106  0.00  0.00    +0.071 C 
ATOM      8  C   UNL     1      -0.000  -0.022  -0.051  0.00  0.00    +0.098 C 
ATOM      9  C   UNL     1      -1.095  -0.796   0.096  0.00  0.00    +0.156 C 
ATOM     10  C   UNL     1      -0.540  -2.209   0.090  0.00  0.00    +0.200 C 
ATOM     11  N   UNL     1       0.908  -1.991  -0.074  0.00  0.00    -0.294 N 
ATOM     12  N   UNL     1       1.101  -0.775  -0.147  0.00  0.00    -0.179 NA
ATOM     13  H   UNL     1       1.588  -2.681  -0.121  0.00  0.00    +0.184 HD
BRANCH   9  14
ATOM     14  O   UNL     1      -2.382  -0.405   0.221  0.00  0.00    -0.456 OA
BRANCH  14  15
ATOM     15  C   UNL     1      -3.003  -0.624   1.410  0.00  0.00    +0.128 A 
ATOM     16  C   UNL     1      -2.284  -1.122   2.487  0.00  0.00    +0.050 A 
ATOM     17  C   UNL     1      -2.915  -1.344   3.695  0.00  0.00    +0.049 A 
ATOM     18  C   UNL     1      -4.268  -1.071   3.832  0.00  0.00    +0.120 A 
ATOM     19  C   UNL     1      -4.987  -0.574   2.755  0.00  0.00    +0.049 A 
ATOM     20  C   UNL     1      -4.355  -0.345   1.548  0.00  0.00    +0.050 A 
BRANCH  18  21
ATOM     21  O   UNL     1      -4.889  -1.291   5.021  0.00  0.00    -0.495 OA
ATOM     22  C   UNL     1      -6.284  -0.988   5.090  0.00  0.00    +0.277 C 
ENDBRANCH  18  21
ENDBRANCH  14  15
ENDBRANCH   9  14
ENDBRANCH   1  10
BRANCH   6  23
ATOM     23  O   UNL     1      -3.107  -3.383   0.150  0.00  0.00    -0.506 OA
ATOM     24  H   UNL     1      -3.667  -2.594   0.140  0.00  0.00    +0.292 HD
ENDBRANCH   6  23
BRANCH   4  25
ATOM     25  O   UNL     1      -2.628  -5.156  -4.237  0.00  0.00    -0.487 OA
BRANCH  25  26
ATOM     26  C   UNL     1      -1.792  -5.295  -5.387  0.00  0.00    +0.264 C 
BRANCH  26  27
ATOM     27  C   UNL     1      -2.510  -6.107  -6.435  0.00  0.00    -0.010 A 
ATOM     28  C   UNL     1      -2.379  -7.483  -6.452  0.00  0.00    +0.008 A 
ATOM     29  C   UNL     1      -3.038  -8.227  -7.413  0.00  0.00    +0.015 A 
ATOM     30  C   UNL     1      -3.828  -7.595  -8.356  0.00  0.00    +0.018 A 
ATOM     31  C   UNL     1      -3.958  -6.218  -8.338  0.00  0.00    +0.015 A 
ATOM     32  C   UNL     1      -3.303  -5.475  -7.374  0.00  0.00    +0.008 A 
ATOM     33 BR   UNL     1      -4.729  -8.613  -9.671  0.00  0.00    -0.050 Br
ENDBRANCH  26  27
ENDBRANCH  25  26
ENDBRANCH   4  25
TORSDOF 8
