REMARK  Name = ZINC39966247
REMARK  9 active torsions:
REMARK  status: ('A' for Active; 'I' for Inactive)
REMARK    1  A    between atoms: C_1  and  C_2
REMARK    2  A    between atoms: C_3  and  N_15
REMARK    3  A    between atoms: N_6  and  C_9
REMARK    4  A    between atoms: N_7  and  C_8
REMARK    5  A    between atoms: C_16  and  C_18
REMARK    6  A    between atoms: C_18  and  S_19
REMARK    7  A    between atoms: S_19  and  C_20
REMARK    8  A    between atoms: C_23  and  C_26
REMARK    9  A    between atoms: N_24  and  C_25
REMARK                            x       y       z     vdW  Elec       q    Type
REMARK                         _______ _______ _______ _____ _____    ______ ____
ROOT
ATOM      1  N   UNL     1       0.084  -0.196  -2.467  0.00  0.00    -0.279 N 
ATOM      2  C   UNL     1       0.561  -0.871  -3.531  0.00  0.00    +0.228 C 
ATOM      3  O   UNL     1       1.043  -1.974  -3.383  0.00  0.00    -0.275 OA
ATOM      4  H   UNL     1      -0.235   0.714  -2.573  0.00  0.00    +0.155 HD
ENDROOT
BRANCH   1   7
ATOM      5  C   UNL     1      -2.452  -0.590  -0.785  0.00  0.00    +0.067 C 
ATOM      6  C   UNL     1      -1.046  -1.003  -0.431  0.00  0.00    +0.059 A 
ATOM      7  C   UNL     1       0.049  -0.811  -1.200  0.00  0.00    +0.121 A 
ATOM      8  C   UNL     1       1.192  -1.363  -0.471  0.00  0.00    +0.293 A 
ATOM      9  O   UNL     1       2.351  -1.377  -0.844  0.00  0.00    -0.264 OA
ATOM     10  N   UNL     1       0.716  -1.853   0.693  0.00  0.00    -0.216 N 
ATOM     11  N   UNL     1      -0.665  -1.629   0.726  0.00  0.00    -0.282 N 
ATOM     12  C   UNL     1      -1.560  -2.006   1.822  0.00  0.00    +0.171 C 
BRANCH  10  13
ATOM     13  C   UNL     1       1.472  -2.473   1.693  0.00  0.00    +0.067 A 
ATOM     14  C   UNL     1       1.045  -3.674   2.244  0.00  0.00    +0.028 A 
ATOM     15  C   UNL     1       1.794  -4.283   3.232  0.00  0.00    +0.002 A 
ATOM     16  C   UNL     1       2.967  -3.698   3.672  0.00  0.00    +0.000 A 
ATOM     17  C   UNL     1       3.394  -2.502   3.126  0.00  0.00    +0.002 A 
ATOM     18  C   UNL     1       2.654  -1.891   2.133  0.00  0.00    +0.028 A 
ENDBRANCH  10  13
ENDBRANCH   1   7
BRANCH   2  19
ATOM     19  C   UNL     1       0.497  -0.255  -4.905  0.00  0.00    +0.173 C 
BRANCH  19  20
ATOM     20  S   UNL     1       1.213  -1.400  -6.116  0.00  0.00    -0.077 S 
BRANCH  20  21
ATOM     21  C   UNL     1       1.065  -0.546  -7.650  0.00  0.00    +0.192 A 
ATOM     22  N   UNL     1       0.552   0.649  -7.830  0.00  0.00    -0.122 NA
ATOM     23  N   UNL     1       0.601   0.968  -9.074  0.00  0.00    -0.128 NA
ATOM     24  C   UNL     1       1.147  -0.005  -9.765  0.00  0.00    +0.165 A 
ATOM     25  N   UNL     1       1.467  -1.003  -8.875  0.00  0.00    -0.305 N 
ATOM     26  C   UNL     1       2.103  -2.288  -9.175  0.00  0.00    +0.153 C 
BRANCH  24  27
ATOM     27  C   UNL     1       1.381  -0.022 -11.225  0.00  0.00    +0.030 A 
ATOM     28  C   UNL     1       1.009  -1.104 -11.967  0.00  0.00    +0.057 A 
ATOM     29  S   UNL     1       1.504  -0.611 -13.610  0.00  0.00    -0.101 S 
ATOM     30  C   UNL     1       2.158   0.987 -13.200  0.00  0.00    -0.006 A 
ATOM     31  C   UNL     1       1.985   1.084 -11.859  0.00  0.00    -0.026 A 
ATOM     32  C   UNL     1       2.433   2.311 -11.071  0.00  0.00    +0.036 C 
ATOM     33  C   UNL     1       2.439   3.537 -11.976  0.00  0.00    +0.005 C 
ATOM     34  C   UNL     1       3.796   3.697 -12.660  0.00  0.00    +0.001 C 
ATOM     35  C   UNL     1       4.074   2.497 -13.560  0.00  0.00    +0.005 C 
ATOM     36  C   UNL     1       2.748   1.997 -14.130  0.00  0.00    +0.043 C 
ENDBRANCH  24  27
ENDBRANCH  20  21
ENDBRANCH  19  20
ENDBRANCH   2  19
TORSDOF 6
