REMARK  Name = ZINC09089886
REMARK  7 active torsions:
REMARK  status: ('A' for Active; 'I' for Inactive)
REMARK    1  A    between atoms: C_1  and  C_2
REMARK    2  A    between atoms: C_2  and  O_3
REMARK    3  A    between atoms: O_3  and  C_4
REMARK    4  A    between atoms: C_4  and  C_6
REMARK    5  A    between atoms: C_7  and  C_27
REMARK    6  A    between atoms: C_18  and  C_20
REMARK    7  A    between atoms: C_24  and  O_26
REMARK                            x       y       z     vdW  Elec       q    Type
REMARK                         _______ _______ _______ _____ _____    ______ ____
ROOT
ATOM      1  C   UNL     1      -2.795  -2.429   0.223  0.00  0.00    +0.080 C 
ATOM      2  C   UNL     1      -2.918  -3.728  -0.087  0.00  0.00    +0.020 C 
ATOM      3  N   UNL     1      -4.138  -4.322  -0.287  0.00  0.00    -0.288 N 
ATOM      4  C   UNL     1      -5.267  -3.619   0.106  0.00  0.00    +0.202 A 
ATOM      5  N   UNL     1      -6.491  -4.055   0.236  0.00  0.00    -0.214 NA
ATOM      6  C   UNL     1      -7.284  -3.045   0.647  0.00  0.00    +0.091 A 
ATOM      7  C   UNL     1      -8.653  -2.990   0.932  0.00  0.00    +0.030 A 
ATOM      8  C   UNL     1      -9.160  -1.769   1.340  0.00  0.00    +0.002 A 
ATOM      9  C   UNL     1      -8.360  -0.647   1.464  0.00  0.00    +0.002 A 
ATOM     10  C   UNL     1      -7.003  -0.678   1.187  0.00  0.00    +0.028 A 
ATOM     11  C   UNL     1      -6.468  -1.893   0.775  0.00  0.00    +0.071 A 
ATOM     12  N   UNL     1      -5.207  -2.281   0.427  0.00  0.00    -0.300 N 
ATOM     13  C   UNL     1      -3.970  -1.503   0.375  0.00  0.00    +0.159 C 
ATOM     14  C   UNL     1      -1.671  -4.564  -0.222  0.00  0.00    +0.061 C 
ATOM     15  H   UNL     1      -4.209  -5.203  -0.689  0.00  0.00    +0.155 HD
ENDROOT
BRANCH  13  16
ATOM     16  C   UNL     1      -4.024  -0.563  -0.802  0.00  0.00    -0.017 A 
ATOM     17  C   UNL     1      -4.164  -1.066  -2.083  0.00  0.00    +0.006 A 
ATOM     18  C   UNL     1      -4.213  -0.207  -3.164  0.00  0.00    +0.004 A 
ATOM     19  C   UNL     1      -4.123   1.158  -2.968  0.00  0.00    +0.045 A 
ATOM     20  C   UNL     1      -3.982   1.665  -1.685  0.00  0.00    +0.117 A 
ATOM     21  C   UNL     1      -3.939   0.801  -0.600  0.00  0.00    +0.051 A 
BRANCH  20  22
ATOM     22  O   UNL     1      -3.893   3.007  -1.489  0.00  0.00    -0.507 OA
ATOM     23  H   UNL     1      -4.746   3.443  -1.355  0.00  0.00    +0.292 HD
ENDBRANCH  20  22
ENDBRANCH  13  16
BRANCH   1  24
ATOM     24  C   UNL     1      -1.498  -1.906   0.422  0.00  0.00    +0.339 C 
ATOM     25  O   UNL     1      -1.064  -1.768   1.550  0.00  0.00    -0.245 OA
BRANCH  24  26
ATOM     26  O   UNL     1      -0.739  -1.560  -0.640  0.00  0.00    -0.462 OA
BRANCH  26  28
ATOM     27  C   UNL     1       1.267  -0.705  -1.681  0.00  0.00    +0.048 C 
ATOM     28  C   UNL     1       0.562  -1.038  -0.364  0.00  0.00    +0.229 C 
ENDBRANCH  26  28
ENDBRANCH  24  26
ENDBRANCH   1  24
TORSDOF 5
