REMARK  Name = ZINC16734556
REMARK  8 active torsions:
REMARK  status: ('A' for Active; 'I' for Inactive)
REMARK    1  A    between atoms: C_1  and  C_2
REMARK    2  A    between atoms: C_7  and  N_29
REMARK    3  A    between atoms: C_8  and  C_13
REMARK    4  A    between atoms: N_17  and  C_21
REMARK    5  A    between atoms: N_29  and  C_30
REMARK    6  A    between atoms: C_30  and  C_31
REMARK    7  A    between atoms: C_31  and  O_32
REMARK    8  A    between atoms: O_32  and  C_33
REMARK                            x       y       z     vdW  Elec       q    Type
REMARK                         _______ _______ _______ _____ _____    ______ ____
ROOT
ATOM      1  C   UNL     1      -3.968   6.599   0.523  0.00  0.00    +0.045 C 
ATOM      2  C   UNL     1      -2.466   6.652   0.419  0.00  0.00    -0.034 A 
ATOM      3  C   UNL     1      -1.808   7.889   0.401  0.00  0.00    +0.008 A 
ATOM      4  C   UNL     1      -0.449   7.927   0.307  0.00  0.00    +0.047 A 
ATOM      5  C   UNL     1       0.275   6.724   0.229  0.00  0.00    +0.142 A 
ATOM      6  N   UNL     1       1.604   6.771   0.136  0.00  0.00    -0.214 NA
ATOM      7  C   UNL     1       2.336   5.669   0.059  0.00  0.00    +0.134 A 
ATOM      8  C   UNL     1       1.698   4.406   0.076  0.00  0.00    +0.081 A 
ATOM      9  C   UNL     1       0.286   4.368   0.169  0.00  0.00    +0.267 A 
ATOM     10  O   UNL     1      -0.306   3.302   0.182  0.00  0.00    -0.267 OA
ATOM     11  N   UNL     1      -0.394   5.532   0.248  0.00  0.00    -0.267 N 
ATOM     12  C   UNL     1      -1.754   5.505   0.343  0.00  0.00    +0.099 A 
ENDROOT
BRANCH   8  13
ATOM     13  C   UNL     1       2.451   3.212  -0.004  0.00  0.00    +0.037 C 
ATOM     14  C   UNL     1       3.436   2.964   0.907  0.00  0.00    +0.077 C 
ATOM     15  C   UNL     1       4.377   1.896   0.956  0.00  0.00    +0.259 C 
ATOM     16  O   UNL     1       4.384   1.027   0.102  0.00  0.00    -0.269 OA
ATOM     17  N   UNL     1       5.244   1.874   1.954  0.00  0.00    -0.251 N 
ATOM     18  C   UNL     1       5.237   2.839   2.901  0.00  0.00    +0.121 C 
ATOM     19  S   UNL     1       6.255   3.009   4.266  0.00  0.00    -0.027 S 
ATOM     20  S   UNL     1       3.896   3.890   2.365  0.00  0.00    -0.061 S 
BRANCH  17  21
ATOM     21  C   UNL     1       6.226   0.790   2.034  0.00  0.00    +0.105 C 
ATOM     22  C   UNL     1       6.020   0.010   3.342  0.00  0.00    +0.047 C 
ATOM     23  C   UNL     1       7.250  -0.917   3.553  0.00  0.00    +0.168 C 
ATOM     24  S   UNL     1       8.613   0.207   3.029  0.00  0.00    -0.029 S 
ATOM     25  O   UNL     1       9.112   0.891   4.170  0.00  0.00    -0.174 OA
ATOM     26  O   UNL     1       9.512  -0.513   2.197  0.00  0.00    -0.174 OA
ATOM     27  C   UNL     1       7.654   1.387   1.996  0.00  0.00    +0.188 C 
ENDBRANCH  17  21
ENDBRANCH   8  13
BRANCH   7  28
ATOM     28  N   UNL     1       3.708   5.751  -0.035  0.00  0.00    -0.326 N 
ATOM     29  H   UNL     1       4.240   4.942  -0.090  0.00  0.00    +0.148 HD
BRANCH  28  30
ATOM     30  C   UNL     1       4.363   7.062  -0.052  0.00  0.00    +0.131 C 
BRANCH  30  31
ATOM     31  C   UNL     1       5.877   6.873  -0.162  0.00  0.00    +0.178 C 
BRANCH  31  32
ATOM     32  O   UNL     1       6.192   6.277  -1.422  0.00  0.00    -0.381 OA
ATOM     33  C   UNL     1       7.589   6.056  -1.628  0.00  0.00    +0.194 C 
ENDBRANCH  31  32
ENDBRANCH  30  31
ENDBRANCH  28  30
ENDBRANCH   7  28
TORSDOF 6
