REMARK  Name = ZINC01855382
REMARK  5 active torsions:
REMARK  status: ('A' for Active; 'I' for Inactive)
REMARK    1  A    between atoms: C_1  and  C_2
REMARK    2  A    between atoms: C_2  and  C_32
REMARK    3  A    between atoms: C_12  and  C_14
REMARK    4  A    between atoms: C_27  and  O_30
REMARK    5  A    between atoms: O_30  and  C_31
REMARK                            x       y       z     vdW  Elec       q    Type
REMARK                         _______ _______ _______ _____ _____    ______ ____
ROOT
ATOM      1  C   UNL     1       0.658   3.551  -1.289  0.00  0.00    +0.041 C 
ATOM      2  C   UNL     1      -0.762   2.983  -1.252  0.00  0.00    +0.069 C 
ATOM      3  C   UNL     1      -1.626   3.828  -0.312  0.00  0.00    +0.101 C 
ATOM      4  C   UNL     1      -1.049   3.747   1.107  0.00  0.00    +0.185 C 
ATOM      5  C   UNL     1      -1.000   2.275   1.534  0.00  0.00    +0.094 C 
ATOM      6  C   UNL     1      -0.161   1.489   0.524  0.00  0.00    +0.166 C 
ATOM      7  O   UNL     1      -0.725   1.635  -0.781  0.00  0.00    -0.374 OA
ATOM      8  N   UNL     1      -1.855   4.513   2.024  0.00  0.00    -0.177 NA
ATOM      9  C   UNL     1      -1.181   4.598   3.356  0.00  0.00    +0.138 C 
ATOM     10  C   UNL     1      -2.283   5.161   4.212  0.00  0.00    +0.023 C 
ATOM     11  C   UNL     1      -3.422   4.904   3.541  0.00  0.00    +0.047 C 
ATOM     12  N   UNL     1      -3.132   4.214   2.346  0.00  0.00    -0.273 N 
ATOM     13  C   UNL     1      -0.025   5.519   3.099  0.00  0.00    +0.021 A 
ATOM     14  C   UNL     1       0.350   6.529   3.946  0.00  0.00    +0.009 A 
ATOM     15  C   UNL     1       1.419   7.345   3.612  0.00  0.00    +0.004 A 
ATOM     16  C   UNL     1       2.101   7.135   2.427  0.00  0.00    +0.049 A 
ATOM     17  C   UNL     1       1.728   6.110   1.573  0.00  0.00    +0.162 A 
ATOM     18  C   UNL     1       0.660   5.283   1.904  0.00  0.00    +0.170 A 
ATOM     19  O   UNL     1       0.289   4.265   1.089  0.00  0.00    -0.465 OA
ATOM     20  C   UNL     1      -1.361   3.015  -2.660  0.00  0.00    +0.041 C 
ATOM     21  H   UNL     1      -3.729   3.631   1.852  0.00  0.00    +0.167 HD
ENDROOT
BRANCH  11  22
ATOM     22  C   UNL     1      -4.779   5.289   3.991  0.00  0.00    +0.000 A 
ATOM     23  C   UNL     1      -4.949   5.967   5.198  0.00  0.00    +0.013 A 
ATOM     24  C   UNL     1      -6.213   6.330   5.614  0.00  0.00    +0.050 A 
ATOM     25  C   UNL     1      -7.320   6.013   4.840  0.00  0.00    +0.166 A 
ATOM     26  C   UNL     1      -7.157   5.330   3.636  0.00  0.00    +0.167 A 
ATOM     27  C   UNL     1      -5.891   4.969   3.212  0.00  0.00    +0.059 A 
ATOM     28  O   UNL     1      -8.386   5.142   3.072  0.00  0.00    -0.453 OA
ATOM     29  C   UNL     1      -9.261   6.072   3.737  0.00  0.00    +0.466 C 
ATOM     30  O   UNL     1      -8.651   6.251   5.029  0.00  0.00    -0.453 OA
ENDBRANCH  11  22
BRANCH  17  31
ATOM     31  O   UNL     1       2.406   5.913   0.410  0.00  0.00    -0.491 OA
ATOM     32  C   UNL     1       3.492   6.800   0.134  0.00  0.00    +0.277 C 
ENDBRANCH  17  31
TORSDOF 2
