REMARK  Name = ZINC15688717
REMARK  9 active torsions:
REMARK  status: ('A' for Active; 'I' for Inactive)
REMARK    1  A    between atoms: C_1  and  C_2
REMARK    2  A    between atoms: C_5  and  C_26
REMARK    3  A    between atoms: C_6  and  N_8
REMARK    4  A    between atoms: C_9  and  C_11
REMARK    5  A    between atoms: C_11  and  C_13
REMARK    6  A    between atoms: C_11  and  O_14
REMARK    7  A    between atoms: O_14  and  C_15
REMARK    8  A    between atoms: C_15  and  C_17
REMARK    9  A    between atoms: C_18  and  C_19
REMARK                            x       y       z     vdW  Elec       q    Type
REMARK                         _______ _______ _______ _____ _____    ______ ____
ROOT
ATOM      1  C   UNL     1       0.280  -2.900   4.854  0.00  0.00    +0.259 C 
ATOM      2  C   UNL     1      -0.998  -3.703   5.101  0.00  0.00    +0.062 C 
ENDROOT
BRANCH   1   4
ATOM      3  N   UNL     1       0.052  -2.797   2.393  0.00  0.00    -0.282 N 
ATOM      4  C   UNL     1       0.150  -2.135   3.562  0.00  0.00    +0.258 C 
ATOM      5  O   UNL     1       0.134  -0.922   3.575  0.00  0.00    -0.271 OA
ATOM      6  H   UNL     1      -0.016  -3.765   2.388  0.00  0.00    +0.155 HD
BRANCH   3  12
ATOM      7  C   UNL     1       1.264   1.227  -0.158  0.00  0.00    +0.044 C 
ATOM      8  C   UNL     1       0.628  -0.137  -0.079  0.00  0.00    -0.049 A 
ATOM      9  C   UNL     1       0.038  -0.690  -1.201  0.00  0.00    +0.004 A 
ATOM     10  C   UNL     1      -0.546  -1.941  -1.133  0.00  0.00    +0.005 A 
ATOM     11  C   UNL     1      -0.543  -2.643   0.057  0.00  0.00    -0.029 A 
ATOM     12  C   UNL     1       0.048  -2.090   1.185  0.00  0.00    +0.037 A 
ATOM     13  C   UNL     1       0.639  -0.835   1.112  0.00  0.00    +0.027 A 
ATOM     14  C   UNL     1      -1.181  -4.006   0.131  0.00  0.00    +0.045 C 
ENDBRANCH   3  12
ENDBRANCH   1   4
BRANCH   1  15
ATOM     15  O   UNL     1       0.484  -1.985   5.931  0.00  0.00    -0.449 OA
BRANCH  15  16
ATOM     16  C   UNL     1       1.209  -2.425   6.981  0.00  0.00    +0.333 C 
ATOM     17  O   UNL     1       1.655  -3.557   6.979  0.00  0.00    -0.246 OA
BRANCH  16  18
ATOM     18  C   UNL     1       1.458  -1.543   8.119  0.00  0.00    +0.092 C 
ATOM     19  C   UNL     1       2.183  -1.984   9.169  0.00  0.00    +0.015 C 
BRANCH  19  20
ATOM     20  C   UNL     1       2.433  -1.096  10.315  0.00  0.00    -0.025 A 
ATOM     21  C   UNL     1       1.917   0.204  10.323  0.00  0.00    +0.009 A 
ATOM     22  C   UNL     1       2.155   1.030  11.400  0.00  0.00    +0.020 A 
ATOM     23  C   UNL     1       2.904   0.576  12.473  0.00  0.00    +0.041 A 
ATOM     24  C   UNL     1       3.419  -0.711  12.472  0.00  0.00    +0.020 A 
ATOM     25  C   UNL     1       3.184  -1.550  11.405  0.00  0.00    +0.009 A 
ATOM     26 CL   UNL     1       3.200   1.623  13.826  0.00  0.00    -0.084 Cl
ENDBRANCH  19  20
ENDBRANCH  16  18
ENDBRANCH  15  16
ENDBRANCH   1  15
TORSDOF 6
