REMARK  Name = ZINC14459383
REMARK  8 active torsions:
REMARK  status: ('A' for Active; 'I' for Inactive)
REMARK    1  A    between atoms: C_1  and  C_2
REMARK    2  A    between atoms: C_2  and  C_3
REMARK    3  A    between atoms: C_3  and  C_4
REMARK    4  A    between atoms: N_6  and  C_7
REMARK    5  A    between atoms: C_20  and  C_23
REMARK    6  A    between atoms: C_26  and  O_31
REMARK    7  A    between atoms: C_27  and  O_29
REMARK    8  A    between atoms: O_29  and  C_30
REMARK                            x       y       z     vdW  Elec       q    Type
REMARK                         _______ _______ _______ _____ _____    ______ ____
ROOT
ATOM      1  C   UNL     1       8.722  -0.276  -0.195  0.00  0.00    +0.039 A 
ATOM      2  C   UNL     1       9.534  -0.160   0.922  0.00  0.00    +0.025 A 
ATOM      3  C   UNL     1       9.122   0.604   1.998  0.00  0.00    +0.023 A 
ATOM      4  C   UNL     1       7.903   1.249   1.955  0.00  0.00    +0.062 A 
ATOM      5  C   UNL     1       7.081   1.136   0.833  0.00  0.00    +0.052 A 
ATOM      6  C   UNL     1       7.488   0.372  -0.245  0.00  0.00    +0.003 A 
ATOM      7  C   UNL     1       6.653   0.202  -1.479  0.00  0.00    +0.050 C 
ATOM      8  C   UNL     1       6.077  -1.194  -1.546  0.00  0.00    -0.023 C 
ATOM      9  C   UNL     1       4.847  -1.162  -1.996  0.00  0.00    -0.030 C 
ATOM     10  C   UNL     1       4.430   0.263  -2.302  0.00  0.00    +0.033 C 
ATOM     11  C   UNL     1       5.412   1.120  -1.455  0.00  0.00    +0.029 C 
ATOM     12  C   UNL     1       4.869   1.181  -0.025  0.00  0.00    +0.105 C 
ATOM     13  N   UNL     1       5.860   1.812   0.846  0.00  0.00    -0.335 N 
ATOM     14 CL   UNL     1       7.388   2.208   3.308  0.00  0.00    -0.082 Cl
ATOM     15  H   UNL     1       5.983   2.785   0.609  0.00  0.00    +0.147 HD
ENDROOT
BRANCH  12  16
ATOM     16  C   UNL     1       3.596   1.987  -0.005  0.00  0.00    -0.023 A 
ATOM     17  C   UNL     1       3.654   3.368  -0.006  0.00  0.00    +0.009 A 
ATOM     18  C   UNL     1       2.490   4.113   0.012  0.00  0.00    +0.049 A 
ATOM     19  C   UNL     1       1.260   3.474   0.025  0.00  0.00    +0.158 A 
ATOM     20  C   UNL     1       1.201   2.084   0.032  0.00  0.00    +0.162 A 
ATOM     21  C   UNL     1       2.372   1.344   0.014  0.00  0.00    +0.054 A 
BRANCH  20  22
ATOM     22  O   UNL     1      -0.004   1.453   0.051  0.00  0.00    -0.491 OA
ATOM     23  C   UNL     1       0.012   0.024   0.051  0.00  0.00    +0.277 C 
ENDBRANCH  20  22
BRANCH  19  24
ATOM     24  O   UNL     1       0.113   4.205   0.037  0.00  0.00    -0.503 OA
ATOM     25  H   UNL     1      -0.207   4.420   0.924  0.00  0.00    +0.292 HD
ENDBRANCH  19  24
ENDBRANCH  12  16
BRANCH   1  28
ATOM     26  C   UNL     1      10.027  -2.051  -1.095  0.00  0.00    +0.217 C 
ATOM     27  O   UNL     1      10.381  -2.345   0.028  0.00  0.00    -0.275 OA
ATOM     28  N   UNL     1       9.144  -1.051  -1.282  0.00  0.00    -0.285 N 
ATOM     29  H   UNL     1       8.800  -0.868  -2.171  0.00  0.00    +0.155 HD
BRANCH  26  30
ATOM     30  C   UNL     1      10.576  -2.803  -2.279  0.00  0.00    +0.096 C 
BRANCH  30  32
ATOM     31  C   UNL     1      12.108  -4.642  -2.996  0.00  0.00    +0.004 C 
ATOM     32  C   UNL     1      11.551  -3.878  -1.793  0.00  0.00    +0.006 C 
ENDBRANCH  30  32
ENDBRANCH  26  30
ENDBRANCH   1  28
TORSDOF 6
