REMARK  Name = ZINC33284021
REMARK  4 active torsions:
REMARK  status: ('A' for Active; 'I' for Inactive)
REMARK    1  A    between atoms: C_3  and  C_6
REMARK    2  A    between atoms: N_14  and  C_17
REMARK    3  A    between atoms: C_17  and  C_18
REMARK    4  A    between atoms: N_20  and  C_21
REMARK                            x       y       z     vdW  Elec       q    Type
REMARK                         _______ _______ _______ _____ _____    ______ ____
ROOT
ATOM      1  C   UNL     1       4.441   5.763  -0.008  0.00  0.00    +0.079 A 
ATOM      2  C   UNL     1       4.745   4.396  -0.026  0.00  0.00    +0.029 A 
ATOM      3  C   UNL     1       3.747   3.469  -0.024  0.00  0.00    +0.015 A 
ATOM      4  C   UNL     1       2.397   3.904  -0.002  0.00  0.00    +0.034 A 
ATOM      5  C   UNL     1       1.186   3.069   0.005  0.00  0.00    +0.094 A 
ATOM      6  C   UNL     1      -0.029   3.752   0.029  0.00  0.00    +0.105 A 
ATOM      7  C   UNL     1      -1.248   3.063   0.038  0.00  0.00    +0.269 A 
ATOM      8  O   UNL     1      -2.309   3.666   0.059  0.00  0.00    -0.266 OA
ATOM      9  N   UNL     1      -1.216   1.710   0.017  0.00  0.00    -0.289 N 
ATOM     10  C   UNL     1      -0.016   1.075  -0.001  0.00  0.00    +0.203 A 
ATOM     11  N   UNL     1       1.116   1.706  -0.009  0.00  0.00    -0.236 NA
ATOM     12  S   UNL     1       0.418   5.467   0.041  0.00  0.00    -0.062 S 
ATOM     13  C   UNL     1       2.186   5.297   0.016  0.00  0.00    +0.112 A 
ATOM     14  N   UNL     1       3.174   6.165   0.012  0.00  0.00    -0.239 NA
ENDROOT
BRANCH   1  17
ATOM     15  C   UNL     1       6.614   8.859  -0.002  0.00  0.00    +0.008 A 
ATOM     16  C   UNL     1       5.449   8.127   0.005  0.00  0.00    +0.017 A 
ATOM     17  C   UNL     1       5.530   6.758  -0.011  0.00  0.00    +0.038 A 
ATOM     18  S   UNL     1       7.296   6.495  -0.028  0.00  0.00    -0.095 S 
ATOM     19  C   UNL     1       7.806   8.206  -0.024  0.00  0.00    +0.046 A 
ENDBRANCH   1  17
BRANCH   9  20
ATOM     20  C   UNL     1      -2.462   0.939   0.019  0.00  0.00    +0.222 C 
BRANCH  20  21
ATOM     21  C   UNL     1      -2.877   0.658   1.440  0.00  0.00    +0.237 C 
ATOM     22  O   UNL     1      -2.198   1.063   2.361  0.00  0.00    -0.274 OA
ATOM     23  N   UNL     1      -4.001  -0.042   1.688  0.00  0.00    -0.284 N 
ATOM     24  H   UNL     1      -4.656  -0.343   0.858  0.00  0.00    +0.155 HD
BRANCH  23  25
ATOM     25  C   UNL     1      -4.336  -0.386   3.004  0.00  0.00    +0.036 A 
ATOM     26  C   UNL     1      -4.966  -1.595   3.267  0.00  0.00    +0.026 A 
ATOM     27  C   UNL     1      -5.291  -1.936   4.566  0.00  0.00    +0.043 A 
ATOM     28  C   UNL     1      -5.000  -1.068   5.604  0.00  0.00    +0.159 A 
ATOM     29  C   UNL     1      -4.375   0.143   5.344  0.00  0.00    +0.160 A 
ATOM     30  C   UNL     1      -4.043   0.484   4.045  0.00  0.00    +0.064 A 
ATOM     31  F   UNL     1      -4.091   0.988   6.359  0.00  0.00    -0.202 F 
ATOM     32  F   UNL     1      -5.323  -1.401   6.873  0.00  0.00    -0.202 F 
ENDBRANCH  23  25
ENDBRANCH  20  21
ENDBRANCH   9  20
TORSDOF 4
