REMARK  Name = ZINC36027624
REMARK  14 active torsions:
REMARK  status: ('A' for Active; 'I' for Inactive)
REMARK    1  A    between atoms: C_1  and  C_2
REMARK    2  A    between atoms: C_2  and  O_3
REMARK    3  A    between atoms: O_3  and  C_4
REMARK    4  A    between atoms: C_4  and  C_6
REMARK    5  A    between atoms: C_7  and  C_24
REMARK    6  A    between atoms: N_8  and  C_21
REMARK    7  A    between atoms: C_12  and  C_14
REMARK    8  A    between atoms: C_19  and  C_20
REMARK    9  A    between atoms: C_21  and  C_22
REMARK   10  A    between atoms: C_24  and  N_25
REMARK   11  A    between atoms: N_33  and  C_34
REMARK   12  A    between atoms: C_34  and  C_35
REMARK   13  A    between atoms: C_34  and  C_36
REMARK   14  A    between atoms: C_34  and  C_37
REMARK                            x       y       z     vdW  Elec       q    Type
REMARK                         _______ _______ _______ _____ _____    ______ ____
ROOT
ATOM      1  C   UNL     1      -2.842  -2.309   0.137  0.00  0.00    +0.080 C 
ATOM      2  C   UNL     1      -3.066  -3.625  -0.069  0.00  0.00    +0.041 C 
ATOM      3  N   UNL     1      -4.336  -4.113  -0.183  0.00  0.00    -0.254 N 
ATOM      4  C   UNL     1      -5.435  -3.352  -0.103  0.00  0.00    +0.307 C 
ATOM      5  O   UNL     1      -6.524  -3.879  -0.217  0.00  0.00    -0.252 OA
ATOM      6  N   UNL     1      -5.372  -2.022   0.101  0.00  0.00    -0.288 N 
ATOM      7  C   UNL     1      -4.046  -1.396   0.244  0.00  0.00    +0.144 C 
ATOM      8  H   UNL     1      -6.181  -1.489   0.156  0.00  0.00    +0.151 HD
ENDROOT
BRANCH   7   9
ATOM      9  C   UNL     1      -3.993  -0.711   1.585  0.00  0.00    -0.020 A 
ATOM     10  C   UNL     1      -4.617  -1.282   2.679  0.00  0.00    +0.006 A 
ATOM     11  C   UNL     1      -4.567  -0.653   3.908  0.00  0.00    +0.000 A 
ATOM     12  C   UNL     1      -3.894   0.546   4.045  0.00  0.00    +0.000 A 
ATOM     13  C   UNL     1      -3.269   1.117   2.952  0.00  0.00    +0.004 A 
ATOM     14  C   UNL     1      -3.315   0.486   1.723  0.00  0.00    -0.045 A 
ATOM     15  C   UNL     1      -2.630   1.105   0.532  0.00  0.00    +0.044 C 
ENDBRANCH   7   9
BRANCH   1  16
ATOM     16  C   UNL     1      -1.527  -1.802   0.256  0.00  0.00    +0.339 C 
ATOM     17  O   UNL     1      -1.086  -1.503   1.350  0.00  0.00    -0.245 OA
BRANCH  16  18
ATOM     18  O   UNL     1      -0.760  -1.649  -0.844  0.00  0.00    -0.462 OA
BRANCH  18  20
ATOM     19  C   UNL     1       1.263  -1.000  -1.995  0.00  0.00    +0.048 C 
ATOM     20  C   UNL     1       0.593  -1.237  -0.640  0.00  0.00    +0.229 C 
ENDBRANCH  18  20
ENDBRANCH  16  18
ENDBRANCH   1  16
BRANCH   3  21
ATOM     21  C   UNL     1      -4.506  -5.551  -0.407  0.00  0.00    +0.141 C 
BRANCH  21  22
ATOM     22  C   UNL     1      -4.609  -6.257   0.921  0.00  0.00    -0.015 C 
ATOM     23  C   UNL     1      -5.640  -7.023   1.178  0.00  0.00    +0.005 C 
ENDBRANCH  21  22
ENDBRANCH   3  21
BRANCH   2  24
ATOM     24  C   UNL     1      -1.896  -4.569  -0.176  0.00  0.00    +0.136 C 
BRANCH  24  25
ATOM     25  N   UNL     1      -1.892  -5.476   0.979  0.00  0.00    -0.294 NA
ATOM     26  C   UNL     1      -1.644  -4.740   2.226  0.00  0.00    +0.104 C 
ATOM     27  C   UNL     1      -1.827  -5.686   3.418  0.00  0.00    +0.124 C 
ATOM     28  N   UNL     1      -0.975  -6.867   3.213  0.00  0.00    -0.283 N 
ATOM     29  C   UNL     1      -1.068  -7.578   1.929  0.00  0.00    +0.124 C 
ATOM     30  C   UNL     1      -0.916  -6.558   0.795  0.00  0.00    +0.104 C 
ATOM     31  C   UNL     1      -0.130  -7.286   4.176  0.00  0.00    +0.303 C 
ATOM     32  O   UNL     1      -0.129  -6.741   5.263  0.00  0.00    -0.253 OA
ATOM     33  N   UNL     1       0.712  -8.310   3.934  0.00  0.00    -0.294 N 
ATOM     34  H   UNL     1       0.762  -8.698   3.046  0.00  0.00    +0.151 HD
BRANCH  33  35
ATOM     35  C   UNL     1       1.552  -8.838   5.012  0.00  0.00    +0.028 C 
ATOM     36  C   UNL     1       0.663  -9.351   6.147  0.00  0.00    +0.031 C 
ATOM     37  C   UNL     1       2.408  -9.987   4.476  0.00  0.00    +0.031 C 
ATOM     38  C   UNL     1       2.462  -7.727   5.540  0.00  0.00    +0.031 C 
ENDBRANCH  33  35
ENDBRANCH  24  25
ENDBRANCH   2  24
TORSDOF 9
