REMARK  Name = ZINC04997568
REMARK  5 active torsions:
REMARK  status: ('A' for Active; 'I' for Inactive)
REMARK    1  A    between atoms: C_6  and  C_7
REMARK    2  A    between atoms: C_14  and  N_28
REMARK    3  A    between atoms: C_15  and  C_26
REMARK    4  A    between atoms: C_16  and  C_18
REMARK    5  A    between atoms: C_21  and  N_23
REMARK                            x       y       z     vdW  Elec       q    Type
REMARK                         _______ _______ _______ _____ _____    ______ ____
ROOT
ATOM      1  C   UNL     1      -1.604  -1.079   0.176  0.00  0.00    +0.100 A 
ATOM      2  C   UNL     1      -1.688  -2.152  -0.716  0.00  0.00    +0.055 A 
ATOM      3  C   UNL     1      -2.938  -2.691  -0.613  0.00  0.00    +0.223 A 
ATOM      4  N   UNL     1      -3.615  -1.981   0.313  0.00  0.00    -0.246 N 
ATOM      5  H   UNL     1      -4.530  -2.139   0.595  0.00  0.00    +0.192 HD
ATOM      6  N   UNL     1      -2.762  -0.979   0.800  0.00  0.00    -0.171 NA
ATOM      7  O   UNL     1      -3.340  -3.753  -1.354  0.00  0.00    -0.423 OA
ATOM      8  C   UNL     1      -2.573  -4.109  -2.404  0.00  0.00    +0.200 C 
ATOM      9  C   UNL     1      -1.317  -3.654  -2.606  0.00  0.00    +0.099 C 
ATOM     10  C   UNL     1      -0.643  -2.692  -1.658  0.00  0.00    +0.108 C 
ENDROOT
BRANCH   1  16
ATOM     11  C   UNL     1       0.330   0.228  -0.702  0.00  0.00    +0.011 A 
ATOM     12  C   UNL     1       1.430   1.036  -0.500  0.00  0.00    +0.020 A 
ATOM     13  C   UNL     1       1.789   1.412   0.783  0.00  0.00    +0.041 A 
ATOM     14  C   UNL     1       1.048   0.979   1.869  0.00  0.00    +0.020 A 
ATOM     15  C   UNL     1      -0.054   0.170   1.677  0.00  0.00    +0.011 A 
ATOM     16  C   UNL     1      -0.420  -0.210   0.388  0.00  0.00    +0.003 A 
ATOM     17 CL   UNL     1       3.174   2.428   1.031  0.00  0.00    -0.084 Cl
ENDBRANCH   1  16
BRANCH  10  18
ATOM     18  C   UNL     1       0.424  -3.413  -0.875  0.00  0.00    +0.005 A 
ATOM     19  C   UNL     1       1.766  -3.218  -0.882  0.00  0.00    +0.014 A 
ATOM     20  C   UNL     1       2.561  -4.006  -0.072  0.00  0.00    +0.041 A 
ATOM     21  C   UNL     1       1.977  -4.951   0.705  0.00  0.00    +0.164 A 
ATOM     22  S   UNL     1       0.249  -4.739   0.307  0.00  0.00    -0.068 S 
BRANCH  21  23
ATOM     23  N   UNL     1       2.607  -5.907   1.643  0.00  0.00    +0.063 N 
ATOM     24  O   UNL     1       3.807  -5.906   1.793  0.00  0.00    -0.126 OA
ATOM     25  O   UNL     1       1.922  -6.688   2.261  0.00  0.00    -0.126 OA
ENDBRANCH  21  23
ENDBRANCH  10  18
BRANCH   8  26
ATOM     26  N   UNL     1      -3.098  -4.986  -3.321  0.00  0.00    -0.328 N 
ATOM     27  H   UNL     1      -3.997  -5.331  -3.203  0.00  0.00    +0.145 HD
ATOM     28  H   UNL     1      -2.570  -5.261  -4.087  0.00  0.00    +0.145 HD
ENDBRANCH   8  26
BRANCH   9  29
ATOM     29  C   UNL     1      -0.598  -4.100  -3.761  0.00  0.00    +0.101 C 
ATOM     30  N   UNL     1      -0.028  -4.455  -4.678  0.00  0.00    -0.191 NA
ENDBRANCH   9  29
TORSDOF 5
