REMARK  Name = ZINC63362408
REMARK  8 active torsions:
REMARK  status: ('A' for Active; 'I' for Inactive)
REMARK    1  A    between atoms: C_1  and  C_2
REMARK    2  A    between atoms: C_2  and  C_4
REMARK    3  A    between atoms: C_2  and  N_11
REMARK    4  A    between atoms: C_4  and  C_5
REMARK    5  A    between atoms: C_12  and  C_14
REMARK    6  A    between atoms: C_14  and  C_16
REMARK    7  A    between atoms: C_14  and  N_17
REMARK    8  A    between atoms: C_20  and  C_36
REMARK                            x       y       z     vdW  Elec       q    Type
REMARK                         _______ _______ _______ _____ _____    ______ ____
ROOT
ATOM      1  N   UNL     1      -0.240  -1.150  -4.711  0.00  0.00    -0.212 N 
ATOM      2  C   UNL     1      -0.549  -2.276  -5.387  0.00  0.00    +0.249 C 
ATOM      3  O   UNL     1      -0.089  -3.384  -5.213  0.00  0.00    -0.273 OA
ATOM      4  C   UNL     1      -1.591  -1.869  -6.407  0.00  0.00    +0.136 C 
ATOM      5  C   UNL     1      -1.065  -2.118  -7.825  0.00  0.00    +0.139 C 
ATOM      6  C   UNL     1      -1.876  -1.217  -8.750  0.00  0.00    -0.034 C 
ATOM      7  C   UNL     1      -2.441  -2.018  -9.649  0.00  0.00    -0.001 A 
ATOM      8  C   UNL     1      -3.282  -1.729 -10.822  0.00  0.00    +0.010 A 
ATOM      9  C   UNL     1      -3.707  -2.806 -11.533  0.00  0.00    +0.001 A 
ATOM     10  C   UNL     1      -3.384  -4.125 -11.200  0.00  0.00    +0.002 A 
ATOM     11  C   UNL     1      -2.612  -4.482 -10.141  0.00  0.00    +0.026 A 
ATOM     12  C   UNL     1      -2.103  -3.435  -9.319  0.00  0.00    +0.043 A 
ATOM     13  N   UNL     1      -1.329  -3.491  -8.260  0.00  0.00    -0.375 N 
ATOM     14  C   UNL     1      -2.003   0.273  -8.552  0.00  0.00    +0.052 C 
ATOM     15  C   UNL     1      -2.447   0.502  -7.093  0.00  0.00    +0.115 C 
ATOM     16  N   UNL     1      -1.680  -0.402  -6.232  0.00  0.00    -0.269 N 
ATOM     17  C   UNL     1      -0.914  -0.091  -5.179  0.00  0.00    +0.313 C 
ATOM     18  O   UNL     1      -0.836   1.025  -4.704  0.00  0.00    -0.252 OA
ATOM     19  C   UNL     1      -2.934  -2.559  -6.157  0.00  0.00    +0.044 C 
ATOM     20  H   UNL     1      -0.992  -4.295  -7.835  0.00  0.00    +0.160 HD
ENDROOT
BRANCH   1  21
ATOM     21  C   UNL     1       0.712  -1.094  -3.598  0.00  0.00    +0.168 C 
ATOM     22  C   UNL     1       1.849  -0.133  -3.948  0.00  0.00    +0.038 C 
BRANCH  21  24
ATOM     23  N   UNL     1       0.688  -0.476  -1.203  0.00  0.00    -0.311 N 
ATOM     24  C   UNL     1       0.006  -0.608  -2.358  0.00  0.00    +0.234 C 
ATOM     25  O   UNL     1      -1.175  -0.336  -2.400  0.00  0.00    -0.274 OA
ATOM     26  H   UNL     1       1.632  -0.695  -1.170  0.00  0.00    +0.149 HD
BRANCH  23  28
ATOM     27  C   UNL     1      -0.019   1.526   0.010  0.00  0.00    +0.028 C 
ATOM     28  C   UNL     1       0.002  -0.004   0.002  0.00  0.00    +0.074 C 
BRANCH  28  29
ATOM     29  C   UNL     1       0.742  -0.511   1.242  0.00  0.00    +0.057 C 
BRANCH  29  30
ATOM     30  C   UNL     1       0.657  -2.014   1.298  0.00  0.00    -0.046 A 
ATOM     31  C   UNL     1      -0.396  -2.623   1.955  0.00  0.00    +0.004 A 
ATOM     32  C   UNL     1      -0.474  -4.002   2.007  0.00  0.00    +0.000 A 
ATOM     33  C   UNL     1       0.500  -4.773   1.401  0.00  0.00    +0.000 A 
ATOM     34  C   UNL     1       1.552  -4.164   0.742  0.00  0.00    +0.000 A 
ATOM     35  C   UNL     1       1.628  -2.785   0.687  0.00  0.00    +0.004 A 
ENDBRANCH  29  30
ENDBRANCH  28  29
ENDBRANCH  23  28
ENDBRANCH  21  24
ENDBRANCH   1  21
TORSDOF 5
