REMARK  Name = ZINC36684813
REMARK  11 active torsions:
REMARK  status: ('A' for Active; 'I' for Inactive)
REMARK    1  A    between atoms: C_1  and  C_2
REMARK    2  A    between atoms: C_2  and  C_3
REMARK    3  A    between atoms: C_6  and  C_9
REMARK    4  A    between atoms: C_9  and  C_11
REMARK    5  A    between atoms: C_9  and  N_29
REMARK    6  A    between atoms: C_11  and  N_12
REMARK    7  A    between atoms: C_13  and  C_15
REMARK    8  A    between atoms: C_15  and  N_16
REMARK    9  A    between atoms: C_22  and  C_25
REMARK   10  A    between atoms: N_29  and  C_30
REMARK   11  A    between atoms: N_29  and  C_31
REMARK                            x       y       z     vdW  Elec       q    Type
REMARK                         _______ _______ _______ _____ _____    ______ ____
ROOT
ATOM      1  N   UNL     1       4.281  -1.903  -6.422  0.00  0.00    -0.315 N 
ATOM      2  C   UNL     1       5.122  -1.252  -7.249  0.00  0.00    +0.231 C 
ATOM      3  O   UNL     1       5.173  -0.040  -7.230  0.00  0.00    -0.274 OA
ATOM      4  H   UNL     1       4.240  -2.872  -6.437  0.00  0.00    +0.149 HD
ENDROOT
BRANCH   1   5
ATOM      5  C   UNL     1       3.428  -1.148  -5.501  0.00  0.00    +0.093 C 
BRANCH   5   6
ATOM      6  C   UNL     1       2.646  -2.121  -4.616  0.00  0.00    -0.021 C 
BRANCH   6  10
ATOM      7  C   UNL     1      -0.010  -4.430  -7.037  0.00  0.00    -0.048 A 
ATOM      8  C   UNL     1       1.195  -4.969  -6.626  0.00  0.00    +0.004 A 
ATOM      9  C   UNL     1       2.054  -4.221  -5.843  0.00  0.00    +0.002 A 
ATOM     10  C   UNL     1       1.709  -2.936  -5.471  0.00  0.00    -0.059 A 
ATOM     11  C   UNL     1       0.505  -2.397  -5.883  0.00  0.00    +0.002 A 
ATOM     12  C   UNL     1      -0.353  -3.142  -6.669  0.00  0.00    +0.004 A 
BRANCH   7  14
ATOM     13  C   UNL     1      -0.625  -5.011  -9.368  0.00  0.00    +0.009 C 
ATOM     14  C   UNL     1      -0.948  -5.245  -7.891  0.00  0.00    +0.032 C 
ENDBRANCH   7  14
ENDBRANCH   6  10
BRANCH   6  15
ATOM     15  N   UNL     1       1.871  -1.365  -3.623  0.00  0.00    +0.382 N 
ATOM     16  C   UNL     1       1.085  -2.297  -2.803  0.00  0.00    -0.096 C 
ATOM     17  C   UNL     1       2.787  -0.607  -2.761  0.00  0.00    -0.096 C 
ATOM     18  H   UNL     1       1.249  -0.728  -4.097  0.00  0.00    -0.082 HD
ENDBRANCH   6  15
ENDBRANCH   5   6
ENDBRANCH   1   5
BRANCH   2  19
ATOM     19  C   UNL     1       6.000  -2.028  -8.196  0.00  0.00    +0.213 C 
BRANCH  19  20
ATOM     20  N   UNL     1       6.815  -1.098  -8.980  0.00  0.00    -0.215 N 
ATOM     21  C   UNL     1       6.436  -0.566 -10.161  0.00  0.00    +0.247 C 
ATOM     22  O   UNL     1       5.396  -0.760 -10.753  0.00  0.00    -0.273 OA
ATOM     23  C   UNL     1       7.581   0.322 -10.590  0.00  0.00    +0.113 C 
ATOM     24  C   UNL     1       7.117   1.770 -10.705  0.00  0.00    +0.035 C 
ATOM     25  C   UNL     1       8.298   2.656 -11.111  0.00  0.00    +0.006 C 
ATOM     26  C   UNL     1       8.858   2.174 -12.451  0.00  0.00    -0.014 C 
ATOM     27  C   UNL     1       9.341   0.729 -12.313  0.00  0.00    +0.006 C 
ATOM     28  C   UNL     1       8.165  -0.165 -11.912  0.00  0.00    +0.035 C 
ATOM     29  C   UNL     1      10.031   3.066 -12.863  0.00  0.00    +0.007 C 
ATOM     30  N   UNL     1       8.566   0.181  -9.510  0.00  0.00    -0.285 N 
ATOM     31  C   UNL     1       8.027  -0.665  -8.611  0.00  0.00    +0.310 C 
ATOM     32  O   UNL     1       8.580  -1.000  -7.582  0.00  0.00    -0.252 OA
ATOM     33  H   UNL     1       9.432   0.615  -9.453  0.00  0.00    +0.151 HD
ENDBRANCH  19  20
ENDBRANCH   2  19
TORSDOF 7
