REMARK  Name = ZINC10812362
REMARK  3 active torsions:
REMARK  status: ('A' for Active; 'I' for Inactive)
REMARK    1  A    between atoms: C_11  and  C_13
REMARK    2  A    between atoms: N_19  and  S_20
REMARK    3  A    between atoms: S_20  and  C_23
REMARK                            x       y       z     vdW  Elec       q    Type
REMARK                         _______ _______ _______ _____ _____    ______ ____
ROOT
ATOM      1  C   UNL     1      -1.097  -1.950   0.698  0.00  0.00    +0.166 C 
ATOM      2  C   UNL     1      -0.835  -1.061   1.918  0.00  0.00    +0.030 C 
ATOM      3  C   UNL     1      -2.124  -0.326   2.293  0.00  0.00    +0.003 C 
ATOM      4  C   UNL     1      -3.210  -1.341   2.656  0.00  0.00    +0.017 C 
ATOM      5  C   UNL     1      -3.497  -2.231   1.442  0.00  0.00    +0.110 C 
ATOM      6  N   UNL     1      -2.236  -2.832   0.987  0.00  0.00    -0.164 NA
ENDROOT
BRANCH   1  17
ATOM      7  C   UNL     1       4.361  -4.657  -1.415  0.00  0.00    +0.000 A 
ATOM      8  C   UNL     1       3.840  -4.560  -0.138  0.00  0.00    +0.002 A 
ATOM      9  C   UNL     1       2.649  -3.892   0.070  0.00  0.00    +0.024 A 
ATOM     10  C   UNL     1       1.976  -3.318  -1.003  0.00  0.00    +0.039 A 
ATOM     11  C   UNL     1       2.500  -3.415  -2.282  0.00  0.00    -0.026 A 
ATOM     12  C   UNL     1       3.694  -4.088  -2.482  0.00  0.00    +0.005 A 
ATOM     13  C   UNL     1       1.802  -2.801  -3.467  0.00  0.00    +0.038 C 
ATOM     14  C   UNL     1       0.324  -2.569  -3.155  0.00  0.00    +0.024 C 
ATOM     15  C   UNL     1       0.210  -1.800  -1.833  0.00  0.00    +0.114 C 
ATOM     16  N   UNL     1       0.767  -2.649  -0.771  0.00  0.00    -0.270 N 
ATOM     17  C   UNL     1       0.126  -2.782   0.407  0.00  0.00    +0.239 C 
ATOM     18  O   UNL     1       0.532  -3.571   1.234  0.00  0.00    -0.273 OA
ENDBRANCH   1  17
BRANCH   6  19
ATOM     19  S   UNL     1      -2.100  -4.472   0.804  0.00  0.00    +0.068 S 
ATOM     20  O   UNL     1      -3.413  -4.964   0.570  0.00  0.00    -0.152 OA
ATOM     21  O   UNL     1      -1.031  -4.692  -0.105  0.00  0.00    -0.152 OA
BRANCH  19  22
ATOM     22  C   UNL     1      -1.585  -5.128   2.356  0.00  0.00    +0.144 A 
ATOM     23  C   UNL     1      -2.343  -5.556   3.395  0.00  0.00    +0.038 A 
ATOM     24  C   UNL     1      -1.716  -6.043   4.527  0.00  0.00    +0.030 A 
ATOM     25  C   UNL     1      -0.360  -6.066   4.567  0.00  0.00    +0.080 A 
ATOM     26  S   UNL     1       0.069  -5.395   2.970  0.00  0.00    -0.057 S 
ATOM     27 CL   UNL     1       0.686  -6.609   5.842  0.00  0.00    -0.076 Cl
ENDBRANCH  19  22
ENDBRANCH   6  19
TORSDOF 3
