REMARK  Name = ZINC58837297
REMARK  10 active torsions:
REMARK  status: ('A' for Active; 'I' for Inactive)
REMARK    1  A    between atoms: C_1  and  C_2
REMARK    2  A    between atoms: C_7  and  N_8
REMARK    3  A    between atoms: N_8  and  C_9
REMARK    4  A    between atoms: C_9  and  N_11
REMARK    5  A    between atoms: N_11  and  N_12
REMARK    6  A    between atoms: C_13  and  C_15
REMARK    7  A    between atoms: C_15  and  C_16
REMARK    8  A    between atoms: C_22  and  C_24
REMARK    9  A    between atoms: C_24  and  C_25
REMARK   10  A    between atoms: C_24  and  C_26
REMARK                            x       y       z     vdW  Elec       q    Type
REMARK                         _______ _______ _______ _____ _____    ______ ____
ROOT
ATOM      1  N   UNL     1       4.668   0.942   1.166  0.00  0.00    -0.235 N 
ATOM      2  C   UNL     1       5.933   1.409   1.156  0.00  0.00    +0.235 C 
ATOM      3  O   UNL     1       6.543   1.527   2.198  0.00  0.00    -0.274 OA
ATOM      4  H   UNL     1       4.180   0.848   0.333  0.00  0.00    +0.173 HD
ENDROOT
BRANCH   1   5
ATOM      5  N   UNL     1       4.059   0.594   2.379  0.00  0.00    -0.246 N 
ATOM      6  H   UNL     1       4.548   0.689   3.211  0.00  0.00    +0.172 HD
BRANCH   5   7
ATOM      7  C   UNL     1       2.795   0.128   2.388  0.00  0.00    +0.147 C 
ATOM      8  S   UNL     1       2.051  -0.298   3.870  0.00  0.00    -0.017 S 
BRANCH   7   9
ATOM      9  N   UNL     1       2.116  -0.004   1.231  0.00  0.00    -0.322 N 
ATOM     10  H   UNL     1       2.538   0.237   0.392  0.00  0.00    +0.148 HD
BRANCH   9  17
ATOM     11  C   UNL     1      -0.019   1.526   0.010  0.00  0.00    +0.009 C 
ATOM     12  C   UNL     1       0.002  -0.004   0.002  0.00  0.00    +0.006 C 
ATOM     13  C   UNL     1       0.718  -0.497  -1.257  0.00  0.00    +0.005 C 
ATOM     14  C   UNL     1       0.739  -2.027  -1.265  0.00  0.00    +0.000 C 
ATOM     15  C   UNL     1       1.479  -2.534  -0.026  0.00  0.00    +0.002 C 
ATOM     16  C   UNL     1       0.763  -2.041   1.233  0.00  0.00    +0.022 C 
ATOM     17  C   UNL     1       0.742  -0.511   1.242  0.00  0.00    +0.075 C 
ENDBRANCH   9  17
ENDBRANCH   7   9
ENDBRANCH   5   7
ENDBRANCH   1   5
BRANCH   2  18
ATOM     18  C   UNL     1       6.588   1.783  -0.148  0.00  0.00    +0.153 C 
BRANCH  18  19
ATOM     19  C   UNL     1       7.989   2.272   0.116  0.00  0.00    +0.059 A 
ATOM     20  C   UNL     1       9.060   1.720  -0.505  0.00  0.00    +0.072 A 
ATOM     21  S   UNL     1      10.386   2.690   0.194  0.00  0.00    -0.060 S 
ATOM     22  C   UNL     1       9.453   3.679   1.185  0.00  0.00    +0.165 A 
ATOM     23  N   UNL     1       8.227   3.262   0.957  0.00  0.00    -0.229 NA
ATOM     24  N   UNL     1       9.876   4.695   2.034  0.00  0.00    -0.264 N 
ATOM     25  C   UNL     1      11.187   4.989   2.135  0.00  0.00    +0.221 C 
ATOM     26  O   UNL     1      11.999   4.366   1.483  0.00  0.00    -0.275 OA
ATOM     27  H   UNL     1       9.226   5.193   2.555  0.00  0.00    +0.157 HD
BRANCH  25  28
ATOM     28  C   UNL     1      11.645   6.090   3.056  0.00  0.00    +0.069 C 
ATOM     29  C   UNL     1      11.229   5.760   4.491  0.00  0.00    +0.017 C 
ATOM     30  C   UNL     1      13.168   6.216   2.982  0.00  0.00    +0.017 C 
ENDBRANCH  25  28
ENDBRANCH  18  19
ENDBRANCH   2  18
TORSDOF 7
