REMARK  Name = ZINC04217060
REMARK  14 active torsions:
REMARK  status: ('A' for Active; 'I' for Inactive)
REMARK    1  A    between atoms: C_1  and  C_2
REMARK    2  A    between atoms: C_2  and  N_66
REMARK    3  A    between atoms: C_6  and  C_8
REMARK    4  A    between atoms: C_8  and  N_9
REMARK    5  A    between atoms: N_9  and  C_10
REMARK    6  A    between atoms: N_9  and  C_25
REMARK    7  A    between atoms: C_10  and  C_11
REMARK    8  A    between atoms: C_16  and  C_24
REMARK    9  A    between atoms: C_17  and  C_23
REMARK   10  A    between atoms: C_25  and  N_27
REMARK   11  A    between atoms: N_27  and  C_28
REMARK   12  A    between atoms: C_28  and  C_29
REMARK   13  A    between atoms: C_29  and  C_30
REMARK   14  A    between atoms: C_29  and  C_31
REMARK                            x       y       z     vdW  Elec       q    Type
REMARK                         _______ _______ _______ _____ _____    ______ ____
ROOT
ATOM      1  N   UNL     1      -2.170  -0.599  -1.623  0.00  0.00    -0.310 N 
ENDROOT
BRANCH   1   2
ATOM      2  C   UNL     1      -3.300  -0.114  -2.174  0.00  0.00    +0.133 C 
ATOM      3  S   UNL     1      -4.777  -0.958  -1.979  0.00  0.00    -0.019 S 
BRANCH   2   4
ATOM      4  N   UNL     1      -3.269   1.035  -2.878  0.00  0.00    -0.326 N 
ATOM      5  H   UNL     1      -2.421   1.475  -3.050  0.00  0.00    +0.148 HD
BRANCH   4   6
ATOM      6  C   UNL     1      -4.513   1.619  -3.383  0.00  0.00    +0.106 C 
BRANCH   6   7
ATOM      7  C   UNL     1      -4.190   2.841  -4.245  0.00  0.00    -0.000 C 
ATOM      8  C   UNL     1      -3.417   2.397  -5.489  0.00  0.00    +0.009 C 
ATOM      9  C   UNL     1      -5.492   3.524  -4.671  0.00  0.00    +0.009 C 
ENDBRANCH   6   7
ENDBRANCH   4   6
ENDBRANCH   2   4
ENDBRANCH   1   2
BRANCH   1  10
ATOM     10  C   UNL     1      -0.887   0.058  -1.887  0.00  0.00    +0.092 C 
BRANCH  10  14
ATOM     11  C   UNL     1       1.412   1.999  -0.158  0.00  0.00    -0.078 C 
ATOM     12  C   UNL     1       0.505   1.760   1.075  0.00  0.00    -0.020 C 
ATOM     13  C   UNL     1      -0.545   0.771   0.504  0.00  0.00    -0.016 C 
ATOM     14  C   UNL     1      -0.726   1.257  -0.950  0.00  0.00    -0.051 C 
ATOM     15  N   UNL     1       0.480   2.030  -1.300  0.00  0.00    +0.382 N 
ATOM     16  H   UNL     1       0.215   3.003  -1.495  0.00  0.00    -0.081 HD
BRANCH  15  18
ATOM     17  C   UNL     1       2.330   2.309  -2.895  0.00  0.00    -0.017 C 
ATOM     18  C   UNL     1       1.124   1.451  -2.507  0.00  0.00    -0.082 C 
ENDBRANCH  15  18
ENDBRANCH  10  14
ENDBRANCH   1  10
BRANCH   1  19
ATOM     19  C   UNL     1      -2.224  -1.782  -0.761  0.00  0.00    +0.147 C 
BRANCH  19  20
ATOM     20  C   UNL     1      -2.444  -1.353   0.667  0.00  0.00    +0.035 A 
ATOM     21  C   UNL     1      -3.610  -0.758   1.022  0.00  0.00    +0.020 A 
ATOM     22  C   UNL     1      -3.792  -0.354   2.417  0.00  0.00    -0.001 A 
ATOM     23  C   UNL     1      -4.973   0.263   2.843  0.00  0.00    +0.010 A 
ATOM     24  C   UNL     1      -5.112   0.629   4.152  0.00  0.00    +0.004 A 
ATOM     25  C   UNL     1      -4.091   0.393   5.064  0.00  0.00    -0.046 A 
ATOM     26  C   UNL     1      -2.920  -0.213   4.666  0.00  0.00    -0.024 A 
ATOM     27  C   UNL     1      -2.755  -0.595   3.338  0.00  0.00    +0.052 A 
ATOM     28  N   UNL     1      -1.594  -1.204   2.914  0.00  0.00    -0.322 N 
ATOM     29  H   UNL     1      -0.857  -1.371   3.569  0.00  0.00    +0.169 HD
ATOM     30  C   UNL     1      -1.438  -1.577   1.631  0.00  0.00    +0.254 A 
ATOM     31  O   UNL     1      -0.399  -2.117   1.292  0.00  0.00    -0.268 OA
ATOM     32  C   UNL     1      -1.821  -0.464   5.667  0.00  0.00    +0.046 C 
ATOM     33  C   UNL     1      -4.267   0.806   6.502  0.00  0.00    +0.044 C 
ENDBRANCH  19  20
ENDBRANCH   1  19
TORSDOF 9
