REMARK  Name = ZINC39946795
REMARK  7 active torsions:
REMARK  status: ('A' for Active; 'I' for Inactive)
REMARK    1  A    between atoms: C_1  and  C_2
REMARK    2  A    between atoms: C_2  and  C_3
REMARK    3  A    between atoms: C_10  and  C_12
REMARK    4  A    between atoms: C_12  and  S_13
REMARK    5  A    between atoms: S_13  and  C_14
REMARK    6  A    between atoms: C_18  and  C_27
REMARK    7  A    between atoms: N_19  and  C_20
REMARK                            x       y       z     vdW  Elec       q    Type
REMARK                         _______ _______ _______ _____ _____    ______ ____
ROOT
ATOM      1  C   UNL     1      -2.119   2.118  -5.743  0.00  0.00    +0.241 C 
ATOM      2  N   UNL     1      -2.495   0.928  -6.523  0.00  0.00    -0.237 N 
ATOM      3  N   UNL     1      -3.870   1.030  -6.767  0.00  0.00    -0.169 NA
ATOM      4  C   UNL     1      -4.366   2.118  -6.239  0.00  0.00    +0.151 C 
ATOM      5  N   UNL     1      -3.378   2.865  -5.585  0.00  0.00    -0.254 N 
ATOM      6  H   UNL     1      -1.906   0.213  -6.812  0.00  0.00    +0.171 HD
ENDROOT
BRANCH   4   7
ATOM      7  C   UNL     1      -5.716   2.491  -6.319  0.00  0.00    +0.022 C 
ATOM      8  C   UNL     1      -6.728   1.851  -7.036  0.00  0.00    +0.006 A 
ATOM      9  C   UNL     1      -6.734   0.704  -7.858  0.00  0.00    +0.010 A 
ATOM     10  C   UNL     1      -7.891   0.300  -8.443  0.00  0.00    +0.001 A 
ATOM     11  C   UNL     1      -9.087   0.995  -8.253  0.00  0.00    +0.002 A 
ATOM     12  C   UNL     1      -9.155   2.104  -7.477  0.00  0.00    +0.026 A 
ATOM     13  C   UNL     1      -7.986   2.587  -6.832  0.00  0.00    +0.043 A 
ATOM     14  N   UNL     1      -7.791   3.623  -6.041  0.00  0.00    -0.380 N 
ATOM     15  C   UNL     1      -6.382   3.668  -5.641  0.00  0.00    +0.152 C 
ATOM     16  H   UNL     1      -8.474   4.255  -5.765  0.00  0.00    +0.160 HD
ENDBRANCH   4   7
BRANCH   5  17
ATOM     17  C   UNL     1      -3.552   4.079  -4.915  0.00  0.00    +0.038 A 
ATOM     18  C   UNL     1      -4.101   4.097  -3.639  0.00  0.00    +0.025 A 
ATOM     19  C   UNL     1      -4.271   5.298  -2.979  0.00  0.00    +0.022 A 
ATOM     20  C   UNL     1      -3.895   6.483  -3.588  0.00  0.00    +0.041 A 
ATOM     21  C   UNL     1      -3.349   6.468  -4.859  0.00  0.00    +0.022 A 
ATOM     22  C   UNL     1      -3.170   5.269  -5.521  0.00  0.00    +0.025 A 
ATOM     23 CL   UNL     1      -4.111   7.991  -2.755  0.00  0.00    -0.084 Cl
ENDBRANCH   5  17
BRANCH   1  24
ATOM     24  S   UNL     1      -1.463   1.634  -4.123  0.00  0.00    -0.108 S 
BRANCH  24  25
ATOM     25  C   UNL     1      -2.794   0.645  -3.387  0.00  0.00    +0.168 C 
BRANCH  25  32
ATOM     26  C   UNL     1      -2.848  -0.979   0.088  0.00  0.00    +0.076 C 
ATOM     27  C   UNL     1      -2.963  -2.501   0.211  0.00  0.00    +0.022 C 
ATOM     28  C   UNL     1      -4.364  -2.939  -0.221  0.00  0.00    +0.003 C 
ATOM     29  C   UNL     1      -4.592  -2.555  -1.684  0.00  0.00    +0.019 C 
ATOM     30  C   UNL     1      -4.495  -1.033  -1.829  0.00  0.00    +0.108 C 
ATOM     31  N   UNL     1      -3.208  -0.584  -1.280  0.00  0.00    -0.298 N 
ATOM     32  C   UNL     1      -2.372   0.173  -2.019  0.00  0.00    +0.226 C 
ATOM     33  O   UNL     1      -1.281   0.474  -1.584  0.00  0.00    -0.275 OA
BRANCH  26  35
ATOM     34  C   UNL     1      -1.036  -0.963   1.809  0.00  0.00    +0.006 C 
ATOM     35  C   UNL     1      -1.410  -0.547   0.385  0.00  0.00    +0.019 C 
ENDBRANCH  26  35
ENDBRANCH  25  32
ENDBRANCH  24  25
ENDBRANCH   1  24
TORSDOF 6
