REMARK  Name = ZINC67645000
REMARK  4 active torsions:
REMARK  status: ('A' for Active; 'I' for Inactive)
REMARK    1  A    between atoms: C_1  and  S_2
REMARK    2  A    between atoms: S_2  and  N_5
REMARK    3  A    between atoms: C_9  and  N_12
REMARK    4  A    between atoms: C_19  and  C_21
REMARK                            x       y       z     vdW  Elec       q    Type
REMARK                         _______ _______ _______ _____ _____    ______ ____
ROOT
ATOM      1  N   UNL     1       4.390  -1.810  -2.527  0.00  0.00    -0.295 N 
ATOM      2  C   UNL     1       4.787  -3.093  -2.421  0.00  0.00    +0.303 C 
ATOM      3  O   UNL     1       3.960  -3.981  -2.348  0.00  0.00    -0.253 OA
ATOM      4  N   UNL     1       6.101  -3.393  -2.396  0.00  0.00    -0.282 N 
ATOM      5  C   UNL     1       7.205  -2.431  -2.571  0.00  0.00    +0.110 C 
ATOM      6  C   UNL     1       8.418  -3.087  -1.865  0.00  0.00    +0.021 C 
ATOM      7  C   UNL     1       8.207  -4.585  -2.211  0.00  0.00    +0.024 C 
ATOM      8  C   UNL     1       6.671  -4.731  -2.182  0.00  0.00    +0.081 C 
ATOM      9  H   UNL     1       5.050  -1.101  -2.585  0.00  0.00    +0.151 HD
ENDROOT
BRANCH   1  14
ATOM     10  N   UNL     1       1.337   0.305  -2.220  0.00  0.00    -0.180 NA
ATOM     11  C   UNL     1       0.708   0.135  -3.536  0.00  0.00    +0.109 C 
ATOM     12  C   UNL     1       0.938  -1.304  -4.010  0.00  0.00    +0.019 C 
ATOM     13  C   UNL     1       2.437  -1.611  -3.986  0.00  0.00    +0.025 C 
ATOM     14  C   UNL     1       2.962  -1.484  -2.554  0.00  0.00    +0.090 C 
ATOM     15  C   UNL     1       2.756  -0.042  -2.065  0.00  0.00    +0.131 C 
BRANCH  10  17
ATOM     16  C   UNL     1       0.669   2.686  -1.010  0.00  0.00    +0.215 C 
ATOM     17  S   UNL     1       0.466   0.885  -0.936  0.00  0.00    +0.029 S 
ATOM     18  O   UNL     1       1.122   0.365   0.212  0.00  0.00    -0.158 OA
ATOM     19  O   UNL     1      -0.880   0.532  -1.223  0.00  0.00    -0.158 OA
ENDBRANCH  10  17
ENDBRANCH   1  14
BRANCH   8  20
ATOM     20  C   UNL     1       6.220  -5.673  -3.300  0.00  0.00    +0.010 C 
ATOM     21  C   UNL     1       6.867  -7.061  -3.115  0.00  0.00    +0.005 C 
ATOM     22  C   UNL     1       7.173  -7.533  -4.559  0.00  0.00    +0.000 C 
ATOM     23  C   UNL     1       7.622  -6.226  -5.258  0.00  0.00    +0.000 C 
ATOM     24  C   UNL     1       6.700  -5.142  -4.662  0.00  0.00    +0.005 C 
ENDBRANCH   8  20
TORSDOF 3
