REMARK  Name = ZINC20608385
REMARK  10 active torsions:
REMARK  status: ('A' for Active; 'I' for Inactive)
REMARK    1  A    between atoms: C_1  and  C_2
REMARK    2  A    between atoms: C_2  and  S_3
REMARK    3  A    between atoms: S_3  and  C_4
REMARK    4  A    between atoms: C_9  and  N_13
REMARK    5  A    between atoms: C_14  and  C_16
REMARK    6  A    between atoms: C_16  and  S_17
REMARK    7  A    between atoms: S_17  and  C_18
REMARK    8  A    between atoms: N_23  and  N_24
REMARK    9  A    between atoms: C_25  and  C_26
REMARK   10  A    between atoms: C_25  and  C_27
REMARK                            x       y       z     vdW  Elec       q    Type
REMARK                         _______ _______ _______ _____ _____    ______ ____
ROOT
ATOM      1  S   UNL     1      -3.984   2.121   0.711  0.00  0.00    -0.075 S 
ENDROOT
BRANCH   1   2
ATOM      2  C   UNL     1      -5.299   0.949   0.686  0.00  0.00    +0.211 A 
ATOM      3  N   UNL     1      -6.634   1.239   0.705  0.00  0.00    -0.186 NA
ATOM      4  C   UNL     1      -7.323   0.059   0.676  0.00  0.00    +0.232 A 
ATOM      5  N   UNL     1      -6.451  -0.919   0.640  0.00  0.00    -0.245 N 
ATOM      6  N   UNL     1      -5.169  -0.356   0.641  0.00  0.00    -0.144 NA
ATOM      7  N   UNL     1      -8.704  -0.079   0.682  0.00  0.00    -0.205 N 
ATOM      8  H   UNL     1      -9.346   0.814   0.713  0.00  0.00    +0.177 HD
ATOM      9  H   UNL     1      -6.797  -1.964   0.616  0.00  0.00    +0.192 HD
BRANCH   7  10
ATOM     10  N   UNL     1      -9.281  -1.356   0.648  0.00  0.00    -0.183 NA
ATOM     11  C   UNL     1     -10.570  -1.484   0.556  0.00  0.00    +0.081 C 
ATOM     12  C   UNL     1     -11.189  -2.857   0.503  0.00  0.00    +0.069 C 
BRANCH  11  13
ATOM     13  C   UNL     1     -11.428  -0.287   0.504  0.00  0.00    +0.086 A 
ATOM     14  C   UNL     1     -12.607  -0.245   1.252  0.00  0.00    +0.029 A 
ATOM     15  C   UNL     1     -13.401   0.885   1.191  0.00  0.00    +0.004 A 
ATOM     16  C   UNL     1     -12.992   1.941   0.386  0.00  0.00    +0.020 A 
ATOM     17  C   UNL     1     -11.813   1.834  -0.328  0.00  0.00    +0.111 A 
ATOM     18  N   UNL     1     -11.070   0.748  -0.250  0.00  0.00    -0.254 NA
ENDBRANCH  11  13
ENDBRANCH   7  10
ENDBRANCH   1   2
BRANCH   1  19
ATOM     19  C   UNL     1      -2.563   1.000   0.666  0.00  0.00    +0.173 C 
BRANCH  19  21
ATOM     20  N   UNL     1      -0.096   1.177   0.652  0.00  0.00    -0.285 N 
ATOM     21  C   UNL     1      -1.289   1.804   0.680  0.00  0.00    +0.227 C 
ATOM     22  O   UNL     1      -1.336   3.016   0.716  0.00  0.00    -0.275 OA
ATOM     23  H   UNL     1      -0.052   0.083   0.545  0.00  0.00    +0.155 HD
BRANCH  20  29
ATOM     24  C   UNL     1       4.550   5.403   0.453  0.00  0.00    +0.136 A 
ATOM     25  N   UNL     1       4.556   4.214   1.011  0.00  0.00    -0.233 NA
ATOM     26  C   UNL     1       3.482   3.393   0.984  0.00  0.00    +0.080 A 
ATOM     27  C   UNL     1       3.359   2.100   1.543  0.00  0.00    +0.031 A 
ATOM     28  C   UNL     1       2.191   1.393   1.427  0.00  0.00    +0.025 A 
ATOM     29  C   UNL     1       1.088   1.919   0.758  0.00  0.00    +0.035 A 
ATOM     30  C   UNL     1       1.178   3.184   0.194  0.00  0.00    +0.040 A 
ATOM     31  C   UNL     1       2.345   3.896   0.313  0.00  0.00    +0.042 A 
ATOM     32  S   UNL     1       2.898   5.497  -0.224  0.00  0.00    -0.061 S 
BRANCH  24  33
ATOM     33  S   UNL     1       5.841   6.599   0.386  0.00  0.00    -0.099 S 
BRANCH  33  35
ATOM     34  C   UNL     1       8.391   6.587   1.367  0.00  0.00    +0.016 C 
ATOM     35  C   UNL     1       7.135   5.717   1.294  0.00  0.00    +0.073 C 
ENDBRANCH  33  35
ENDBRANCH  24  33
ENDBRANCH  20  29
ENDBRANCH  19  21
ENDBRANCH   1  19
TORSDOF 8
