REMARK  Name = ZINC50358788
REMARK  7 active torsions:
REMARK  status: ('A' for Active; 'I' for Inactive)
REMARK    1  A    between atoms: C_1  and  N_2
REMARK    2  A    between atoms: N_5  and  C_8
REMARK    3  A    between atoms: C_8  and  C_9
REMARK    4  A    between atoms: C_9  and  C_10
REMARK    5  A    between atoms: C_10  and  N_11
REMARK    6  A    between atoms: N_11  and  C_12
REMARK    7  A    between atoms: C_12  and  C_13
REMARK                            x       y       z     vdW  Elec       q    Type
REMARK                         _______ _______ _______ _____ _____    ______ ____
ROOT
ATOM      1  C   UNL     1       2.459  -5.972   1.079  0.00  0.00    -0.081 C 
ENDROOT
BRANCH   1   2
ATOM      2  N   UNL     1       3.349  -6.423   2.157  0.00  0.00    +0.384 N 
ATOM      3  H   UNL     1       4.271  -6.038   2.015  0.00  0.00    -0.085 HD
ATOM      4  H   UNL     1       2.988  -6.110   3.046  0.00  0.00    -0.085 HD
BRANCH   2   5
ATOM      5  C   UNL     1       3.425  -7.890   2.148  0.00  0.00    -0.007 C 
BRANCH   5   6
ATOM      6  C   UNL     1       4.338  -8.353   3.254  0.00  0.00    +0.091 A 
ATOM      7  C   UNL     1       3.964  -8.647   4.512  0.00  0.00    +0.059 A 
ATOM      8  C   UNL     1       5.132  -9.036   5.207  0.00  0.00    +0.070 A 
ATOM      9  C   UNL     1       6.152  -8.957   4.331  0.00  0.00    +0.184 A 
ATOM     10  O   UNL     1       5.663  -8.547   3.148  0.00  0.00    -0.454 OA
ATOM     11 BR   UNL     1       7.962  -9.360   4.700  0.00  0.00    -0.007 Br
ATOM     12 BR   UNL     1       5.242  -9.566   7.019  0.00  0.00    -0.046 Br
ENDBRANCH   5   6
ENDBRANCH   2   5
ENDBRANCH   1   2
BRANCH   1  13
ATOM     13  C   UNL     1       2.381  -4.444   1.088  0.00  0.00    -0.004 C 
BRANCH  13  14
ATOM     14  C   UNL     1       1.453  -3.974  -0.034  0.00  0.00    +0.082 C 
BRANCH  14  19
ATOM     15  C   UNL     1      -0.018   1.465   0.010  0.00  0.00    -0.096 C 
ATOM     16  N   UNL     1       0.002  -0.004   0.002  0.00  0.00    +0.379 N 
ATOM     17  C   UNL     1       0.688  -0.477  -1.207  0.00  0.00    -0.064 C 
ATOM     18  C   UNL     1       0.693  -2.008  -1.226  0.00  0.00    +0.066 C 
ATOM     19  N   UNL     1       1.378  -2.507  -0.025  0.00  0.00    -0.306 NA
ATOM     20  C   UNL     1       0.717  -2.021   1.194  0.00  0.00    +0.066 C 
ATOM     21  C   UNL     1       0.713  -0.490   1.192  0.00  0.00    -0.064 C 
ATOM     22  H   UNL     1      -0.945  -0.353   0.010  0.00  0.00    -0.082 HD
ENDBRANCH  14  19
ENDBRANCH  13  14
ENDBRANCH   1  13
TORSDOF 6
