REMARK  Name = ZINC40723020
REMARK  6 active torsions:
REMARK  status: ('A' for Active; 'I' for Inactive)
REMARK    1  A    between atoms: C_4  and  N_7
REMARK    2  A    between atoms: N_7  and  C_8
REMARK    3  A    between atoms: N_7  and  N_14
REMARK    4  A    between atoms: C_16  and  N_29
REMARK    5  A    between atoms: C_17  and  S_21
REMARK    6  A    between atoms: S_21  and  C_22
REMARK                            x       y       z     vdW  Elec       q    Type
REMARK                         _______ _______ _______ _____ _____    ______ ____
ROOT
ATOM      1  N   UNL     1       4.817   0.078  -0.059  0.00  0.00    -0.242 N 
ATOM      2  C   UNL     1       5.549   0.250   1.109  0.00  0.00    +0.160 A 
ATOM      3  C   UNL     1       6.747   0.967   1.096  0.00  0.00    +0.099 A 
ATOM      4  C   UNL     1       7.443   1.110   2.298  0.00  0.00    +0.127 A 
ATOM      5  N   UNL     1       6.942   0.561   3.403  0.00  0.00    -0.227 NA
ATOM      6  C   UNL     1       5.807  -0.107   3.371  0.00  0.00    +0.224 A 
ATOM      7  N   UNL     1       5.117  -0.262   2.259  0.00  0.00    -0.218 NA
ATOM      8  H   UNL     1       5.139   0.454  -0.893  0.00  0.00    +0.172 HD
ENDROOT
BRANCH   3   9
ATOM      9  N   UNL     1       7.239   1.528  -0.094  0.00  0.00    -0.353 N 
ATOM     10  H   UNL     1       6.745   1.420  -0.921  0.00  0.00    +0.142 HD
ATOM     11  H   UNL     1       8.073   2.024  -0.088  0.00  0.00    +0.142 HD
ENDBRANCH   3   9
BRANCH   1  12
ATOM     12  N   UNL     1       3.613  -0.638  -0.033  0.00  0.00    -0.221 N 
BRANCH  12  16
ATOM     13  C   UNL     1      -0.019   1.386  -0.253  0.00  0.00    +0.000 A 
ATOM     14  C   UNL     1       0.958   1.817   0.625  0.00  0.00    +0.002 A 
ATOM     15  C   UNL     1       2.164   1.148   0.701  0.00  0.00    +0.025 A 
ATOM     16  C   UNL     1       2.394   0.041  -0.106  0.00  0.00    +0.053 A 
ATOM     17  C   UNL     1       1.410  -0.389  -0.987  0.00  0.00    +0.025 A 
ATOM     18  C   UNL     1       0.207   0.285  -1.058  0.00  0.00    +0.002 A 
ENDBRANCH  12  16
BRANCH  12  19
ATOM     19  C   UNL     1       3.632  -2.032   0.068  0.00  0.00    +0.053 A 
ATOM     20  C   UNL     1       4.705  -2.752  -0.441  0.00  0.00    +0.025 A 
ATOM     21  C   UNL     1       4.720  -4.129  -0.339  0.00  0.00    +0.002 A 
ATOM     22  C   UNL     1       3.669  -4.791   0.268  0.00  0.00    +0.000 A 
ATOM     23  C   UNL     1       2.599  -4.077   0.776  0.00  0.00    +0.002 A 
ATOM     24  C   UNL     1       2.579  -2.699   0.682  0.00  0.00    +0.025 A 
ENDBRANCH  12  19
ENDBRANCH   1  12
BRANCH   4  25
ATOM     25  S   UNL     1       8.962   2.002   2.352  0.00  0.00    -0.068 S 
BRANCH  25  26
ATOM     26  C   UNL     1       9.525   1.785   4.007  0.00  0.00    +0.014 A 
ATOM     27  C   UNL     1      10.263   0.658   4.348  0.00  0.00    +0.016 A 
ATOM     28  C   UNL     1      10.704   0.490   5.646  0.00  0.00    +0.021 A 
ATOM     29  C   UNL     1      10.410   1.443   6.607  0.00  0.00    +0.041 A 
ATOM     30  C   UNL     1       9.675   2.566   6.269  0.00  0.00    +0.021 A 
ATOM     31  C   UNL     1       9.238   2.742   4.972  0.00  0.00    +0.016 A 
ATOM     32 CL   UNL     1      10.965   1.228   8.238  0.00  0.00    -0.084 Cl
ENDBRANCH  25  26
ENDBRANCH   4  25
TORSDOF 6
