REMARK  Name = ZINC32144044
REMARK  8 active torsions:
REMARK  status: ('A' for Active; 'I' for Inactive)
REMARK    1  A    between atoms: C_1  and  C_2
REMARK    2  A    between atoms: C_2  and  C_3
REMARK    3  A    between atoms: C_3  and  C_5
REMARK    4  A    between atoms: C_3  and  N_6
REMARK    5  A    between atoms: C_7  and  C_9
REMARK    6  A    between atoms: C_18  and  S_21
REMARK    7  A    between atoms: S_21  and  N_24
REMARK    8  A    between atoms: N_24  and  C_25
REMARK                            x       y       z     vdW  Elec       q    Type
REMARK                         _______ _______ _______ _____ _____    ______ ____
ROOT
ATOM      1  C   UNL     1      -0.549   2.920  -3.354  0.00  0.00    +0.051 A 
ATOM      2  C   UNL     1       0.189   3.152  -4.479  0.00  0.00    +0.083 A 
ATOM      3  C   UNL     1      -0.425   3.842  -5.612  0.00  0.00    +0.250 A 
ATOM      4  O   UNL     1       0.231   4.045  -6.618  0.00  0.00    -0.268 OA
ATOM      5  N   UNL     1      -1.701   4.262  -5.558  0.00  0.00    -0.322 N 
ATOM      6  H   UNL     1      -2.145   4.784  -6.418  0.00  0.00    +0.169 HD
ATOM      7  C   UNL     1      -2.478   4.052  -4.438  0.00  0.00    +0.050 A 
ATOM      8  C   UNL     1      -1.944   3.387  -3.320  0.00  0.00    +0.012 A 
ATOM      9  C   UNL     1      -2.738   3.179  -2.189  0.00  0.00    +0.039 A 
ATOM     10  C   UNL     1      -4.031   3.621  -2.176  0.00  0.00    +0.109 A 
ATOM     11  C   UNL     1      -4.563   4.277  -3.277  0.00  0.00    +0.031 A 
ATOM     12  C   UNL     1      -3.798   4.494  -4.403  0.00  0.00    +0.028 A 
ENDROOT
BRANCH   1  14
ATOM     13  N   UNL     1       1.355   1.909  -2.186  0.00  0.00    -0.309 N 
ATOM     14  C   UNL     1       0.043   2.216  -2.191  0.00  0.00    +0.245 C 
ATOM     15  O   UNL     1      -0.654   1.918  -1.242  0.00  0.00    -0.270 OA
ATOM     16  H   UNL     1       1.969   2.103  -3.078  0.00  0.00    +0.149 HD
BRANCH  13  17
ATOM     17  C   UNL     1       1.964   1.315  -0.994  0.00  0.00    +0.070 C 
ATOM     18  C   UNL     1       2.372   2.424  -0.022  0.00  0.00    +0.028 C 
BRANCH  17  20
ATOM     19  C   UNL     1       2.780  -0.673  -2.270  0.00  0.00    +0.005 C 
ATOM     20  C   UNL     1       3.202   0.512  -1.399  0.00  0.00    +0.018 C 
ENDBRANCH  17  20
ENDBRANCH  13  17
ENDBRANCH   1  14
BRANCH  10  21
ATOM     21  S   UNL     1      -5.031   3.356  -0.750  0.00  0.00    +0.072 S 
ATOM     22  O   UNL     1      -6.373   3.262  -1.206  0.00  0.00    -0.150 OA
ATOM     23  O   UNL     1      -4.406   2.322  -0.002  0.00  0.00    -0.150 OA
BRANCH  21  24
ATOM     24  N   UNL     1      -4.940   4.728   0.174  0.00  0.00    -0.216 N 
ATOM     25  H   UNL     1      -5.843   5.329   0.356  0.00  0.00    +0.174 HD
BRANCH  24  26
ATOM     26  C   UNL     1      -3.715   5.123   0.721  0.00  0.00    +0.048 A 
ATOM     27  C   UNL     1      -2.901   4.189   1.349  0.00  0.00    +0.027 A 
ATOM     28  C   UNL     1      -1.690   4.580   1.884  0.00  0.00    +0.040 A 
ATOM     29  C   UNL     1      -1.292   5.904   1.805  0.00  0.00    +0.124 A 
ATOM     30  C   UNL     1      -2.104   6.838   1.184  0.00  0.00    +0.040 A 
ATOM     31  C   UNL     1      -3.314   6.450   0.643  0.00  0.00    +0.027 A 
ATOM     32  F   UNL     1      -0.108   6.286   2.334  0.00  0.00    -0.205 F 
ENDBRANCH  24  26
ENDBRANCH  21  24
ENDBRANCH  10  21
TORSDOF 6
