REMARK  Name = ZINC01794013
REMARK  8 active torsions:
REMARK  status: ('A' for Active; 'I' for Inactive)
REMARK    1  A    between atoms: C_1  and  C_2
REMARK    2  A    between atoms: C_2  and  C_3
REMARK    3  A    between atoms: C_8  and  C_23
REMARK    4  A    between atoms: C_12  and  C_15
REMARK    5  A    between atoms: C_13  and  O_14
REMARK    6  A    between atoms: C_15  and  N_60
REMARK    7  A    between atoms: C_19  and  C_21
REMARK    8  A    between atoms: C_19  and  C_22
REMARK                            x       y       z     vdW  Elec       q    Type
REMARK                         _______ _______ _______ _____ _____    ______ ____
ROOT
ATOM      1  C   UNL     1      -1.127  -2.108   0.001  0.00  0.00    -0.005 A 
ATOM      2  C   UNL     1      -1.181  -0.743   0.009  0.00  0.00    +0.022 A 
ATOM      3  C   UNL     1       0.002  -0.004   0.002  0.00  0.00    +0.065 A 
ATOM      4  C   UNL     1      -0.018   1.470   0.010  0.00  0.00    +0.202 A 
ATOM      5  O   UNL     1      -1.064   2.095   0.019  0.00  0.00    -0.286 OA
ATOM      6  C   UNL     1       1.290   2.151   0.001  0.00  0.00    +0.089 A 
ATOM      7  C   UNL     1       2.421   1.393  -0.013  0.00  0.00    +0.210 A 
ATOM      8  O   UNL     1       2.390   0.060  -0.020  0.00  0.00    -0.462 OA
ATOM      9  C   UNL     1       1.248  -0.655  -0.013  0.00  0.00    +0.143 A 
ATOM     10  C   UNL     1       1.285  -2.043  -0.021  0.00  0.00    +0.021 A 
ATOM     11  C   UNL     1       0.102  -2.764  -0.014  0.00  0.00    +0.125 A 
ENDROOT
BRANCH   6  12
ATOM     12  C   UNL     1       1.371   3.625   0.008  0.00  0.00    +0.116 A 
ATOM     13  N   UNL     1       2.440   4.393   0.002  0.00  0.00    -0.239 NA
ATOM     14  C   UNL     1       2.364   5.739   0.010  0.00  0.00    +0.079 A 
ATOM     15  C   UNL     1       3.426   6.674   0.004  0.00  0.00    +0.029 A 
ATOM     16  C   UNL     1       3.178   8.011   0.014  0.00  0.00    +0.002 A 
ATOM     17  C   UNL     1       1.883   8.512   0.029  0.00  0.00    +0.001 A 
ATOM     18  C   UNL     1       0.817   7.632   0.035  0.00  0.00    +0.017 A 
ATOM     19  C   UNL     1       1.057   6.280   0.025  0.00  0.00    +0.040 A 
ATOM     20  S   UNL     1       0.043   4.822   0.019  0.00  0.00    -0.067 S 
ENDBRANCH   6  12
BRANCH   1  22
ATOM     21  C   UNL     1      -2.756  -3.295   1.446  0.00  0.00    +0.009 C 
ATOM     22  C   UNL     1      -2.404  -2.909   0.008  0.00  0.00    +0.035 C 
ENDBRANCH   1  22
BRANCH  11  23
ATOM     23  O   UNL     1       0.141  -4.120  -0.022  0.00  0.00    -0.506 OA
ATOM     24  H   UNL     1       0.144  -4.509  -0.907  0.00  0.00    +0.292 HD
ENDBRANCH  11  23
BRANCH  10  25
ATOM     25  C   UNL     1       2.608  -2.764  -0.037  0.00  0.00    -0.036 C 
BRANCH  25  33
ATOM     26  C   UNL     1       2.850  -1.777  -2.235  0.00  0.00    -0.078 C 
ATOM     27  C   UNL     1       3.155  -2.090  -3.701  0.00  0.00    -0.018 C 
ATOM     28  C   UNL     1       4.593  -2.602  -3.821  0.00  0.00    +0.003 C 
ATOM     29  C   UNL     1       4.762  -3.838  -2.933  0.00  0.00    -0.050 C 
ATOM     30  C   UNL     1       4.410  -3.475  -1.489  0.00  0.00    -0.072 C 
ATOM     31  C   UNL     1       6.212  -4.321  -3.001  0.00  0.00    +0.009 C 
ATOM     32  C   UNL     1       3.829  -4.949  -3.422  0.00  0.00    +0.009 C 
ATOM     33  N   UNL     1       3.007  -3.013  -1.438  0.00  0.00    +0.383 N 
ATOM     34  H   UNL     1       2.401  -3.742  -1.833  0.00  0.00    -0.081 HD
ENDBRANCH  25  33
ENDBRANCH  10  25
TORSDOF 5
