REMARK  Name = ZINC27822783
REMARK  9 active torsions:
REMARK  status: ('A' for Active; 'I' for Inactive)
REMARK    1  A    between atoms: C_1  and  C_2
REMARK    2  A    between atoms: C_2  and  N_3
REMARK    3  A    between atoms: C_12  and  S_13
REMARK    4  A    between atoms: S_13  and  C_14
REMARK    5  A    between atoms: C_14  and  C_15
REMARK    6  A    between atoms: C_17  and  O_18
REMARK    7  A    between atoms: C_27  and  O_29
REMARK    8  A    between atoms: O_29  and  C_30
REMARK    9  A    between atoms: C_30  and  C_31
REMARK                            x       y       z     vdW  Elec       q    Type
REMARK                         _______ _______ _______ _____ _____    ______ ____
ROOT
ATOM      1  C   UNL     1       2.486   1.113   0.008  0.00  0.00    -0.020 A 
ATOM      2  C   UNL     1       3.609   1.856   0.187  0.00  0.00    +0.092 A 
ATOM      3  C   UNL     1       3.507   3.250   0.374  0.00  0.00    +0.285 A 
ATOM      4  O   UNL     1       2.319   3.875   0.381  0.00  0.00    -0.425 OA
ATOM      5  C   UNL     1       1.164   3.196   0.208  0.00  0.00    +0.141 A 
ATOM      6  C   UNL     1       1.193   1.802   0.016  0.00  0.00    +0.022 A 
ATOM      7  C   UNL     1      -0.001   1.094  -0.165  0.00  0.00    +0.013 A 
ATOM      8  C   UNL     1      -1.192   1.760  -0.159  0.00  0.00    +0.024 A 
ATOM      9  C   UNL     1      -1.228   3.141   0.037  0.00  0.00    +0.040 A 
ATOM     10  C   UNL     1      -0.054   3.857   0.217  0.00  0.00    +0.070 A 
ATOM     11  N   UNL     1      -2.454   3.807   0.045  0.00  0.00    -0.251 N 
ATOM     12  C   UNL     1      -2.543   5.061  -0.441  0.00  0.00    +0.405 C 
ATOM     13  O   UNL     1      -1.580   5.575  -0.975  0.00  0.00    -0.226 OA
ATOM     14  H   UNL     1      -3.348   3.309   0.449  0.00  0.00    +0.158 HD
ENDROOT
BRANCH   3  15
ATOM     15  O   UNL     1       4.522   3.903   0.534  0.00  0.00    -0.480 OA
ATOM     16  H   UNL     1       4.458   4.991   0.682  0.00  0.00    +0.295 HD
ENDBRANCH   3  15
BRANCH   1  17
ATOM     17  C   UNL     1       2.567  -0.378  -0.194  0.00  0.00    +0.113 C 
BRANCH  17  18
ATOM     18  S   UNL     1       2.715  -0.740  -1.961  0.00  0.00    -0.083 S 
BRANCH  18  28
ATOM     19  N   UNL     1       2.902  -3.184  -3.084  0.00  0.00    -0.287 N 
ATOM     20  C   UNL     1       2.966  -4.537  -3.058  0.00  0.00    +0.269 A 
ATOM     21  O   UNL     1       3.071  -5.178  -4.090  0.00  0.00    -0.266 OA
ATOM     22  C   UNL     1       2.903  -5.176  -1.823  0.00  0.00    +0.102 A 
ATOM     23  C   UNL     1       2.781  -4.452  -0.624  0.00  0.00    +0.086 A 
ATOM     24  C   UNL     1       2.729  -5.224   0.545  0.00  0.00    +0.036 A 
ATOM     25  C   UNL     1       2.795  -6.571   0.473  0.00  0.00    +0.048 A 
ATOM     26  S   UNL     1       2.938  -6.865  -1.281  0.00  0.00    -0.090 S 
ATOM     27  N   UNL     1       2.729  -3.092  -0.746  0.00  0.00    -0.223 NA
ATOM     28  C   UNL     1       2.789  -2.499  -1.908  0.00  0.00    +0.172 A 
BRANCH  19  30
ATOM     29  C   UNL     1       4.416  -2.149  -4.702  0.00  0.00    +0.027 C 
ATOM     30  C   UNL     1       2.959  -2.464  -4.359  0.00  0.00    +0.124 C 
ENDBRANCH  19  30
ENDBRANCH  18  28
ENDBRANCH  17  18
ENDBRANCH   1  17
BRANCH  12  31
ATOM     31  O   UNL     1      -3.699   5.743  -0.336  0.00  0.00    -0.450 OA
BRANCH  31  32
ATOM     32  C   UNL     1      -3.722   7.088  -0.882  0.00  0.00    +0.230 C 
ATOM     33  C   UNL     1      -5.108   7.701  -0.671  0.00  0.00    +0.048 C 
ENDBRANCH  31  32
ENDBRANCH  12  31
TORSDOF 7
