REMARK  Name = ZINC22851929
REMARK  7 active torsions:
REMARK  status: ('A' for Active; 'I' for Inactive)
REMARK    1  A    between atoms: C_1  and  N_2
REMARK    2  A    between atoms: N_2  and  C_3
REMARK    3  A    between atoms: N_2  and  C_16
REMARK    4  A    between atoms: C_3  and  C_4
REMARK    5  A    between atoms: C_7  and  N_10
REMARK    6  A    between atoms: N_21  and  C_23
REMARK    7  A    between atoms: C_23  and  C_24
REMARK                            x       y       z     vdW  Elec       q    Type
REMARK                         _______ _______ _______ _____ _____    ______ ____
ROOT
ATOM      1  C   UNL     1       3.472   3.480  -1.208  0.00  0.00    +0.105 C 
ATOM      2  N   UNL     1       2.654   4.078  -0.145  0.00  0.00    -0.300 NA
ENDROOT
BRANCH   2   3
ATOM      3  C   UNL     1       1.292   3.528  -0.156  0.00  0.00    +0.040 C 
ATOM      4  C   UNL     1       0.502   4.096   1.027  0.00  0.00    +0.015 C 
ATOM      5  C   UNL     1      -0.896   3.473   1.042  0.00  0.00    -0.017 C 
ATOM      6  C   UNL     1      -0.770   1.950   1.127  0.00  0.00    -0.078 C 
ATOM      7  N   UNL     1      -0.007   1.456  -0.026  0.00  0.00    +0.383 N 
ATOM      8  C   UNL     1       1.355   2.004  -0.036  0.00  0.00    -0.059 C 
ATOM      9  H   UNL     1      -0.515   1.804  -0.938  0.00  0.00    -0.081 HD
BRANCH   7  10
ATOM     10  C   UNL     1       0.016  -0.013  -0.052  0.00  0.00    -0.040 C 
BRANCH  10  11
ATOM     11  C   UNL     1      -1.372  -0.542   0.205  0.00  0.00    -0.029 A 
ATOM     12  C   UNL     1      -2.119  -1.058  -0.837  0.00  0.00    +0.004 A 
ATOM     13  C   UNL     1      -3.392  -1.543  -0.601  0.00  0.00    +0.000 A 
ATOM     14  C   UNL     1      -3.918  -1.514   0.677  0.00  0.00    +0.003 A 
ATOM     15  C   UNL     1      -3.172  -0.999   1.721  0.00  0.00    +0.038 A 
ATOM     16  C   UNL     1      -1.896  -0.516   1.486  0.00  0.00    +0.125 A 
ATOM     17  F   UNL     1      -1.164  -0.017   2.506  0.00  0.00    -0.205 F 
ENDBRANCH  10  11
ENDBRANCH   7  10
ENDBRANCH   2   3
BRANCH   2  18
ATOM     18  C   UNL     1       2.632   5.542  -0.258  0.00  0.00    +0.119 C 
BRANCH  18  19
ATOM     19  C   UNL     1       4.013   6.087   0.002  0.00  0.00    -0.033 A 
ATOM     20  C   UNL     1       4.389   6.428   1.288  0.00  0.00    +0.007 A 
ATOM     21  C   UNL     1       5.656   6.923   1.530  0.00  0.00    +0.024 A 
ATOM     22  C   UNL     1       6.548   7.088   0.479  0.00  0.00    +0.038 A 
ATOM     23  C   UNL     1       6.165   6.749  -0.812  0.00  0.00    +0.024 A 
ATOM     24  C   UNL     1       4.899   6.250  -1.047  0.00  0.00    +0.007 A 
BRANCH  22  25
ATOM     25  N   UNL     1       7.830   7.595   0.721  0.00  0.00    -0.254 N 
ATOM     26  C   UNL     1       8.904   7.705  -0.278  0.00  0.00    +0.134 C 
ATOM     27  C   UNL     1      10.079   8.318   0.510  0.00  0.00    +0.125 C 
ATOM     28  N   UNL     1       9.541   8.487   1.869  0.00  0.00    -0.297 N 
ATOM     29  C   UNL     1       8.272   8.061   1.896  0.00  0.00    +0.307 C 
ATOM     30  O   UNL     1       7.584   8.091   2.898  0.00  0.00    -0.252 OA
ATOM     31  H   UNL     1      10.176   8.909   2.662  0.00  0.00    +0.150 HD
ENDBRANCH  22  25
ENDBRANCH  18  19
ENDBRANCH   2  18
TORSDOF 6
