REMARK  Name = ZINC08612743
REMARK  7 active torsions:
REMARK  status: ('A' for Active; 'I' for Inactive)
REMARK    1  A    between atoms: C_1  and  C_2
REMARK    2  A    between atoms: C_5  and  N_9
REMARK    3  A    between atoms: C_10  and  C_25
REMARK    4  A    between atoms: C_14  and  O_23
REMARK    5  A    between atoms: C_15  and  O_21
REMARK    6  A    between atoms: O_21  and  C_22
REMARK    7  A    between atoms: O_23  and  C_24
REMARK                            x       y       z     vdW  Elec       q    Type
REMARK                         _______ _______ _______ _____ _____    ______ ____
ROOT
ATOM      1  N   UNL     1       0.057  -4.171  -0.023  0.00  0.00    -0.259 N 
ATOM      2  C   UNL     1       0.178  -4.865   1.247  0.00  0.00    +0.142 C 
ATOM      3  C   UNL     1      -0.337  -6.275   1.170  0.00  0.00    -0.015 A 
ATOM      4  C   UNL     1      -0.714  -6.909   2.346  0.00  0.00    +0.055 A 
ATOM      5  C   UNL     1      -1.193  -8.207   2.319  0.00  0.00    +0.162 A 
ATOM      6  C   UNL     1      -1.296  -8.880   1.105  0.00  0.00    +0.162 A 
ATOM      7  C   UNL     1      -0.919  -8.244  -0.064  0.00  0.00    +0.053 A 
ATOM      8  C   UNL     1      -0.440  -6.942  -0.032  0.00  0.00    -0.030 A 
ATOM      9  C   UNL     1      -0.044  -6.288  -1.327  0.00  0.00    +0.132 C 
ATOM     10  C   UNL     1      -0.043  -4.796  -1.198  0.00  0.00    +0.225 C 
ATOM     11  O   UNL     1      -0.134  -4.126  -2.205  0.00  0.00    -0.275 OA
ENDROOT
BRANCH   1  16
ATOM     12  C   UNL     1      -0.011   1.503   0.012  0.00  0.00    +0.047 C 
ATOM     13  C   UNL     1       0.006  -0.004   0.003  0.00  0.00    -0.015 A 
ATOM     14  C   UNL     1       1.191  -0.679  -0.227  0.00  0.00    +0.008 A 
ATOM     15  C   UNL     1       1.211  -2.060  -0.236  0.00  0.00    +0.024 A 
ATOM     16  C   UNL     1       0.039  -2.772  -0.014  0.00  0.00    +0.040 A 
ATOM     17  C   UNL     1      -1.149  -2.094   0.218  0.00  0.00    +0.062 A 
ATOM     18  C   UNL     1      -1.163  -0.710   0.231  0.00  0.00    +0.128 A 
ATOM     19  F   UNL     1      -2.318  -0.048   0.462  0.00  0.00    -0.205 F 
ENDBRANCH   1  16
BRANCH   2  20
ATOM     20  C   UNL     1       1.630  -4.897   1.652  0.00  0.00    -0.022 A 
ATOM     21  C   UNL     1       2.608  -5.117   0.700  0.00  0.00    +0.007 A 
ATOM     22  C   UNL     1       3.939  -5.146   1.070  0.00  0.00    +0.020 A 
ATOM     23  C   UNL     1       4.293  -4.956   2.394  0.00  0.00    +0.041 A 
ATOM     24  C   UNL     1       3.313  -4.737   3.346  0.00  0.00    +0.020 A 
ATOM     25  C   UNL     1       1.983  -4.702   2.974  0.00  0.00    +0.007 A 
ATOM     26 CL   UNL     1       5.965  -4.994   2.860  0.00  0.00    -0.084 Cl
ENDBRANCH   2  20
BRANCH   6  27
ATOM     27  O   UNL     1      -1.764 -10.156   1.069  0.00  0.00    -0.491 OA
ATOM     28  C   UNL     1      -1.842 -10.782  -0.213  0.00  0.00    +0.277 C 
ENDBRANCH   6  27
BRANCH   5  29
ATOM     29  O   UNL     1      -1.560  -8.822   3.475  0.00  0.00    -0.491 OA
ATOM     30  C   UNL     1      -1.426  -8.070   4.682  0.00  0.00    +0.277 C 
ENDBRANCH   5  29
TORSDOF 4
