REMARK  Name = ZINC02443939
REMARK  8 active torsions:
REMARK  status: ('A' for Active; 'I' for Inactive)
REMARK    1  A    between atoms: C_1  and  C_2
REMARK    2  A    between atoms: C_5  and  C_8
REMARK    3  A    between atoms: N_12  and  C_16
REMARK    4  A    between atoms: C_16  and  C_17
REMARK    5  A    between atoms: C_17  and  C_18
REMARK    6  A    between atoms: N_20  and  N_21
REMARK    7  A    between atoms: N_21  and  S_22
REMARK    8  A    between atoms: S_22  and  C_25
REMARK                            x       y       z     vdW  Elec       q    Type
REMARK                         _______ _______ _______ _____ _____    ______ ____
ROOT
ATOM      1  C   UNL     1       6.052   1.759  -4.580  0.00  0.00    +0.124 C 
ENDROOT
BRANCH   1   6
ATOM      2  C   UNL     1       7.038   3.763  -9.010  0.00  0.00    +0.028 C 
ATOM      3  C   UNL     1       7.039   3.657  -7.658  0.00  0.00    +0.077 C 
ATOM      4  C   UNL     1       6.458   2.606  -6.795  0.00  0.00    +0.258 C 
ATOM      5  O   UNL     1       5.871   1.648  -7.261  0.00  0.00    -0.269 OA
ATOM      6  N   UNL     1       6.607   2.764  -5.490  0.00  0.00    -0.255 N 
ATOM      7  C   UNL     1       7.264   3.824  -4.979  0.00  0.00    +0.121 C 
ATOM      8  S   UNL     1       7.563   4.197  -3.335  0.00  0.00    -0.027 S 
ATOM      9  S   UNL     1       7.746   4.746  -6.430  0.00  0.00    -0.061 S 
BRANCH   2  14
ATOM     10  C   UNL     1       5.129  -0.595 -12.235  0.00  0.00    +0.044 C 
ATOM     11  C   UNL     1       5.629   0.548 -11.389  0.00  0.00    -0.050 A 
ATOM     12  C   UNL     1       5.341   1.852 -11.754  0.00  0.00    +0.004 A 
ATOM     13  C   UNL     1       5.796   2.903 -10.986  0.00  0.00    +0.008 A 
ATOM     14  C   UNL     1       6.549   2.648  -9.835  0.00  0.00    -0.024 A 
ATOM     15  C   UNL     1       6.840   1.327  -9.476  0.00  0.00    +0.008 A 
ATOM     16  C   UNL     1       6.374   0.288 -10.252  0.00  0.00    +0.004 A 
ENDBRANCH   2  14
ENDBRANCH   1   6
BRANCH   1  17
ATOM     17  C   UNL     1       4.620   2.147  -4.205  0.00  0.00    +0.116 C 
BRANCH  17  18
ATOM     18  C   UNL     1       4.048   1.114  -3.269  0.00  0.00    +0.229 C 
ATOM     19  O   UNL     1       4.720   0.161  -2.935  0.00  0.00    -0.274 OA
ATOM     20  N   UNL     1       2.791   1.248  -2.803  0.00  0.00    -0.232 N 
ATOM     21  H   UNL     1       2.253   2.011  -3.071  0.00  0.00    +0.171 HD
BRANCH  20  22
ATOM     22  N   UNL     1       2.259   0.288  -1.933  0.00  0.00    -0.108 NA
ATOM     23  H   UNL     1       2.251  -0.648  -2.190  0.00  0.00    +0.172 HD
BRANCH  22  24
ATOM     24  S   UNL     1       1.645   0.749  -0.466  0.00  0.00    +0.074 S 
ATOM     25  O   UNL     1       2.664   1.494   0.185  0.00  0.00    -0.152 OA
ATOM     26  O   UNL     1       1.060  -0.410   0.112  0.00  0.00    -0.152 OA
BRANCH  24  27
ATOM     27  C   UNL     1       0.326   1.874  -0.784  0.00  0.00    +0.107 A 
ATOM     28  C   UNL     1      -0.963   1.400  -0.945  0.00  0.00    +0.028 A 
ATOM     29  C   UNL     1      -1.998   2.282  -1.195  0.00  0.00    +0.002 A 
ATOM     30  C   UNL     1      -1.743   3.638  -1.284  0.00  0.00    +0.000 A 
ATOM     31  C   UNL     1      -0.455   4.112  -1.124  0.00  0.00    +0.002 A 
ATOM     32  C   UNL     1       0.580   3.229  -0.874  0.00  0.00    +0.028 A 
ENDBRANCH  24  27
ENDBRANCH  22  24
ENDBRANCH  20  22
ENDBRANCH  17  18
ENDBRANCH   1  17
TORSDOF 7
