REMARK  Name = ZINC00400150
REMARK  5 active torsions:
REMARK  status: ('A' for Active; 'I' for Inactive)
REMARK    1  A    between atoms: C_1  and  C_2
REMARK    2  A    between atoms: C_2  and  C_3
REMARK    3  A    between atoms: C_2  and  C_4
REMARK    4  A    between atoms: C_6  and  O_11
REMARK    5  A    between atoms: C_9  and  O_10
REMARK                            x       y       z     vdW  Elec       q    Type
REMARK                         _______ _______ _______ _____ _____    ______ ____
ROOT
ATOM      1  C   UNL     1      -1.412  -0.526   0.013  0.00  0.00    +0.000 A 
ATOM      2  C   UNL     1      -2.259  -0.204   1.056  0.00  0.00    +0.052 A 
ATOM      3  C   UNL     1      -3.560  -0.684   1.065  0.00  0.00    +0.117 A 
ATOM      4  C   UNL     1      -4.011  -1.486   0.028  0.00  0.00    +0.049 A 
ATOM      5  C   UNL     1      -3.164  -1.808  -1.015  0.00  0.00    +0.049 A 
ATOM      6  C   UNL     1      -1.864  -1.323  -1.027  0.00  0.00    +0.120 A 
ENDROOT
BRANCH   1   8
ATOM      7  C   UNL     1      -0.019   1.526   0.010  0.00  0.00    +0.012 C 
ATOM      8  C   UNL     1       0.002  -0.004   0.002  0.00  0.00    +0.017 C 
ATOM      9  C   UNL     1       0.742  -0.511   1.242  0.00  0.00    +0.012 C 
ENDBRANCH   1   8
BRANCH   6  10
ATOM     10  O   UNL     1      -1.032  -1.635  -2.057  0.00  0.00    -0.506 OA
ATOM     11  H   UNL     1      -0.523  -2.445  -1.919  0.00  0.00    +0.292 HD
ENDBRANCH   6  10
BRANCH   3  12
ATOM     12  O   UNL     1      -4.393  -0.368   2.092  0.00  0.00    -0.507 OA
ATOM     13  H   UNL     1      -4.902   0.442   1.951  0.00  0.00    +0.292 HD
ENDBRANCH   3  12
TORSDOF 3
