REMARK  Name = ZINC12532611
REMARK  10 active torsions:
REMARK  status: ('A' for Active; 'I' for Inactive)
REMARK    1  A    between atoms: C_1  and  O_2
REMARK    2  A    between atoms: O_2  and  C_3
REMARK    3  A    between atoms: C_6  and  N_9
REMARK    4  A    between atoms: N_9  and  S_10
REMARK    5  A    between atoms: S_10  and  C_13
REMARK    6  A    between atoms: C_16  and  N_22
REMARK    7  A    between atoms: C_17  and  N_19
REMARK    8  A    between atoms: N_22  and  N_23
REMARK    9  A    between atoms: C_24  and  C_25
REMARK   10  A    between atoms: C_34  and  O_35
REMARK                            x       y       z     vdW  Elec       q    Type
REMARK                         _______ _______ _______ _____ _____    ______ ____
ROOT
ATOM      1  C   UNL     1       1.740  -5.318   3.799  0.00  0.00    +0.111 A 
ATOM      2  C   UNL     1       0.858  -5.082   2.756  0.00  0.00    +0.031 A 
ATOM      3  C   UNL     1       0.945  -5.821   1.596  0.00  0.00    +0.029 A 
ATOM      4  C   UNL     1       1.926  -6.809   1.473  0.00  0.00    +0.079 A 
ATOM      5  C   UNL     1       2.812  -7.042   2.527  0.00  0.00    +0.150 A 
ATOM      6  C   UNL     1       2.717  -6.292   3.681  0.00  0.00    +0.063 A 
ENDROOT
BRANCH   1   7
ATOM      7  S   UNL     1       1.621  -4.370   5.279  0.00  0.00    +0.072 S 
ATOM      8  O   UNL     1       2.325  -5.091   6.281  0.00  0.00    -0.150 OA
ATOM      9  O   UNL     1       0.255  -4.006   5.420  0.00  0.00    -0.150 OA
BRANCH   7  10
ATOM     10  N   UNL     1       2.462  -2.965   5.029  0.00  0.00    -0.216 N 
ATOM     11  H   UNL     1       2.000  -2.113   5.050  0.00  0.00    +0.174 HD
BRANCH  10  15
ATOM     12  C   UNL     1       6.566  -3.091   4.310  0.00  0.00    +0.120 A 
ATOM     13  C   UNL     1       5.747  -2.302   3.516  0.00  0.00    +0.047 A 
ATOM     14  C   UNL     1       4.387  -2.260   3.753  0.00  0.00    +0.028 A 
ATOM     15  C   UNL     1       3.840  -3.008   4.788  0.00  0.00    +0.048 A 
ATOM     16  C   UNL     1       4.660  -3.797   5.582  0.00  0.00    +0.028 A 
ATOM     17  C   UNL     1       6.019  -3.843   5.340  0.00  0.00    +0.047 A 
BRANCH  12  19
ATOM     18  C   UNL     1       8.400  -2.333   2.999  0.00  0.00    +0.277 C 
ATOM     19  O   UNL     1       7.905  -3.132   4.076  0.00  0.00    -0.495 OA
ENDBRANCH  12  19
ENDBRANCH  10  15
ENDBRANCH   7  10
ENDBRANCH   1   7
BRANCH   5  20
ATOM     20  N   UNL     1       3.853  -8.086   2.405  0.00  0.00    +0.058 N 
ATOM     21  O   UNL     1       3.579  -9.221   1.794  0.00  0.00    -0.126 OA
ATOM     22  O   UNL     1       5.053  -7.882   2.907  0.00  0.00    -0.126 OA
ENDBRANCH   5  20
BRANCH   4  23
ATOM     23  N   UNL     1       2.018  -7.552   0.315  0.00  0.00    -0.236 N 
ATOM     24  H   UNL     1       2.742  -8.187   0.202  0.00  0.00    +0.174 HD
BRANCH  23  25
ATOM     25  N   UNL     1       1.141  -7.402  -0.619  0.00  0.00    -0.190 NA
ATOM     26  C   UNL     1       1.230  -8.123  -1.743  0.00  0.00    +0.142 C 
BRANCH  26  27
ATOM     27  C   UNL     1       0.286  -7.962  -2.748  0.00  0.00    +0.044 A 
ATOM     28  C   UNL     1       0.359  -8.749  -3.992  0.00  0.00    -0.006 A 
ATOM     29  C   UNL     1       1.376  -9.676  -4.196  0.00  0.00    +0.009 A 
ATOM     30  C   UNL     1       1.419 -10.402  -5.377  0.00  0.00    +0.001 A 
ATOM     31  C   UNL     1       0.458 -10.210  -6.354  0.00  0.00    +0.001 A 
ATOM     32  C   UNL     1      -0.562  -9.294  -6.171  0.00  0.00    +0.008 A 
ATOM     33  C   UNL     1      -0.625  -8.550  -4.986  0.00  0.00    -0.017 A 
ATOM     34  C   UNL     1      -1.661  -7.609  -4.781  0.00  0.00    +0.012 A 
ATOM     35  C   UNL     1      -1.748  -6.865  -3.629  0.00  0.00    +0.046 A 
ATOM     36  C   UNL     1      -0.826  -7.002  -2.600  0.00  0.00    +0.126 A 
BRANCH  36  37
ATOM     37  O   UNL     1      -0.943  -6.261  -1.479  0.00  0.00    -0.506 OA
ATOM     38  H   UNL     1      -0.479  -5.413  -1.518  0.00  0.00    +0.292 HD
ENDBRANCH  36  37
ENDBRANCH  26  27
ENDBRANCH  23  25
ENDBRANCH   4  23
TORSDOF 9
