REMARK  Name = ZINC63531490
REMARK  11 active torsions:
REMARK  status: ('A' for Active; 'I' for Inactive)
REMARK    1  A    between atoms: C_1  and  C_2
REMARK    2  A    between atoms: C_7  and  C_36
REMARK    3  A    between atoms: N_9  and  C_10
REMARK    4  A    between atoms: C_10  and  C_11
REMARK    5  A    between atoms: C_11  and  C_12
REMARK    6  A    between atoms: C_12  and  N_13
REMARK    7  A    between atoms: C_14  and  C_16
REMARK    8  A    between atoms: C_18  and  S_28
REMARK    9  A    between atoms: C_22  and  O_26
REMARK   10  A    between atoms: O_26  and  C_27
REMARK   11  A    between atoms: S_28  and  C_29
REMARK                            x       y       z     vdW  Elec       q    Type
REMARK                         _______ _______ _______ _____ _____    ______ ____
ROOT
ATOM      1  C   UNL     1       6.226  -0.949   5.722  0.00  0.00    +0.204 C 
ATOM      2  C   UNL     1       5.681  -0.584   7.084  0.00  0.00    +0.030 C 
ATOM      3  C   UNL     1       6.782  -0.204   7.841  0.00  0.00    +0.010 A 
ATOM      4  C   UNL     1       6.912   0.237   9.178  0.00  0.00    +0.014 A 
ATOM      5  C   UNL     1       8.137   0.548   9.669  0.00  0.00    +0.046 A 
ATOM      6  C   UNL     1       9.291   0.442   8.880  0.00  0.00    +0.122 A 
ATOM      7  C   UNL     1       9.235   0.022   7.584  0.00  0.00    +0.071 A 
ATOM      8  C   UNL     1       7.990  -0.318   7.008  0.00  0.00    +0.048 A 
ATOM      9  N   UNL     1       7.676  -0.745   5.795  0.00  0.00    -0.369 N 
ATOM     10  H   UNL     1       8.303  -0.898   5.071  0.00  0.00    +0.161 HD
ENDROOT
BRANCH   1  12
ATOM     11  N   UNL     1       4.399  -0.315   4.179  0.00  0.00    -0.313 N 
ATOM     12  C   UNL     1       5.628  -0.054   4.667  0.00  0.00    +0.240 C 
ATOM     13  O   UNL     1       6.253   0.901   4.257  0.00  0.00    -0.273 OA
ATOM     14  H   UNL     1       3.899  -1.079   4.507  0.00  0.00    +0.149 HD
BRANCH  11  15
ATOM     15  C   UNL     1       3.818   0.555   3.154  0.00  0.00    +0.102 C 
BRANCH  15  16
ATOM     16  C   UNL     1       2.427   0.042   2.777  0.00  0.00    +0.000 C 
BRANCH  16  17
ATOM     17  C   UNL     1       1.821   0.951   1.706  0.00  0.00    -0.077 C 
BRANCH  17  24
ATOM     18  C   UNL     1       1.152  -0.853  -0.434  0.00  0.00    -0.013 C 
ATOM     19  C   UNL     1       0.420  -0.825   0.910  0.00  0.00    -0.071 C 
ATOM     20  C   UNL     1      -1.026  -1.284   0.712  0.00  0.00    -0.016 C 
ATOM     21  C   UNL     1      -1.725  -0.341  -0.271  0.00  0.00    -0.003 C 
ATOM     22  C   UNL     1      -1.639   1.092   0.262  0.00  0.00    -0.016 C 
ATOM     23  C   UNL     1      -0.171   1.463   0.476  0.00  0.00    -0.071 C 
ATOM     24  N   UNL     1       0.434   0.542   1.445  0.00  0.00    +0.383 N 
ATOM     25  C   UNL     1      -0.080   2.894   1.009  0.00  0.00    -0.013 C 
ATOM     26  H   UNL     1      -0.090   0.570   2.307  0.00  0.00    -0.081 HD
ENDBRANCH  17  24
ENDBRANCH  16  17
ENDBRANCH  15  16
ENDBRANCH  11  15
ENDBRANCH   1  12
BRANCH   6  27
ATOM     27  O   UNL     1      10.493   0.765   9.419  0.00  0.00    -0.495 OA
ATOM     28  C   UNL     1      10.497   1.200  10.780  0.00  0.00    +0.277 C 
ENDBRANCH   6  27
BRANCH   2  29
ATOM     29  S   UNL     1       4.096  -0.626   7.574  0.00  0.00    -0.091 S 
BRANCH  29  30
ATOM     30  C   UNL     1       3.714  -2.345   7.636  0.00  0.00    +0.013 A 
ATOM     31  C   UNL     1       4.716  -3.288   7.439  0.00  0.00    +0.016 A 
ATOM     32  C   UNL     1       4.414  -4.634   7.489  0.00  0.00    +0.021 A 
ATOM     33  C   UNL     1       3.115  -5.045   7.735  0.00  0.00    +0.041 A 
ATOM     34  C   UNL     1       2.116  -4.109   7.931  0.00  0.00    +0.021 A 
ATOM     35  C   UNL     1       2.413  -2.761   7.889  0.00  0.00    +0.016 A 
ATOM     36 CL   UNL     1       2.740  -6.739   7.796  0.00  0.00    -0.084 Cl
ENDBRANCH  29  30
ENDBRANCH   2  29
TORSDOF 8
