REMARK  Name = ZINC66592896
REMARK  9 active torsions:
REMARK  status: ('A' for Active; 'I' for Inactive)
REMARK    1  A    between atoms: C_1  and  C_2
REMARK    2  A    between atoms: C_2  and  C_3
REMARK    3  A    between atoms: C_2  and  C_4
REMARK    4  A    between atoms: C_2  and  N_28
REMARK    5  A    between atoms: C_4  and  N_5
REMARK    6  A    between atoms: C_6  and  C_8
REMARK    7  A    between atoms: C_20  and  C_22
REMARK    8  A    between atoms: N_28  and  C_29
REMARK    9  A    between atoms: N_28  and  C_30
REMARK                            x       y       z     vdW  Elec       q    Type
REMARK                         _______ _______ _______ _____ _____    ______ ____
ROOT
ATOM      1  C   UNL     1      -2.880  -3.690  -0.194  0.00  0.00    +0.163 C 
ATOM      2  C   UNL     1      -2.777  -4.016  -1.710  0.00  0.00    +0.037 C 
ATOM      3  C   UNL     1      -4.195  -4.523  -2.018  0.00  0.00    +0.012 C 
ATOM      4  C   UNL     1      -4.299  -5.476  -3.196  0.00  0.00    +0.005 C 
ATOM      5  C   UNL     1      -5.754  -5.967  -3.260  0.00  0.00    +0.000 C 
ATOM      6  C   UNL     1      -6.171  -6.651  -1.961  0.00  0.00    +0.002 C 
ATOM      7  C   UNL     1      -5.939  -5.736  -0.747  0.00  0.00    +0.023 C 
ATOM      8  C   UNL     1      -4.480  -5.343  -0.730  0.00  0.00    +0.080 C 
ATOM      9  N   UNL     1      -4.004  -4.488   0.351  0.00  0.00    -0.283 N 
ATOM     10  C   UNL     1      -4.491  -4.432   1.606  0.00  0.00    +0.247 C 
ATOM     11  O   UNL     1      -5.483  -5.068   1.902  0.00  0.00    -0.270 OA
ENDROOT
BRANCH  10  12
ATOM     12  C   UNL     1      -3.817  -3.597   2.624  0.00  0.00    +0.037 A 
ATOM     13  C   UNL     1      -2.580  -3.015   2.345  0.00  0.00    +0.013 A 
ATOM     14  C   UNL     1      -1.957  -2.236   3.299  0.00  0.00    +0.001 A 
ATOM     15  C   UNL     1      -2.557  -2.033   4.529  0.00  0.00    +0.000 A 
ATOM     16  C   UNL     1      -3.783  -2.607   4.812  0.00  0.00    +0.001 A 
ATOM     17  C   UNL     1      -4.419  -3.383   3.865  0.00  0.00    +0.013 A 
ENDBRANCH  10  12
BRANCH   1  19
ATOM     18  N   UNL     1      -2.143  -1.331  -0.077  0.00  0.00    -0.315 N 
ATOM     19  C   UNL     1      -3.154  -2.221  -0.002  0.00  0.00    +0.234 C 
ATOM     20  O   UNL     1      -4.283  -1.838   0.219  0.00  0.00    -0.274 OA
ATOM     21  H   UNL     1      -1.240  -1.638  -0.254  0.00  0.00    +0.149 HD
BRANCH  18  22
ATOM     22  C   UNL     1      -2.410   0.097   0.110  0.00  0.00    +0.092 C 
BRANCH  22  24
ATOM     23  C   UNL     1      -1.380   2.373   0.171  0.00  0.00    -0.008 C 
ATOM     24  C   UNL     1      -1.102   0.881  -0.024  0.00  0.00    -0.056 C 
ATOM     25  C   UNL     1      -0.111   0.404   1.039  0.00  0.00    -0.008 C 
BRANCH  24  26
ATOM     26  N   UNL     1      -0.533   0.659  -1.360  0.00  0.00    +0.380 N 
ATOM     27  C   UNL     1      -1.485   1.117  -2.380  0.00  0.00    -0.096 C 
ATOM     28  C   UNL     1       0.722   1.412  -1.488  0.00  0.00    -0.096 C 
ATOM     29  H   UNL     1      -0.349  -0.325  -1.488  0.00  0.00    -0.082 HD
ENDBRANCH  24  26
ENDBRANCH  22  24
ENDBRANCH  18  22
ENDBRANCH   1  19
TORSDOF 5
