REMARK  Name = ZINC52094509
REMARK  7 active torsions:
REMARK  status: ('A' for Active; 'I' for Inactive)
REMARK    1  A    between atoms: C_1  and  C_2
REMARK    2  A    between atoms: C_2  and  C_3
REMARK    3  A    between atoms: C_2  and  C_4
REMARK    4  A    between atoms: C_2  and  C_5
REMARK    5  A    between atoms: C_5  and  C_7
REMARK    6  A    between atoms: C_5  and  N_20
REMARK    7  A    between atoms: N_20  and  C_21
REMARK                            x       y       z     vdW  Elec       q    Type
REMARK                         _______ _______ _______ _____ _____    ______ ____
ROOT
ATOM      1  C   UNL     1       2.035   0.161  -1.764  0.00  0.00    -0.045 A 
ATOM      2  C   UNL     1       3.140  -0.668  -1.748  0.00  0.00    +0.031 A 
ATOM      3  C   UNL     1       4.386  -0.164  -2.087  0.00  0.00    +0.067 A 
ATOM      4  C   UNL     1       4.520   1.180  -2.444  0.00  0.00    +0.068 A 
ATOM      5  C   UNL     1       3.406   2.005  -2.457  0.00  0.00    +0.043 A 
ATOM      6  C   UNL     1       2.166   1.492  -2.123  0.00  0.00    +0.022 A 
ATOM      7 BR   UNL     1       0.645   2.615  -2.149  0.00  0.00    -0.050 Br
ATOM      8  N   UNL     1       5.867   1.389  -2.727  0.00  0.00    -0.306 N 
ATOM      9  H   UNL     1       6.265   2.229  -3.004  0.00  0.00    +0.170 HD
ATOM     10  C   UNL     1       6.523   0.226  -2.551  0.00  0.00    +0.325 A 
ATOM     11  O   UNL     1       7.718   0.064  -2.716  0.00  0.00    -0.247 OA
ATOM     12  N   UNL     1       5.657  -0.729  -2.166  0.00  0.00    -0.306 N 
ATOM     13  H   UNL     1       5.880  -1.654  -1.974  0.00  0.00    +0.170 HD
ENDROOT
BRANCH   1  14
ATOM     14  C   UNL     1       0.680  -0.387  -1.395  0.00  0.00    -0.035 C 
BRANCH  14  16
ATOM     15  C   UNL     1       0.523   1.192   0.535  0.00  0.00    +0.009 C 
ATOM     16  C   UNL     1       0.482  -0.280   0.118  0.00  0.00    -0.046 C 
ATOM     17  C   UNL     1       1.597  -1.045   0.834  0.00  0.00    +0.009 C 
ATOM     18  C   UNL     1      -0.874  -0.879   0.498  0.00  0.00    +0.009 C 
ENDBRANCH  14  16
BRANCH  14  19
ATOM     19  N   UNL     1       0.595  -1.796  -1.802  0.00  0.00    +0.382 N 
ATOM     20  C   UNL     1      -0.809  -2.149  -2.051  0.00  0.00    -0.100 C 
ATOM     21  H   UNL     1       1.132  -1.936  -2.645  0.00  0.00    -0.085 HD
ATOM     22  H   UNL     1       0.964  -2.381  -1.067  0.00  0.00    -0.085 HD
ENDBRANCH  14  19
ENDBRANCH   1  14
TORSDOF 3
