REMARK  Name = ZINC38702822
REMARK  6 active torsions:
REMARK  status: ('A' for Active; 'I' for Inactive)
REMARK    1  A    between atoms: C_1  and  C_2
REMARK    2  A    between atoms: C_2  and  C_3
REMARK    3  A    between atoms: C_17  and  C_19
REMARK    4  A    between atoms: C_22  and  O_25
REMARK    5  A    between atoms: O_25  and  C_26
REMARK    6  A    between atoms: C_26  and  C_27
REMARK                            x       y       z     vdW  Elec       q    Type
REMARK                         _______ _______ _______ _____ _____    ______ ____
ROOT
ATOM      1  C   UNL     1      -1.412  -0.526   0.013  0.00  0.00    -0.047 A 
ATOM      2  C   UNL     1      -2.051  -0.766   1.221  0.00  0.00    +0.007 A 
ATOM      3  C   UNL     1      -3.341  -1.246   1.253  0.00  0.00    +0.047 A 
ATOM      4  C   UNL     1      -4.024  -1.495   0.062  0.00  0.00    +0.139 A 
ATOM      5  C   UNL     1      -3.369  -1.242  -1.154  0.00  0.00    +0.065 A 
ATOM      6  C   UNL     1      -2.062  -0.755  -1.168  0.00  0.00    +0.019 A 
ATOM      7  C   UNL     1      -4.093  -1.489  -2.426  0.00  0.00    +0.199 A 
ATOM      8  O   UNL     1      -3.553  -1.459  -3.518  0.00  0.00    -0.287 OA
ATOM      9  C   UNL     1      -5.521  -1.774  -2.244  0.00  0.00    +0.072 A 
ATOM     10  C   UNL     1      -6.041  -1.994  -1.000  0.00  0.00    +0.199 A 
ATOM     11  O   UNL     1      -5.288  -1.972   0.117  0.00  0.00    -0.450 OA
ATOM     12  C   UNL     1      -7.487  -2.241  -1.141  0.00  0.00    +0.281 C 
ATOM     13  O   UNL     1      -8.247  -2.468  -0.221  0.00  0.00    -0.267 OA
ATOM     14  N   UNL     1      -7.843  -2.178  -2.441  0.00  0.00    -0.298 N 
ATOM     15  C   UNL     1      -6.636  -1.882  -3.230  0.00  0.00    +0.141 C 
ATOM     16  H   UNL     1      -8.738  -2.305  -2.793  0.00  0.00    +0.150 HD
ENDROOT
BRANCH  15  17
ATOM     17  C   UNL     1      -6.364  -3.001  -4.202  0.00  0.00    -0.022 A 
ATOM     18  C   UNL     1      -6.623  -4.310  -3.838  0.00  0.00    +0.009 A 
ATOM     19  C   UNL     1      -6.373  -5.338  -4.727  0.00  0.00    +0.046 A 
ATOM     20  C   UNL     1      -5.863  -5.056  -5.986  0.00  0.00    +0.121 A 
ATOM     21  C   UNL     1      -5.605  -3.742  -6.349  0.00  0.00    +0.046 A 
ATOM     22  C   UNL     1      -5.861  -2.717  -5.458  0.00  0.00    +0.009 A 
BRANCH  20  23
ATOM     23  O   UNL     1      -5.617  -6.065  -6.862  0.00  0.00    -0.492 OA
BRANCH  23  24
ATOM     24  C   UNL     1      -5.092  -5.701  -8.140  0.00  0.00    +0.225 C 
ATOM     25  C   UNL     1      -4.881  -6.960  -8.983  0.00  0.00    +0.048 C 
ENDBRANCH  23  24
ENDBRANCH  20  23
ENDBRANCH  15  17
BRANCH   1  27
ATOM     26  C   UNL     1      -0.019   1.526   0.010  0.00  0.00    +0.009 C 
ATOM     27  C   UNL     1       0.002  -0.004   0.002  0.00  0.00    +0.032 C 
ENDBRANCH   1  27
TORSDOF 4
