REMARK  Name = ZINC09291513
REMARK  4 active torsions:
REMARK  status: ('A' for Active; 'I' for Inactive)
REMARK    1  A    between atoms: C_4  and  C_7
REMARK    2  A    between atoms: C_12  and  N_16
REMARK    3  A    between atoms: N_16  and  N_17
REMARK    4  A    between atoms: C_18  and  C_19
REMARK                            x       y       z     vdW  Elec       q    Type
REMARK                         _______ _______ _______ _____ _____    ______ ____
ROOT
ATOM      1  N   UNL     1       9.353   5.023   0.069  0.00  0.00    -0.220 N 
ATOM      2  H   UNL     1       9.851   4.208   0.238  0.00  0.00    +0.176 HD
ENDROOT
BRANCH   1   8
ATOM      3  C   UNL     1      12.370   5.442   0.270  0.00  0.00    +0.002 A 
ATOM      4  C   UNL     1      13.655   5.841   0.414  0.00  0.00    +0.056 A 
ATOM      5  S   UNL     1      13.510   7.560   0.862  0.00  0.00    -0.076 S 
ATOM      6  C   UNL     1      11.743   7.706   0.848  0.00  0.00    +0.114 A 
ATOM      7  C   UNL     1      11.304   6.411   0.500  0.00  0.00    +0.057 A 
ATOM      8  C   UNL     1       9.895   6.249   0.409  0.00  0.00    +0.150 A 
ATOM      9  N   UNL     1       9.108   7.284   0.658  0.00  0.00    -0.219 NA
ATOM     10  C   UNL     1       9.589   8.469   0.985  0.00  0.00    +0.224 A 
ATOM     11  N   UNL     1      10.888   8.682   1.080  0.00  0.00    -0.228 NA
BRANCH   3  15
ATOM     12  C   UNL     1      11.456   1.435  -0.814  0.00  0.00    +0.000 A 
ATOM     13  C   UNL     1      11.003   2.481  -1.598  0.00  0.00    +0.001 A 
ATOM     14  C   UNL     1      11.297   3.784  -1.251  0.00  0.00    +0.008 A 
ATOM     15  C   UNL     1      12.051   4.045  -0.108  0.00  0.00    -0.017 A 
ATOM     16  C   UNL     1      12.508   2.986   0.676  0.00  0.00    +0.008 A 
ATOM     17  C   UNL     1      12.204   1.687   0.322  0.00  0.00    +0.001 A 
ENDBRANCH   3  15
ENDBRANCH   1   8
BRANCH   1  18
ATOM     18  N   UNL     1       8.083   4.957  -0.519  0.00  0.00    -0.189 NA
ATOM     19  C   UNL     1       7.574   3.806  -0.838  0.00  0.00    +0.141 C 
BRANCH  19  20
ATOM     20  C   UNL     1       6.238   3.737  -1.457  0.00  0.00    +0.032 A 
ATOM     21  C   UNL     1       5.686   2.507  -1.801  0.00  0.00    +0.022 A 
ATOM     22  C   UNL     1       4.410   2.497  -2.387  0.00  0.00    +0.005 A 
ATOM     23  C   UNL     1       3.791   1.291  -2.758  0.00  0.00    +0.059 A 
ATOM     24  C   UNL     1       2.550   1.313  -3.325  0.00  0.00    +0.167 A 
ATOM     25  C   UNL     1       1.884   2.531  -3.544  0.00  0.00    +0.168 A 
ATOM     26  C   UNL     1       2.465   3.717  -3.193  0.00  0.00    +0.078 A 
ATOM     27  C   UNL     1       3.740   3.728  -2.606  0.00  0.00    +0.076 A 
ATOM     28  N   UNL     1       4.320   4.882  -2.254  0.00  0.00    -0.234 NA
ATOM     29  C   UNL     1       5.509   4.916  -1.705  0.00  0.00    +0.139 A 
ATOM     30 CL   UNL     1       6.201   6.449  -1.274  0.00  0.00    -0.061 Cl
ATOM     31  O   UNL     1       0.675   2.264  -4.118  0.00  0.00    -0.453 OA
ATOM     32  C   UNL     1       0.430   0.867  -3.870  0.00  0.00    +0.466 C 
ATOM     33  O   UNL     1       1.748   0.298  -3.765  0.00  0.00    -0.453 OA
ENDBRANCH  19  20
ENDBRANCH   1  18
TORSDOF 4
