REMARK  Name = ZINC19832591
REMARK  8 active torsions:
REMARK  status: ('A' for Active; 'I' for Inactive)
REMARK    1  A    between atoms: C_1  and  C_2
REMARK    2  A    between atoms: C_2  and  C_12
REMARK    3  A    between atoms: C_4  and  O_11
REMARK    4  A    between atoms: C_7  and  C_9
REMARK    5  A    between atoms: C_7  and  C_10
REMARK    6  A    between atoms: C_12  and  N_13
REMARK    7  A    between atoms: N_13  and  C_14
REMARK    8  A    between atoms: N_21  and  C_24
REMARK                            x       y       z     vdW  Elec       q    Type
REMARK                         _______ _______ _______ _____ _____    ______ ____
ROOT
ATOM      1  C   UNL     1       0.585  -0.244  -3.673  0.00  0.00    +0.085 C 
ATOM      2  C   UNL     1      -0.089   0.173  -4.806  0.00  0.00    +0.113 C 
ATOM      3  C   UNL     1       0.392  -0.170  -6.156  0.00  0.00    +0.258 C 
ATOM      4  O   UNL     1       1.400  -0.834  -6.311  0.00  0.00    -0.270 OA
ATOM      5  N   UNL     1      -0.316   0.271  -7.216  0.00  0.00    -0.235 N 
ATOM      6  C   UNL     1      -1.428   1.003  -7.060  0.00  0.00    +0.320 C 
ATOM      7  O   UNL     1      -2.020   1.369  -8.056  0.00  0.00    -0.251 OA
ATOM      8  N   UNL     1      -1.922   1.351  -5.864  0.00  0.00    -0.190 N 
ATOM      9  C   UNL     1      -1.322   0.975  -4.716  0.00  0.00    +0.265 C 
ATOM     10  O   UNL     1      -1.783   1.294  -3.636  0.00  0.00    -0.269 OA
ATOM     11  H   UNL     1      -0.013   0.054  -8.112  0.00  0.00    +0.159 HD
ENDROOT
BRANCH   8  12
ATOM     12  C   UNL     1      -3.094   2.119  -5.804  0.00  0.00    +0.046 A 
ATOM     13  C   UNL     1      -3.049   3.419  -5.318  0.00  0.00    +0.025 A 
ATOM     14  C   UNL     1      -4.204   4.173  -5.260  0.00  0.00    +0.017 A 
ATOM     15  C   UNL     1      -5.405   3.635  -5.686  0.00  0.00    +0.018 A 
ATOM     16  C   UNL     1      -5.453   2.340  -6.170  0.00  0.00    +0.017 A 
ATOM     17  C   UNL     1      -4.299   1.583  -6.236  0.00  0.00    +0.025 A 
ATOM     18 BR   UNL     1      -6.986   4.671  -5.605  0.00  0.00    -0.050 Br
ENDBRANCH   8  12
BRANCH   1  19
ATOM     19  N   UNL     1       0.048  -0.033  -2.454  0.00  0.00    -0.348 N 
ATOM     20  H   UNL     1      -0.773   0.476  -2.367  0.00  0.00    +0.146 HD
BRANCH  19  21
ATOM     21  C   UNL     1       0.706  -0.573  -1.261  0.00  0.00    +0.107 C 
BRANCH  21  23
ATOM     22  C   UNL     1      -0.161   1.340   0.054  0.00  0.00    +0.013 C 
ATOM     23  C   UNL     1      -0.110  -0.190  -0.006  0.00  0.00    -0.014 C 
ATOM     24  C   UNL     1      -1.516  -0.752  -0.180  0.00  0.00    +0.039 C 
ATOM     25  C   UNL     1      -2.320  -0.611   1.111  0.00  0.00    +0.116 C 
ATOM     26  C   UNL     1      -1.628  -1.411   2.212  0.00  0.00    +0.037 C 
ATOM     27  C   UNL     1      -0.226  -0.872   2.473  0.00  0.00    -0.032 C 
ATOM     28  C   UNL     1       0.602  -0.761   1.206  0.00  0.00    +0.014 C 
ATOM     29  C   UNL     1      -0.309   0.474   3.198  0.00  0.00    +0.011 C 
ATOM     30  C   UNL     1       0.486  -1.862   3.422  0.00  0.00    +0.011 C 
BRANCH  25  31
ATOM     31  O   UNL     1      -3.636  -1.140   0.903  0.00  0.00    -0.392 OA
ATOM     32  H   UNL     1      -4.208  -1.086   1.681  0.00  0.00    +0.210 HD
ENDBRANCH  25  31
ENDBRANCH  21  23
ENDBRANCH  19  21
ENDBRANCH   1  19
TORSDOF 5
