REMARK  Name = ZINC57762782
REMARK  11 active torsions:
REMARK  status: ('A' for Active; 'I' for Inactive)
REMARK    1  A    between atoms: C_1  and  C_2
REMARK    2  A    between atoms: C_2  and  C_3
REMARK    3  A    between atoms: C_5  and  C_11
REMARK    4  A    between atoms: C_8  and  O_9
REMARK    5  A    between atoms: O_9  and  C_10
REMARK    6  A    between atoms: C_11  and  C_13
REMARK    7  A    between atoms: C_11  and  C_23
REMARK    8  A    between atoms: C_13  and  C_14
REMARK    9  A    between atoms: C_19  and  O_20
REMARK   10  A    between atoms: O_20  and  C_21
REMARK   11  A    between atoms: C_23  and  N_24
REMARK                            x       y       z     vdW  Elec       q    Type
REMARK                         _______ _______ _______ _____ _____    ______ ____
ROOT
ATOM      1  C   UNL     1      -3.910  -1.940  -2.761  0.00  0.00    +0.006 C 
ENDROOT
BRANCH   1   4
ATOM      2  C   UNL     1      -1.635  -0.407  -0.168  0.00  0.00    -0.006 A 
ATOM      3  C   UNL     1      -2.117  -0.882  -1.372  0.00  0.00    +0.011 A 
ATOM      4  C   UNL     1      -3.387  -1.424  -1.445  0.00  0.00    -0.045 A 
ATOM      5  C   UNL     1      -4.178  -1.493  -0.313  0.00  0.00    +0.007 A 
ATOM      6  C   UNL     1      -3.700  -1.020   0.894  0.00  0.00    +0.046 A 
ATOM      7  C   UNL     1      -2.425  -0.481   0.971  0.00  0.00    +0.123 A 
BRANCH   2   9
ATOM      8  C   UNL     1      -0.347   1.710  -0.104  0.00  0.00    +0.009 C 
ATOM      9  C   UNL     1      -0.251   0.184  -0.089  0.00  0.00    +0.035 C 
ENDBRANCH   2   9
BRANCH   7  10
ATOM     10  O   UNL     1      -1.951  -0.020   2.158  0.00  0.00    -0.495 OA
ATOM     11  C   UNL     1      -2.818  -0.128   3.289  0.00  0.00    +0.277 C 
ENDBRANCH   7  10
ENDBRANCH   1   4
BRANCH   1  12
ATOM     12  C   UNL     1      -5.175  -1.169  -3.144  0.00  0.00    +0.045 C 
BRANCH  12  13
ATOM     13  C   UNL     1      -4.824   0.273  -3.407  0.00  0.00    -0.004 A 
ATOM     14  C   UNL     1      -4.987   1.216  -2.411  0.00  0.00    +0.027 A 
ATOM     15  C   UNL     1      -4.665   2.540  -2.651  0.00  0.00    +0.041 A 
ATOM     16  C   UNL     1      -4.179   2.922  -3.889  0.00  0.00    +0.023 A 
ATOM     17  C   UNL     1      -4.016   1.982  -4.888  0.00  0.00    +0.047 A 
ATOM     18  C   UNL     1      -4.332   0.653  -4.647  0.00  0.00    +0.123 A 
ATOM     19 CL   UNL     1      -4.871   3.724  -1.398  0.00  0.00    -0.084 Cl
BRANCH  18  20
ATOM     20  O   UNL     1      -4.166  -0.275  -5.626  0.00  0.00    -0.495 OA
ATOM     21  C   UNL     1      -3.655   0.188  -6.878  0.00  0.00    +0.277 C 
ENDBRANCH  18  20
ENDBRANCH  12  13
ENDBRANCH   1  12
BRANCH   1  22
ATOM     22  C   UNL     1      -4.240  -3.428  -2.630  0.00  0.00    -0.078 C 
BRANCH  22  23
ATOM     23  N   UNL     1      -4.673  -3.950  -3.933  0.00  0.00    +0.379 N 
ATOM     24  H   UNL     1      -4.801  -4.949  -3.870  0.00  0.00    -0.090 HD
ATOM     25  H   UNL     1      -5.544  -3.515  -4.198  0.00  0.00    -0.090 HD
ATOM     26  H   UNL     1      -3.970  -3.745  -4.628  0.00  0.00    -0.090 HD
ENDBRANCH  22  23
ENDBRANCH   1  22
TORSDOF 8
