REMARK  Name = ZINC40529670
REMARK  9 active torsions:
REMARK  status: ('A' for Active; 'I' for Inactive)
REMARK    1  A    between atoms: C_1  and  C_2
REMARK    2  A    between atoms: C_2  and  C_4
REMARK    3  A    between atoms: C_2  and  O_29
REMARK    4  A    between atoms: C_4  and  O_6
REMARK    5  A    between atoms: O_6  and  C_7
REMARK    6  A    between atoms: C_14  and  N_28
REMARK    7  A    between atoms: C_15  and  C_26
REMARK    8  A    between atoms: C_16  and  C_18
REMARK    9  A    between atoms: O_29  and  C_30
REMARK                            x       y       z     vdW  Elec       q    Type
REMARK                         _______ _______ _______ _____ _____    ______ ____
ROOT
ATOM      1  C   UNL     1       2.074  -1.230  -2.963  0.00  0.00    +0.135 A 
ATOM      2  C   UNL     1       0.971  -1.568  -3.735  0.00  0.00    +0.047 A 
ATOM      3  C   UNL     1       1.147  -2.204  -4.948  0.00  0.00    +0.012 A 
ATOM      4  C   UNL     1       2.420  -2.506  -5.398  0.00  0.00    +0.008 A 
ATOM      5  C   UNL     1       3.525  -2.170  -4.632  0.00  0.00    +0.138 A 
ATOM      6  C   UNL     1       3.350  -1.525  -3.414  0.00  0.00    +0.093 A 
ATOM      7  O   UNL     1       4.780  -2.458  -5.056  0.00  0.00    -0.441 OA
ATOM      8  C   UNL     1       4.969  -3.389  -6.006  0.00  0.00    +0.199 C 
ATOM      9  C   UNL     1       3.971  -3.785  -6.830  0.00  0.00    +0.098 C 
ATOM     10  C   UNL     1       2.591  -3.199  -6.724  0.00  0.00    +0.101 C 
ENDROOT
BRANCH  10  11
ATOM     11  C   UNL     1       2.384  -2.205  -7.838  0.00  0.00    +0.002 A 
ATOM     12  C   UNL     1       3.204  -1.096  -7.936  0.00  0.00    +0.046 A 
ATOM     13  C   UNL     1       3.014  -0.183  -8.959  0.00  0.00    +0.020 A 
ATOM     14  C   UNL     1       2.003  -0.380  -9.882  0.00  0.00    +0.003 A 
ATOM     15  C   UNL     1       1.184  -1.489  -9.784  0.00  0.00    +0.020 A 
ATOM     16  C   UNL     1       1.377  -2.405  -8.765  0.00  0.00    +0.046 A 
ATOM     17 CL   UNL     1       0.352  -3.801  -8.647  0.00  0.00    -0.083 Cl
ATOM     18 CL   UNL     1       4.472  -0.848  -6.777  0.00  0.00    -0.083 Cl
ENDBRANCH  10  11
BRANCH   8  19
ATOM     19  N   UNL     1       6.212  -3.955  -6.145  0.00  0.00    -0.328 N 
ATOM     20  H   UNL     1       6.938  -3.681  -5.563  0.00  0.00    +0.145 HD
ATOM     21  H   UNL     1       6.364  -4.629  -6.826  0.00  0.00    +0.145 HD
ENDBRANCH   8  19
BRANCH   9  22
ATOM     22  C   UNL     1       4.235  -4.783  -7.823  0.00  0.00    +0.101 C 
ATOM     23  N   UNL     1       4.444  -5.574  -8.610  0.00  0.00    -0.191 NA
ENDBRANCH   9  22
BRANCH   1  24
ATOM     24  O   UNL     1       1.902  -0.604  -1.768  0.00  0.00    -0.423 OA
BRANCH  24  25
ATOM     25  C   UNL     1       1.495  -1.342  -0.723  0.00  0.00    +0.353 C 
ATOM     26  O   UNL     1       1.343  -2.534  -0.847  0.00  0.00    -0.246 OA
BRANCH  25  28
ATOM     27  C   UNL     1       0.042   0.276   0.469  0.00  0.00    +0.064 C 
ATOM     28  C   UNL     1       1.227  -0.683   0.606  0.00  0.00    +0.279 C 
BRANCH  28  29
ATOM     29  O   UNL     1       0.922  -1.682   1.580  0.00  0.00    -0.475 OA
BRANCH  29  30
ATOM     30  C   UNL     1       1.128  -1.356   2.884  0.00  0.00    +0.157 A 
ATOM     31  C   UNL     1       1.568  -0.085   3.221  0.00  0.00    +0.048 A 
ATOM     32  C   UNL     1       1.777   0.244   4.547  0.00  0.00    +0.004 A 
ATOM     33  C   UNL     1       1.548  -0.693   5.538  0.00  0.00    +0.003 A 
ATOM     34  C   UNL     1       1.110  -1.961   5.206  0.00  0.00    +0.042 A 
ATOM     35  C   UNL     1       0.892  -2.294   3.881  0.00  0.00    +0.165 A 
ATOM     36  F   UNL     1       0.458  -3.532   3.557  0.00  0.00    -0.202 F 
ENDBRANCH  29  30
ENDBRANCH  28  29
ENDBRANCH  25  28
ENDBRANCH  24  25
ENDBRANCH   1  24
TORSDOF 8
