REMARK  Name = ZINC12275740
REMARK  4 active torsions:
REMARK  status: ('A' for Active; 'I' for Inactive)
REMARK    1  A    between atoms: C_1  and  C_2
REMARK    2  A    between atoms: N_8  and  N_9
REMARK    3  A    between atoms: N_9  and  C_10
REMARK    4  A    between atoms: C_22  and  C_25
REMARK                            x       y       z     vdW  Elec       q    Type
REMARK                         _______ _______ _______ _____ _____    ______ ____
ROOT
ATOM      1  C   UNL     1      -0.018   1.503   0.010  0.00  0.00    +0.070 C 
ATOM      2  C   UNL     1       0.002  -0.004   0.002  0.00  0.00    +0.089 C 
ATOM      3  N   UNL     1       0.008  -0.765  -1.049  0.00  0.00    -0.173 NA
ATOM      4  N   UNL     1       0.028  -2.115  -0.701  0.00  0.00    -0.130 N 
ATOM      5  C   UNL     1       0.036  -2.248   0.641  0.00  0.00    +0.294 C 
ATOM      6  O   UNL     1       0.054  -3.289   1.275  0.00  0.00    -0.266 OA
ATOM      7  C   UNL     1       0.025  -0.879   1.184  0.00  0.00    +0.168 C 
ATOM      8  N   UNL     1       0.032  -0.517   2.454  0.00  0.00    -0.175 NA
ATOM      9  C   UNL     1       0.039  -3.171  -1.607  0.00  0.00    +0.189 A 
ATOM     10  N   UNL     1       0.038  -3.140  -2.926  0.00  0.00    -0.223 NA
ATOM     11  C   UNL     1       0.049  -4.255  -3.640  0.00  0.00    +0.080 A 
ATOM     12  C   UNL     1       0.061  -5.463  -2.999  0.00  0.00    +0.077 A 
ATOM     13  S   UNL     1       0.065  -4.931  -1.292  0.00  0.00    -0.058 S 
ENDROOT
BRANCH  11  14
ATOM     14  C   UNL     1       0.048  -4.195  -5.122  0.00  0.00    +0.001 A 
ATOM     15  C   UNL     1       0.053  -5.371  -5.870  0.00  0.00    +0.011 A 
ATOM     16  C   UNL     1       0.051  -5.309  -7.249  0.00  0.00    +0.016 A 
ATOM     17  C   UNL     1       0.044  -4.082  -7.889  0.00  0.00    +0.018 A 
ATOM     18  C   UNL     1       0.039  -2.911  -7.151  0.00  0.00    +0.016 A 
ATOM     19  C   UNL     1       0.035  -2.962  -5.772  0.00  0.00    +0.011 A 
ATOM     20 BR   UNL     1       0.041  -4.005  -9.778  0.00  0.00    -0.050 Br
ENDBRANCH  11  14
BRANCH   8  21
ATOM     21  N   UNL     1       0.053  -1.414   3.381  0.00  0.00    -0.236 N 
ATOM     22  H   UNL     1       0.064  -2.355   3.145  0.00  0.00    +0.174 HD
BRANCH  21  23
ATOM     23  C   UNL     1       0.060  -1.033   4.719  0.00  0.00    +0.056 A 
ATOM     24  C   UNL     1       0.039   0.304   5.062  0.00  0.00    +0.025 A 
ATOM     25  C   UNL     1       0.045   0.695   6.396  0.00  0.00    +0.002 A 
ATOM     26  C   UNL     1       0.072  -0.226   7.400  0.00  0.00    +0.008 A 
ATOM     27  C   UNL     1       0.095  -1.597   7.093  0.00  0.00    -0.016 A 
ATOM     28  C   UNL     1       0.083  -2.010   5.738  0.00  0.00    +0.005 A 
ATOM     29  C   UNL     1       0.100  -3.379   5.434  0.00  0.00    +0.010 A 
ATOM     30  C   UNL     1       0.123  -4.293   6.444  0.00  0.00    +0.001 A 
ATOM     31  C   UNL     1       0.129  -3.889   7.777  0.00  0.00    +0.001 A 
ATOM     32  C   UNL     1       0.123  -2.569   8.109  0.00  0.00    +0.008 A 
ENDBRANCH  21  23
ENDBRANCH   8  21
TORSDOF 3
