REMARK  Name = ZINC06189113
REMARK  2 active torsions:
REMARK  status: ('A' for Active; 'I' for Inactive)
REMARK    1  A    between atoms: C_3  and  N_8
REMARK    2  A    between atoms: N_8  and  N_9
REMARK                            x       y       z     vdW  Elec       q    Type
REMARK                         _______ _______ _______ _____ _____    ______ ____
ROOT
ATOM      1  N   UNL     1       3.581   2.122  -0.021  0.00  0.00    -0.237 N 
ATOM      2  H   UNL     1       3.568   3.092  -0.016  0.00  0.00    +0.174 HD
ENDROOT
BRANCH   1   3
ATOM      3  N   UNL     1       4.803   1.437  -0.036  0.00  0.00    -0.174 NA
ATOM      4  C   UNL     1       5.932   2.108  -0.044  0.00  0.00    +0.140 C 
ATOM      5  C   UNL     1       6.153   3.513  -0.033  0.00  0.00    +0.150 C 
ATOM      6  N   UNL     1       7.363   3.950  -0.044  0.00  0.00    -0.228 NA
ATOM      7  C   UNL     1       8.421   3.105  -0.066  0.00  0.00    +0.187 C 
ATOM      8  N   UNL     1       9.704   3.386  -0.079  0.00  0.00    -0.276 NA
ATOM      9  S   UNL     1       7.617   1.508  -0.063  0.00  0.00    -0.028 S 
ATOM     10  H   UNL     1      10.357   2.669  -0.093  0.00  0.00    +0.189 HD
ENDBRANCH   1   3
BRANCH   1  13
ATOM     11  C   UNL     1      -0.017   1.379   0.010  0.00  0.00    +0.003 A 
ATOM     12  C   UNL     1       1.169   2.087   0.002  0.00  0.00    +0.025 A 
ATOM     13  C   UNL     1       2.382   1.409  -0.013  0.00  0.00    +0.049 A 
ATOM     14  C   UNL     1       2.398   0.019  -0.021  0.00  0.00    +0.040 A 
ATOM     15  C   UNL     1       1.208  -0.683  -0.013  0.00  0.00    +0.020 A 
ATOM     16  C   UNL     1       0.002  -0.004   0.002  0.00  0.00    +0.015 A 
ATOM     17 BR   UNL     1       1.228  -2.574  -0.024  0.00  0.00    -0.050 Br
ENDBRANCH   1  13
TORSDOF 2
