REMARK  Name = ZINC09431828
REMARK  9 active torsions:
REMARK  status: ('A' for Active; 'I' for Inactive)
REMARK    1  A    between atoms: C_1  and  C_2
REMARK    2  A    between atoms: C_2  and  C_3
REMARK    3  A    between atoms: C_3  and  S_4
REMARK    4  A    between atoms: S_4  and  C_5
REMARK    5  A    between atoms: C_9  and  C_11
REMARK    6  A    between atoms: N_13  and  C_14
REMARK    7  A    between atoms: C_15  and  C_23
REMARK    8  A    between atoms: N_25  and  C_26
REMARK    9  A    between atoms: C_26  and  C_27
REMARK                            x       y       z     vdW  Elec       q    Type
REMARK                         _______ _______ _______ _____ _____    ______ ____
ROOT
ATOM      1  C   UNL     1      -4.913   4.361   0.072  0.00  0.00    +0.085 A 
ATOM      2  C   UNL     1      -6.187   3.810   0.076  0.00  0.00    +0.069 A 
ATOM      3  C   UNL     1      -7.314   4.726   0.098  0.00  0.00    -0.023 A 
ATOM      4  C   UNL     1      -6.990   6.037   0.101  0.00  0.00    -0.004 A 
ATOM      5  S   UNL     1      -5.220   6.066   0.084  0.00  0.00    -0.077 S 
ATOM      6  C   UNL     1      -7.933   7.200   0.116  0.00  0.00    +0.043 C 
ATOM      7  C   UNL     1      -9.335   6.692  -0.251  0.00  0.00    +0.005 C 
ATOM      8  C   UNL     1      -9.640   5.444   0.583  0.00  0.00    +0.005 C 
ATOM      9  C   UNL     1      -8.771   4.277   0.111  0.00  0.00    +0.037 C 
ENDROOT
BRANCH   1  12
ATOM     10  C   UNL     1      -2.547   4.417   0.050  0.00  0.00    +0.269 C 
ATOM     11  O   UNL     1      -2.585   5.631   0.057  0.00  0.00    -0.268 OA
ATOM     12  N   UNL     1      -3.692   3.706   0.057  0.00  0.00    -0.274 N 
ATOM     13  H   UNL     1      -3.662   2.737   0.052  0.00  0.00    +0.156 HD
BRANCH  10  18
ATOM     14  C   UNL     1      -0.022   1.758   0.012  0.00  0.00    +0.189 A 
ATOM     15  N   UNL     1       1.128   2.419   0.004  0.00  0.00    -0.229 NA
ATOM     16  C   UNL     1       1.153   3.740   0.011  0.00  0.00    +0.136 A 
ATOM     17  C   UNL     1      -0.046   4.441   0.026  0.00  0.00    +0.090 A 
ATOM     18  C   UNL     1      -1.240   3.716   0.034  0.00  0.00    +0.148 A 
ATOM     19  N   UNL     1      -1.186   2.386   0.021  0.00  0.00    -0.216 NA
ATOM     20 CL   UNL     1      -0.061   6.177   0.036  0.00  0.00    -0.080 Cl
BRANCH  14  21
ATOM     21  S   UNL     1       0.002  -0.004   0.002  0.00  0.00    -0.086 S 
BRANCH  21  22
ATOM     22  C   UNL     1       1.789  -0.294  -0.017  0.00  0.00    +0.077 C 
BRANCH  22  24
ATOM     23  C   UNL     1       3.571  -2.045  -0.043  0.00  0.00    +0.004 C 
ATOM     24  C   UNL     1       2.061  -1.800  -0.027  0.00  0.00    +0.008 C 
ENDBRANCH  22  24
ENDBRANCH  21  22
ENDBRANCH  14  21
ENDBRANCH  10  18
ENDBRANCH   1  12
BRANCH   2  25
ATOM     25  C   UNL     1      -6.387   2.357   0.063  0.00  0.00    +0.247 C 
ATOM     26  O   UNL     1      -6.463   1.744   1.111  0.00  0.00    -0.270 OA
ATOM     27  N   UNL     1      -6.487   1.702  -1.110  0.00  0.00    -0.304 N 
ATOM     28  H   UNL     1      -6.427   2.190  -1.946  0.00  0.00    +0.149 HD
BRANCH  27  29
ATOM     29  C   UNL     1      -6.688   0.250  -1.124  0.00  0.00    +0.179 C 
BRANCH  29  30
ATOM     30  C   UNL     1      -6.766  -0.233  -2.549  0.00  0.00    +0.122 A 
ATOM     31  C   UNL     1      -5.726  -0.634  -3.302  0.00  0.00    +0.046 A 
ATOM     32  C   UNL     1      -6.250  -1.001  -4.562  0.00  0.00    +0.041 A 
ATOM     33  C   UNL     1      -7.579  -0.801  -4.505  0.00  0.00    +0.195 A 
ATOM     34  O   UNL     1      -7.886  -0.342  -3.281  0.00  0.00    -0.466 OA
ENDBRANCH  29  30
ENDBRANCH  27  29
ENDBRANCH   2  25
TORSDOF 8
