REMARK  Name = ZINC05741850
REMARK  6 active torsions:
REMARK  status: ('A' for Active; 'I' for Inactive)
REMARK    1  A    between atoms: C_1  and  S_2
REMARK    2  A    between atoms: S_2  and  C_3
REMARK    3  A    between atoms: C_4  and  C_23
REMARK    4  A    between atoms: C_6  and  N_51
REMARK    5  A    between atoms: N_8  and  C_9
REMARK    6  A    between atoms: C_12  and  N_15
REMARK                            x       y       z     vdW  Elec       q    Type
REMARK                         _______ _______ _______ _____ _____    ______ ____
ROOT
ATOM      1  C   UNL     1      -1.426  -2.226   0.133  0.00  0.00    +0.081 C 
ATOM      2  C   UNL     1      -1.202  -0.807   0.517  0.00  0.00    +0.043 C 
ATOM      3  S   UNL     1      -2.757  -0.076   0.280  0.00  0.00    -0.119 S 
ATOM      4  C   UNL     1      -3.672  -1.558  -0.290  0.00  0.00    +0.090 C 
ATOM      5  N   UNL     1      -2.630  -2.597  -0.254  0.00  0.00    -0.298 N 
ENDROOT
BRANCH   4  11
ATOM      6  C   UNL     1      -3.077  -1.189  -2.607  0.00  0.00    -0.075 C 
ATOM      7  C   UNL     1      -3.634  -1.139  -4.032  0.00  0.00    -0.019 C 
ATOM      8  C   UNL     1      -4.625   0.023  -4.146  0.00  0.00    -0.004 C 
ATOM      9  C   UNL     1      -5.738  -0.162  -3.111  0.00  0.00    -0.019 C 
ATOM     10  C   UNL     1      -5.120  -0.240  -1.713  0.00  0.00    -0.075 C 
ATOM     11  N   UNL     1      -4.195  -1.393  -1.662  0.00  0.00    +0.399 N 
ATOM     12  H   UNL     1      -4.706  -2.242  -1.928  0.00  0.00    -0.078 HD
ENDBRANCH   4  11
BRANCH   2  13
ATOM     13  C   UNL     1       0.035  -0.178   0.978  0.00  0.00    -0.009 A 
ATOM     14  C   UNL     1       1.243  -0.411   0.298  0.00  0.00    +0.010 A 
ATOM     15  C   UNL     1       2.393   0.182   0.736  0.00  0.00    +0.020 A 
ATOM     16  C   UNL     1       2.372   1.012   1.848  0.00  0.00    +0.041 A 
ATOM     17  C   UNL     1       1.183   1.248   2.526  0.00  0.00    +0.020 A 
ATOM     18  C   UNL     1       0.023   0.664   2.103  0.00  0.00    +0.010 A 
ATOM     19 CL   UNL     1       3.840   1.759   2.395  0.00  0.00    -0.084 Cl
ENDBRANCH   2  13
BRANCH   5  20
ATOM     20  C   UNL     1      -2.903  -3.914  -0.621  0.00  0.00    +0.034 A 
ATOM     21  C   UNL     1      -2.301  -4.462  -1.748  0.00  0.00    +0.025 A 
ATOM     22  C   UNL     1      -2.570  -5.769  -2.105  0.00  0.00    +0.034 A 
ATOM     23  C   UNL     1      -3.445  -6.528  -1.349  0.00  0.00    +0.126 A 
ATOM     24  C   UNL     1      -4.050  -5.984  -0.231  0.00  0.00    +0.034 A 
ATOM     25  C   UNL     1      -3.782  -4.680   0.136  0.00  0.00    +0.025 A 
BRANCH  23  26
ATOM     26  N   UNL     1      -3.734  -7.926  -1.738  0.00  0.00    +0.056 N 
ATOM     27  O   UNL     1      -4.567  -8.651  -1.020  0.00  0.00    -0.126 OA
ATOM     28  O   UNL     1      -3.159  -8.446  -2.803  0.00  0.00    -0.126 OA
ENDBRANCH  23  26
ENDBRANCH   5  20
BRANCH   1  30
ATOM     29  C   UNL     1      -0.724  -4.410   1.554  0.00  0.00    +0.091 C 
ATOM     30  S   UNL     1      -0.145  -3.359   0.199  0.00  0.00    -0.112 S 
ENDBRANCH   1  30
TORSDOF 5
