REMARK  Name = ZINC51053901
REMARK  13 active torsions:
REMARK  status: ('A' for Active; 'I' for Inactive)
REMARK    1  A    between atoms: C_1  and  C_2
REMARK    2  A    between atoms: C_2  and  C_3
REMARK    3  A    between atoms: C_3  and  C_4
REMARK    4  A    between atoms: C_4  and  C_6
REMARK    5  A    between atoms: C_4  and  N_7
REMARK    6  A    between atoms: C_8  and  C_10
REMARK    7  A    between atoms: N_15  and  C_17
REMARK    8  A    between atoms: C_17  and  C_19
REMARK    9  A    between atoms: C_17  and  C_20
REMARK   10  A    between atoms: N_25  and  C_26
REMARK   11  A    between atoms: C_26  and  C_27
REMARK   12  A    between atoms: C_26  and  C_28
REMARK   13  A    between atoms: C_26  and  C_29
REMARK                            x       y       z     vdW  Elec       q    Type
REMARK                         _______ _______ _______ _____ _____    ______ ____
ROOT
ATOM      1  C   UNL     1       0.222  -4.893  -1.462  0.00  0.00    +0.058 C 
ATOM      2  C   UNL     1      -0.071  -3.897  -2.587  0.00  0.00    +0.009 C 
ATOM      3  C   UNL     1       1.131  -3.844  -3.535  0.00  0.00    -0.018 C 
ATOM      4  C   UNL     1       1.418  -5.250  -4.066  0.00  0.00    -0.078 C 
ATOM      5  N   UNL     1       1.716  -6.149  -2.944  0.00  0.00    +0.388 N 
ATOM      6  C   UNL     1       0.543  -6.261  -2.069  0.00  0.00    -0.065 C 
ATOM      7  H   UNL     1       2.493  -5.780  -2.417  0.00  0.00    -0.081 HD
ENDROOT
BRANCH   1   9
ATOM      8  N   UNL     1      -1.454  -3.924   0.077  0.00  0.00    -0.313 N 
ATOM      9  C   UNL     1      -0.984  -5.011  -0.567  0.00  0.00    +0.215 C 
ATOM     10  O   UNL     1      -1.533  -6.083  -0.426  0.00  0.00    -0.276 OA
ATOM     11  H   UNL     1      -1.015  -3.066  -0.035  0.00  0.00    +0.149 HD
BRANCH   8  12
ATOM     12  C   UNL     1      -2.627  -4.038   0.948  0.00  0.00    +0.070 C 
ATOM     13  C   UNL     1      -2.186  -4.492   2.341  0.00  0.00    +0.028 C 
BRANCH  12  14
ATOM     14  C   UNL     1      -3.320  -2.678   1.050  0.00  0.00    +0.022 C 
BRANCH  14  16
ATOM     15  C   UNL     1      -4.564  -0.921  -0.218  0.00  0.00    +0.004 C 
ATOM     16  C   UNL     1      -3.870  -2.281  -0.321  0.00  0.00    -0.002 C 
ENDBRANCH  14  16
ENDBRANCH  12  14
ENDBRANCH   8  12
ENDBRANCH   1   9
BRANCH   5  17
ATOM     17  C   UNL     1       2.067  -7.478  -3.463  0.00  0.00    +0.017 C 
ATOM     18  C   UNL     1       3.259  -7.355  -4.414  0.00  0.00    -0.004 C 
BRANCH  17  19
ATOM     19  C   UNL     1       2.430  -8.385  -2.316  0.00  0.00    +0.207 C 
ATOM     20  O   UNL     1       2.878  -7.918  -1.292  0.00  0.00    -0.277 OA
ATOM     21  N   UNL     1       2.256  -9.717  -2.430  0.00  0.00    -0.242 N 
ATOM     22  C   UNL     1       2.581 -10.529  -1.404  0.00  0.00    +0.306 C 
ATOM     23  O   UNL     1       3.030 -10.060  -0.377  0.00  0.00    -0.252 OA
ATOM     24  N   UNL     1       2.407 -11.860  -1.518  0.00  0.00    -0.294 N 
ATOM     25  H   UNL     1       1.897 -10.091  -3.250  0.00  0.00    +0.159 HD
ATOM     26  H   UNL     1       2.049 -12.235  -2.338  0.00  0.00    +0.151 HD
BRANCH  24  27
ATOM     27  C   UNL     1       2.760 -12.743  -0.403  0.00  0.00    +0.028 C 
ATOM     28  C   UNL     1       1.933 -12.366   0.828  0.00  0.00    +0.031 C 
ATOM     29  C   UNL     1       2.468 -14.194  -0.789  0.00  0.00    +0.031 C 
ATOM     30  C   UNL     1       4.249 -12.590  -0.083  0.00  0.00    +0.031 C 
ENDBRANCH  24  27
ENDBRANCH  17  19
ENDBRANCH   5  17
TORSDOF 7
