REMARK  Name = ZINC03529258
REMARK  13 active torsions:
REMARK  status: ('A' for Active; 'I' for Inactive)
REMARK    1  A    between atoms: C_1  and  C_2
REMARK    2  A    between atoms: C_2  and  C_3
REMARK    3  A    between atoms: C_7  and  C_30
REMARK    4  A    between atoms: C_8  and  N_9
REMARK    5  A    between atoms: C_10  and  C_12
REMARK    6  A    between atoms: C_12  and  S_13
REMARK    7  A    between atoms: S_13  and  C_14
REMARK    8  A    between atoms: C_17  and  C_20
REMARK    9  A    between atoms: N_18  and  N_19
REMARK   10  A    between atoms: C_23  and  C_26
REMARK   11  A    between atoms: C_26  and  C_27
REMARK   12  A    between atoms: C_26  and  C_28
REMARK   13  A    between atoms: C_26  and  C_29
REMARK                            x       y       z     vdW  Elec       q    Type
REMARK                         _______ _______ _______ _____ _____    ______ ____
ROOT
ATOM      1  C   UNL     1       8.716   2.343  -0.491  0.00  0.00    +0.209 A 
ATOM      2  N   UNL     1       8.559   3.536   0.038  0.00  0.00    -0.121 NA
ATOM      3  N   UNL     1       9.646   4.213  -0.068  0.00  0.00    -0.127 NA
ATOM      4  C   UNL     1      10.561   3.498  -0.680  0.00  0.00    +0.182 A 
ATOM      5  N   UNL     1       9.993   2.279  -0.970  0.00  0.00    -0.224 N 
ENDROOT
BRANCH   4   6
ATOM      6  C   UNL     1      11.941   3.923  -0.999  0.00  0.00    +0.021 A 
ATOM      7  C   UNL     1      12.491   5.042  -0.373  0.00  0.00    +0.012 A 
ATOM      8  C   UNL     1      13.781   5.430  -0.671  0.00  0.00    +0.005 A 
ATOM      9  C   UNL     1      14.525   4.719  -1.596  0.00  0.00    -0.042 A 
ATOM     10  C   UNL     1      13.983   3.612  -2.224  0.00  0.00    +0.005 A 
ATOM     11  C   UNL     1      12.696   3.210  -1.931  0.00  0.00    +0.012 A 
BRANCH   9  12
ATOM     12  C   UNL     1      15.931   5.153  -1.921  0.00  0.00    -0.013 C 
ATOM     13  C   UNL     1      16.030   5.485  -3.412  0.00  0.00    +0.015 C 
ATOM     14  C   UNL     1      16.286   6.392  -1.098  0.00  0.00    +0.015 C 
ATOM     15  C   UNL     1      16.904   4.021  -1.585  0.00  0.00    +0.015 C 
ENDBRANCH   9  12
ENDBRANCH   4   6
BRANCH   5  16
ATOM     16  N   UNL     1      10.584   1.223  -1.604  0.00  0.00    -0.295 N 
ATOM     17  H   UNL     1      10.533   1.328  -2.606  0.00  0.00    +0.163 HD
ATOM     18  H   UNL     1      11.540   1.108  -1.301  0.00  0.00    +0.163 HD
ENDBRANCH   5  16
BRANCH   1  19
ATOM     19  S   UNL     1       7.503   1.068  -0.574  0.00  0.00    -0.075 S 
BRANCH  19  20
ATOM     20  C   UNL     1       6.120   1.896   0.250  0.00  0.00    +0.173 C 
BRANCH  20  22
ATOM     21  N   UNL     1       3.783   1.373   0.868  0.00  0.00    -0.284 N 
ATOM     22  C   UNL     1       4.934   0.968   0.296  0.00  0.00    +0.228 C 
ATOM     23  O   UNL     1       5.016  -0.144  -0.180  0.00  0.00    -0.275 OA
ATOM     24  H   UNL     1       3.701   2.279   1.205  0.00  0.00    +0.155 HD
BRANCH  21  30
ATOM     25  C   UNL     1       1.427   0.900   0.625  0.00  0.00    -0.026 A 
ATOM     26  C   UNL     1       0.365   0.023   0.732  0.00  0.00    +0.005 A 
ATOM     27  C   UNL     1       0.575  -1.266   1.187  0.00  0.00    +0.001 A 
ATOM     28  C   UNL     1       1.847  -1.680   1.537  0.00  0.00    +0.005 A 
ATOM     29  C   UNL     1       2.912  -0.808   1.433  0.00  0.00    -0.029 A 
ATOM     30  C   UNL     1       2.705   0.487   0.976  0.00  0.00    +0.040 A 
ATOM     31  C   UNL     1       4.298  -1.261   1.814  0.00  0.00    +0.045 C 
BRANCH  25  33
ATOM     32  C   UNL     1       1.471   2.365  -1.375  0.00  0.00    +0.009 C 
ATOM     33  C   UNL     1       1.198   2.305   0.129  0.00  0.00    +0.033 C 
ENDBRANCH  25  33
ENDBRANCH  21  30
ENDBRANCH  20  22
ENDBRANCH  19  20
ENDBRANCH   1  19
TORSDOF 8
