REMARK  Name = ZINC12747462
REMARK  3 active torsions:
REMARK  status: ('A' for Active; 'I' for Inactive)
REMARK    1  A    between atoms: C_13  and  N_14
REMARK    2  A    between atoms: N_14  and  N_15
REMARK    3  A    between atoms: C_16  and  C_18
REMARK                            x       y       z     vdW  Elec       q    Type
REMARK                         _______ _______ _______ _____ _____    ______ ____
ROOT
ATOM      1  N   UNL     1      -2.174   9.453   0.018  0.00  0.00    -0.229 NA
ATOM      2  H   UNL     1      -2.053   9.561  -0.978  0.00  0.00    +0.145 HD
ENDROOT
BRANCH   1  15
ATOM      3  C   UNL     1      -6.272  10.820  -2.561  0.00  0.00    +0.001 A 
ATOM      4  C   UNL     1      -6.016   9.497  -2.247  0.00  0.00    +0.000 A 
ATOM      5  C   UNL     1      -5.089   9.183  -1.269  0.00  0.00    +0.006 A 
ATOM      6  C   UNL     1      -4.417  10.189  -0.606  0.00  0.00    -0.017 A 
ATOM      7  C   UNL     1      -4.668  11.523  -0.915  0.00  0.00    -0.013 A 
ATOM      8  C   UNL     1      -5.604  11.832  -1.903  0.00  0.00    +0.009 A 
ATOM      9  C   UNL     1      -3.821  12.395  -0.063  0.00  0.00    -0.013 A 
ATOM     10  C   UNL     1      -3.708  13.784   0.004  0.00  0.00    +0.009 A 
ATOM     11  C   UNL     1      -2.831  14.362   0.898  0.00  0.00    +0.001 A 
ATOM     12  C   UNL     1      -2.060  13.569   1.730  0.00  0.00    +0.000 A 
ATOM     13  C   UNL     1      -2.167  12.191   1.668  0.00  0.00    +0.006 A 
ATOM     14  C   UNL     1      -3.041  11.605   0.778  0.00  0.00    -0.017 A 
ATOM     15  C   UNL     1      -3.373  10.163   0.483  0.00  0.00    +0.134 C 
ENDBRANCH   1  15
BRANCH   1  16
ATOM     16  N   UNL     1      -2.222   8.132   0.364  0.00  0.00    -0.247 N 
ATOM     17  C   UNL     1      -1.210   7.309   0.025  0.00  0.00    +0.271 C 
ATOM     18  O   UNL     1      -0.256   7.742  -0.587  0.00  0.00    -0.270 OA
ATOM     19  H   UNL     1      -2.985   7.786   0.854  0.00  0.00    +0.169 HD
BRANCH  17  20
ATOM     20  C   UNL     1      -1.263   5.852   0.407  0.00  0.00    +0.297 C 
ATOM     21  C   UNL     1      -2.424   5.167  -0.326  0.00  0.00    +0.283 C 
ATOM     22  O   UNL     1      -2.437   3.785   0.048  0.00  0.00    -0.484 OA
ATOM     23  C   UNL     1      -1.241   3.136   0.030  0.00  0.00    +0.162 A 
ATOM     24  C   UNL     1      -1.219   1.749   0.017  0.00  0.00    +0.049 A 
ATOM     25  C   UNL     1      -0.013   1.076   0.008  0.00  0.00    +0.004 A 
ATOM     26  C   UNL     1       1.176   1.782   0.000  0.00  0.00    +0.004 A 
ATOM     27  C   UNL     1       1.161   3.164   0.007  0.00  0.00    +0.049 A 
ATOM     28  C   UNL     1      -0.046   3.846   0.020  0.00  0.00    +0.163 A 
ATOM     29  O   UNL     1      -0.045   5.207   0.019  0.00  0.00    -0.472 OA
ENDBRANCH  17  20
ENDBRANCH   1  16
TORSDOF 3
