REMARK  Name = ZINC39633519
REMARK  7 active torsions:
REMARK  status: ('A' for Active; 'I' for Inactive)
REMARK    1  A    between atoms: C_1  and  C_2
REMARK    2  A    between atoms: C_2  and  C_3
REMARK    3  A    between atoms: C_3  and  C_4
REMARK    4  A    between atoms: C_3  and  C_6
REMARK    5  A    between atoms: C_4  and  C_5
REMARK    6  A    between atoms: C_10  and  C_19
REMARK    7  A    between atoms: N_21  and  C_22
REMARK                            x       y       z     vdW  Elec       q    Type
REMARK                         _______ _______ _______ _____ _____    ______ ____
ROOT
ATOM      1  C   UNL     1      -1.372  -2.184   0.238  0.00  0.00    +0.219 C 
ATOM      2  O   UNL     1      -0.317  -2.735   0.470  0.00  0.00    -0.275 OA
ATOM      3  N   UNL     1      -2.502  -2.911   0.134  0.00  0.00    -0.300 N 
ATOM      4  C   UNL     1      -3.887  -2.417  -0.053  0.00  0.00    +0.121 C 
ATOM      5  C   UNL     1      -4.528  -3.415  -1.042  0.00  0.00    +0.100 C 
ATOM      6  C   UNL     1      -3.708  -4.707  -0.883  0.00  0.00    -0.004 C 
ATOM      7  C   UNL     1      -2.641  -4.387   0.174  0.00  0.00    +0.115 C 
ATOM      8  C   UNL     1      -4.603  -5.845  -0.404  0.00  0.00    -0.010 C 
ATOM      9  C   UNL     1      -3.778  -7.132  -0.308  0.00  0.00    -0.082 C 
ATOM     10  N   UNL     1      -3.210  -7.450  -1.624  0.00  0.00    +0.379 N 
ATOM     11  C   UNL     1      -2.278  -6.393  -2.036  0.00  0.00    -0.082 C 
ATOM     12  C   UNL     1      -3.040  -5.075  -2.204  0.00  0.00    -0.010 C 
ATOM     13  H   UNL     1      -2.718  -8.329  -1.573  0.00  0.00    -0.086 HD
ATOM     14  H   UNL     1      -3.954  -7.523  -2.302  0.00  0.00    -0.086 HD
ENDROOT
BRANCH   5  15
ATOM     15  C   UNL     1      -4.425  -2.896  -2.453  0.00  0.00    +0.218 C 
ATOM     16  O   UNL     1      -3.460  -2.244  -2.790  0.00  0.00    -0.275 OA
ATOM     17  N   UNL     1      -5.405  -3.158  -3.341  0.00  0.00    -0.312 N 
ATOM     18  H   UNL     1      -6.177  -3.680  -3.071  0.00  0.00    +0.149 HD
BRANCH  17  19
ATOM     19  C   UNL     1      -5.304  -2.653  -4.713  0.00  0.00    +0.073 C 
ATOM     20  C   UNL     1      -5.775  -1.185  -4.740  0.00  0.00    +0.022 C 
ATOM     21  C   UNL     1      -5.212  -0.525  -5.970  0.00  0.00    +0.002 C 
ATOM     22  C   UNL     1      -6.191  -0.562  -7.159  0.00  0.00    +0.000 C 
ATOM     23  C   UNL     1      -6.912  -1.916  -7.297  0.00  0.00    +0.000 C 
ATOM     24  C   UNL     1      -5.993  -3.085  -7.068  0.00  0.00    +0.002 C 
ATOM     25  C   UNL     1      -6.095  -3.506  -5.588  0.00  0.00    +0.022 C 
ENDBRANCH  17  19
ENDBRANCH   5  15
BRANCH   1  26
ATOM     26  C   UNL     1      -1.420  -0.688   0.066  0.00  0.00    +0.075 C 
BRANCH  26  28
ATOM     27  C   UNL     1      -1.723   1.488   1.255  0.00  0.00    +0.004 C 
ATOM     28  C   UNL     1      -1.549  -0.021   1.437  0.00  0.00    +0.009 C 
ENDBRANCH  26  28
BRANCH  26  29
ATOM     29  C   UNL     1      -0.135  -0.212  -0.614  0.00  0.00    +0.009 C 
ATOM     30  C   UNL     1      -0.075  -0.769  -2.038  0.00  0.00    +0.004 C 
ENDBRANCH  26  29
ENDBRANCH   1  26
TORSDOF 5
