REMARK  Name = ZINC20719117
REMARK  11 active torsions:
REMARK  status: ('A' for Active; 'I' for Inactive)
REMARK    1  A    between atoms: C_1  and  C_2
REMARK    2  A    between atoms: C_2  and  C_3
REMARK    3  A    between atoms: C_2  and  C_4
REMARK    4  A    between atoms: C_4  and  C_5
REMARK    5  A    between atoms: C_5  and  C_7
REMARK    6  A    between atoms: C_5  and  N_11
REMARK    7  A    between atoms: C_7  and  O_9
REMARK    8  A    between atoms: O_9  and  C_10
REMARK    9  A    between atoms: C_23  and  C_25
REMARK   10  A    between atoms: C_30  and  O_31
REMARK   11  A    between atoms: O_31  and  C_32
REMARK                            x       y       z     vdW  Elec       q    Type
REMARK                         _______ _______ _______ _____ _____    ______ ____
ROOT
ATOM      1  N   UNL     1       1.286  -2.286  -0.583  0.00  0.00    -0.286 N 
ATOM      2  C   UNL     1       0.452  -2.525  -1.615  0.00  0.00    +0.304 C 
ATOM      3  O   UNL     1      -0.750  -2.524  -1.437  0.00  0.00    -0.253 OA
ATOM      4  N   UNL     1       0.952  -2.764  -2.843  0.00  0.00    -0.273 N 
ATOM      5  C   UNL     1       0.060  -2.914  -4.003  0.00  0.00    +0.116 C 
ATOM      6  C   UNL     1       0.326  -1.772  -4.992  0.00  0.00    +0.074 C 
ATOM      7  C   UNL     1       1.814  -1.607  -5.153  0.00  0.00    +0.040 A 
ATOM      8  C   UNL     1       2.742  -2.091  -4.299  0.00  0.00    +0.062 A 
ATOM      9  N   UNL     1       3.948  -1.751  -4.759  0.00  0.00    -0.348 N 
ATOM     10  C   UNL     1       3.807  -1.074  -5.869  0.00  0.00    +0.171 A 
ATOM     11  N   UNL     1       2.488  -0.965  -6.148  0.00  0.00    -0.349 N 
ATOM     12  H   UNL     1       2.096  -0.514  -6.912  0.00  0.00    +0.166 HD
ATOM     13  C   UNL     1       2.406  -2.876  -3.059  0.00  0.00    +0.160 C 
ATOM     14  H   UNL     1       2.246  -2.344  -0.712  0.00  0.00    +0.151 HD
ATOM     15  H   UNL     1       4.793  -1.970  -4.337  0.00  0.00    +0.167 HD
ENDROOT
BRANCH  13  16
ATOM     16  C   UNL     1       2.785  -4.322  -3.253  0.00  0.00    +0.021 A 
ATOM     17  C   UNL     1       2.323  -5.016  -4.354  0.00  0.00    +0.009 A 
ATOM     18  C   UNL     1       2.670  -6.342  -4.533  0.00  0.00    +0.001 A 
ATOM     19  C   UNL     1       3.482  -6.977  -3.611  0.00  0.00    +0.004 A 
ATOM     20  C   UNL     1       3.947  -6.287  -2.508  0.00  0.00    +0.046 A 
ATOM     21  C   UNL     1       3.604  -4.955  -2.329  0.00  0.00    +0.135 A 
BRANCH  21  22
ATOM     22  O   UNL     1       4.066  -4.272  -1.249  0.00  0.00    -0.405 OA
BRANCH  22  23
ATOM     23  C   UNL     1       4.904  -4.987  -0.339  0.00  0.00    +0.575 C 
ATOM     24  F   UNL     1       6.044  -5.439  -1.013  0.00  0.00    -0.133 F 
ATOM     25  F   UNL     1       5.286  -4.141   0.707  0.00  0.00    -0.133 F 
ATOM     26  F   UNL     1       4.204  -6.082   0.178  0.00  0.00    -0.133 F 
ENDBRANCH  22  23
ENDBRANCH  21  22
ENDBRANCH  13  16
BRANCH   1  27
ATOM     27  C   UNL     1       0.743  -1.938   0.732  0.00  0.00    +0.183 C 
BRANCH  27  28
ATOM     28  C   UNL     1       1.768  -1.150   1.507  0.00  0.00    +0.327 C 
ATOM     29  O   UNL     1       2.842  -0.904   1.010  0.00  0.00    -0.249 OA
BRANCH  28  30
ATOM     30  O   UNL     1       1.488  -0.722   2.747  0.00  0.00    -0.467 OA
ATOM     31  C   UNL     1       2.506   0.020   3.423  0.00  0.00    +0.280 C 
ENDBRANCH  28  30
ENDBRANCH  27  28
BRANCH  27  32
ATOM     32  C   UNL     1       0.400  -3.219   1.497  0.00  0.00    +0.036 C 
BRANCH  32  34
ATOM     33  C   UNL     1      -0.987  -5.296   1.468  0.00  0.00    +0.007 C 
ATOM     34  C   UNL     1      -0.729  -3.957   0.775  0.00  0.00    -0.015 C 
ATOM     35  C   UNL     1      -2.001  -3.108   0.816  0.00  0.00    +0.007 C 
ENDBRANCH  32  34
ENDBRANCH  27  32
ENDBRANCH   1  27
TORSDOF 8
