REMARK  Name = ZINC00680027
REMARK  9 active torsions:
REMARK  status: ('A' for Active; 'I' for Inactive)
REMARK    1  A    between atoms: C_1  and  C_2
REMARK    2  A    between atoms: C_2  and  C_3
REMARK    3  A    between atoms: C_3  and  C_4
REMARK    4  A    between atoms: C_11  and  N_16
REMARK    5  A    between atoms: C_12  and  C_13
REMARK    6  A    between atoms: C_17  and  C_19
REMARK    7  A    between atoms: C_19  and  O_20
REMARK    8  A    between atoms: O_20  and  C_21
REMARK    9  A    between atoms: C_26  and  C_27
REMARK                            x       y       z     vdW  Elec       q    Type
REMARK                         _______ _______ _______ _____ _____    ______ ____
ROOT
ATOM      1  C   UNL     1      -1.466   3.603   2.534  0.00  0.00    -0.006 C 
ATOM      2  C   UNL     1      -1.598   5.127   2.485  0.00  0.00    +0.008 C 
ATOM      3  C   UNL     1      -2.522   5.606   3.606  0.00  0.00    +0.037 C 
ATOM      4  C   UNL     1      -2.032   5.025   4.927  0.00  0.00    -0.023 A 
ATOM      5  C   UNL     1      -1.199   3.962   4.952  0.00  0.00    -0.004 A 
ATOM      6  S   UNL     1      -0.911   3.654   6.672  0.00  0.00    -0.077 S 
ATOM      7  C   UNL     1      -1.884   4.918   7.349  0.00  0.00    +0.084 A 
ATOM      8  C   UNL     1      -2.408   5.548   6.229  0.00  0.00    +0.068 A 
ATOM      9  C   UNL     1      -0.649   3.217   3.776  0.00  0.00    +0.046 C 
ENDROOT
BRANCH   8  10
ATOM     10  C   UNL     1      -3.307   6.700   6.355  0.00  0.00    +0.244 C 
ATOM     11  O   UNL     1      -4.509   6.528   6.430  0.00  0.00    -0.270 OA
ATOM     12  N   UNL     1      -2.801   7.949   6.389  0.00  0.00    -0.325 N 
ATOM     13  H   UNL     1      -1.843   8.086   6.330  0.00  0.00    +0.145 HD
ATOM     14  H   UNL     1      -3.396   8.710   6.473  0.00  0.00    +0.145 HD
ENDBRANCH   8  10
BRANCH   7  15
ATOM     15  N   UNL     1      -2.089   5.226   8.685  0.00  0.00    -0.277 N 
ATOM     16  C   UNL     1      -1.489   4.493   9.645  0.00  0.00    +0.255 C 
ATOM     17  O   UNL     1      -0.770   3.566   9.340  0.00  0.00    -0.272 OA
ATOM     18  H   UNL     1      -2.664   5.968   8.930  0.00  0.00    +0.155 HD
BRANCH  16  19
ATOM     19  C   UNL     1      -1.712   4.827  11.098  0.00  0.00    +0.324 C 
BRANCH  19  20
ATOM     20  O   UNL     1      -0.976   3.915  11.915  0.00  0.00    -0.483 OA
BRANCH  20  21
ATOM     21  C   UNL     1      -1.068   4.080  13.261  0.00  0.00    +0.124 A 
ATOM     22  C   UNL     1      -1.852   5.098  13.784  0.00  0.00    +0.046 A 
ATOM     23  C   UNL     1      -1.945   5.262  15.152  0.00  0.00    +0.004 A 
ATOM     24  C   UNL     1      -1.257   4.413  16.000  0.00  0.00    +0.000 A 
ATOM     25  C   UNL     1      -0.476   3.398  15.481  0.00  0.00    +0.007 A 
ATOM     26  C   UNL     1      -0.384   3.226  14.113  0.00  0.00    -0.009 A 
ATOM     27  C   UNL     1       0.464   2.115  13.548  0.00  0.00    +0.047 C 
ENDBRANCH  20  21
ENDBRANCH  19  20
ENDBRANCH  16  19
ENDBRANCH   7  15
BRANCH   1  28
ATOM     28  C   UNL     1      -0.750   3.109   1.275  0.00  0.00    +0.003 C 
BRANCH  28  30
ATOM     29  C   UNL     1      -0.013   1.086   0.008  0.00  0.00    +0.004 C 
ATOM     30  C   UNL     1      -0.729   1.579   1.267  0.00  0.00    -0.003 C 
ENDBRANCH  28  30
ENDBRANCH   1  28
TORSDOF 7
