REMARK  Name = ZINC14546322
REMARK  6 active torsions:
REMARK  status: ('A' for Active; 'I' for Inactive)
REMARK    1  A    between atoms: C_1  and  O_2
REMARK    2  A    between atoms: O_2  and  C_3
REMARK    3  A    between atoms: C_8  and  C_9
REMARK    4  A    between atoms: C_22  and  O_25
REMARK    5  A    between atoms: O_25  and  C_26
REMARK    6  A    between atoms: C_26  and  C_27
REMARK                            x       y       z     vdW  Elec       q    Type
REMARK                         _______ _______ _______ _____ _____    ______ ____
ROOT
ATOM      1  C   UNL     1      -0.082   5.350   0.031  0.00  0.00    +0.109 C 
ATOM      2  C   UNL     1       0.141   5.863   1.438  0.00  0.00    +0.029 C 
ATOM      3  C   UNL     1       1.490   5.574   2.105  0.00  0.00    +0.033 C 
ATOM      4  C   UNL     1       1.631   6.778   3.041  0.00  0.00    -0.030 C 
ATOM      5  C   UNL     1       0.943   7.807   2.560  0.00  0.00    -0.023 C 
ATOM      6  C   UNL     1       0.327   7.404   1.272  0.00  0.00    +0.049 C 
ATOM      7  C   UNL     1      -0.973   7.939   0.809  0.00  0.00    -0.016 A 
ATOM      8  C   UNL     1      -1.409   9.197   1.173  0.00  0.00    +0.006 A 
ATOM      9  C   UNL     1      -2.622   9.679   0.719  0.00  0.00    +0.004 A 
ATOM     10  C   UNL     1      -3.403   8.894  -0.110  0.00  0.00    +0.047 A 
ATOM     11  C   UNL     1      -2.977   7.633  -0.476  0.00  0.00    +0.142 A 
ATOM     12  C   UNL     1      -1.754   7.129  -0.017  0.00  0.00    +0.074 A 
ATOM     13  N   UNL     1      -1.404   5.833  -0.402  0.00  0.00    -0.334 N 
ATOM     14  H   UNL     1      -1.530   5.703  -1.394  0.00  0.00    +0.147 HD
ENDROOT
BRANCH   1  20
ATOM     15  C   UNL     1       1.155   3.169   0.008  0.00  0.00    +0.125 A 
ATOM     16  C   UNL     1       1.174   1.782   0.000  0.00  0.00    +0.046 A 
ATOM     17  C   UNL     1      -0.013   1.076   0.008  0.00  0.00    +0.004 A 
ATOM     18  C   UNL     1      -1.220   1.750   0.017  0.00  0.00    +0.001 A 
ATOM     19  C   UNL     1      -1.242   3.132   0.030  0.00  0.00    +0.009 A 
ATOM     20  C   UNL     1      -0.057   3.844   0.022  0.00  0.00    +0.015 A 
BRANCH  15  22
ATOM     21  C   UNL     1       3.531   3.107  -0.014  0.00  0.00    +0.277 C 
ATOM     22  O   UNL     1       2.321   3.867   0.001  0.00  0.00    -0.495 OA
ENDBRANCH  15  22
ENDBRANCH   1  20
BRANCH  11  23
ATOM     23  O   UNL     1      -3.754   6.871  -1.292  0.00  0.00    -0.486 OA
BRANCH  23  24
ATOM     24  C   UNL     1      -4.991   7.440  -1.727  0.00  0.00    +0.264 C 
BRANCH  24  25
ATOM     25  C   UNL     1      -5.710   6.458  -2.615  0.00  0.00    -0.010 A 
ATOM     26  C   UNL     1      -5.494   6.475  -3.981  0.00  0.00    +0.007 A 
ATOM     27  C   UNL     1      -6.151   5.571  -4.795  0.00  0.00    +0.000 A 
ATOM     28  C   UNL     1      -7.030   4.657  -4.246  0.00  0.00    +0.000 A 
ATOM     29  C   UNL     1      -7.250   4.644  -2.881  0.00  0.00    +0.000 A 
ATOM     30  C   UNL     1      -6.590   5.545  -2.066  0.00  0.00    +0.007 A 
ENDBRANCH  24  25
ENDBRANCH  23  24
ENDBRANCH  11  23
TORSDOF 5
