REMARK  Name = ZINC48074538
REMARK  6 active torsions:
REMARK  status: ('A' for Active; 'I' for Inactive)
REMARK    1  A    between atoms: C_4  and  C_7
REMARK    2  A    between atoms: C_4  and  N_20
REMARK    3  A    between atoms: C_7  and  N_8
REMARK    4  A    between atoms: C_9  and  C_11
REMARK    5  A    between atoms: C_11  and  N_12
REMARK    6  A    between atoms: C_13  and  C_15
REMARK                            x       y       z     vdW  Elec       q    Type
REMARK                         _______ _______ _______ _____ _____    ______ ____
ROOT
ATOM      1  C   UNL     1       2.819  -0.310  -0.117  0.00  0.00    +0.092 C 
ENDROOT
BRANCH   1   5
ATOM      2  C   UNL     1      -0.286   1.275   0.455  0.00  0.00    -0.000 C 
ATOM      3  C   UNL     1       1.064   1.988   0.353  0.00  0.00    -0.001 C 
ATOM      4  C   UNL     1       2.001   1.462   1.442  0.00  0.00    -0.010 C 
ATOM      5  C   UNL     1       2.204  -0.043   1.258  0.00  0.00    -0.050 C 
ATOM      6  C   UNL     1       0.854  -0.756   1.359  0.00  0.00    -0.010 C 
ATOM      7  C   UNL     1      -0.084  -0.230   0.270  0.00  0.00    -0.001 C 
BRANCH   5   8
ATOM      8  N   UNL     1       3.103  -0.548   2.303  0.00  0.00    +0.384 N 
ATOM      9  C   UNL     1       3.341  -1.982   2.092  0.00  0.00    -0.078 C 
ATOM     10  C   UNL     1       4.341  -2.495   3.131  0.00  0.00    -0.019 C 
ATOM     11  C   UNL     1       3.771  -2.272   4.534  0.00  0.00    -0.004 C 
ATOM     12  C   UNL     1       3.458  -0.784   4.716  0.00  0.00    -0.019 C 
ATOM     13  C   UNL     1       2.491  -0.333   3.620  0.00  0.00    -0.078 C 
ATOM     14  H   UNL     1       3.982  -0.054   2.257  0.00  0.00    -0.081 HD
ENDBRANCH   5   8
ENDBRANCH   1   5
BRANCH   1  15
ATOM     15  N   UNL     1       4.168   0.261  -0.168  0.00  0.00    -0.315 N 
ATOM     16  C   UNL     1       4.890   0.184  -1.303  0.00  0.00    +0.230 C 
ATOM     17  O   UNL     1       4.423  -0.357  -2.283  0.00  0.00    -0.274 OA
ATOM     18  H   UNL     1       4.540   0.695   0.616  0.00  0.00    +0.149 HD
BRANCH  16  19
ATOM     19  C   UNL     1       6.276   0.772  -1.355  0.00  0.00    +0.200 C 
BRANCH  19  20
ATOM     20  N   UNL     1       6.846   0.561  -2.688  0.00  0.00    -0.306 N 
ATOM     21  C   UNL     1       8.087   1.006  -2.969  0.00  0.00    +0.217 C 
ATOM     22  O   UNL     1       8.732   1.581  -2.118  0.00  0.00    -0.276 OA
ATOM     23  H   UNL     1       6.331   0.101  -3.369  0.00  0.00    +0.149 HD
BRANCH  21  24
ATOM     24  C   UNL     1       8.674   0.789  -4.340  0.00  0.00    +0.075 C 
ATOM     25  C   UNL     1       8.817  -0.721  -4.620  0.00  0.00    +0.013 C 
ATOM     26  C   UNL     1      10.141  -0.836  -5.415  0.00  0.00    +0.001 C 
ATOM     27  C   UNL     1      11.046   0.215  -4.727  0.00  0.00    +0.001 C 
ATOM     28  C   UNL     1      10.091   1.385  -4.407  0.00  0.00    +0.013 C 
ENDBRANCH  21  24
ENDBRANCH  19  20
ENDBRANCH  16  19
ENDBRANCH   1  15
TORSDOF 6
