REMARK  Name = ZINC40410214
REMARK  8 active torsions:
REMARK  status: ('A' for Active; 'I' for Inactive)
REMARK    1  A    between atoms: C_1  and  C_2
REMARK    2  A    between atoms: C_7  and  C_8
REMARK    3  A    between atoms: N_18  and  C_19
REMARK    4  A    between atoms: C_19  and  C_20
REMARK    5  A    between atoms: C_22  and  O_28
REMARK    6  A    between atoms: C_25  and  O_26
REMARK    7  A    between atoms: O_26  and  C_27
REMARK    8  A    between atoms: O_28  and  C_29
REMARK                            x       y       z     vdW  Elec       q    Type
REMARK                         _______ _______ _______ _____ _____    ______ ____
ROOT
ATOM      1  C   UNL     1       0.243   0.128   2.407  0.00  0.00    +0.011 C 
ATOM      2  C   UNL     1       1.622   0.722   2.557  0.00  0.00    +0.009 A 
ATOM      3  C   UNL     1       2.449   1.077   1.555  0.00  0.00    +0.021 A 
ATOM      4  C   UNL     1       3.621   1.598   2.139  0.00  0.00    +0.019 A 
ATOM      5  C   UNL     1       3.467   1.537   3.477  0.00  0.00    +0.086 A 
ATOM      6  N   UNL     1       2.247   0.992   3.741  0.00  0.00    -0.352 N 
ATOM      7  C   UNL     1       1.683   0.719   5.068  0.00  0.00    +0.119 C 
ATOM      8  C   UNL     1       0.234   1.213   5.104  0.00  0.00    +0.003 C 
ATOM      9  C   UNL     1      -0.698   0.110   4.620  0.00  0.00    -0.075 C 
ATOM     10  N   UNL     1      -0.059  -0.703   3.582  0.00  0.00    +0.391 N 
ATOM     11  H   UNL     1       0.798  -1.094   3.943  0.00  0.00    -0.080 HD
ENDROOT
BRANCH   1  18
ATOM     12  C   UNL     1      -1.496   0.865   0.221  0.00  0.00    +0.044 C 
ATOM     13  C   UNL     1      -0.638  -0.370   0.118  0.00  0.00    -0.048 A 
ATOM     14  C   UNL     1      -0.679  -1.146  -1.025  0.00  0.00    +0.003 A 
ATOM     15  C   UNL     1       0.107  -2.279  -1.119  0.00  0.00    +0.000 A 
ATOM     16  C   UNL     1       0.935  -2.635  -0.071  0.00  0.00    +0.000 A 
ATOM     17  C   UNL     1       0.977  -1.858   1.071  0.00  0.00    +0.002 A 
ATOM     18  C   UNL     1       0.193  -0.723   1.164  0.00  0.00    -0.052 A 
ENDBRANCH   1  18
BRANCH  10  19
ATOM     19  C   UNL     1      -0.963  -1.792   3.189  0.00  0.00    -0.038 C 
BRANCH  19  20
ATOM     20  C   UNL     1      -1.216  -2.687   4.375  0.00  0.00    -0.019 A 
ATOM     21  C   UNL     1      -0.523  -3.875   4.503  0.00  0.00    +0.051 A 
ATOM     22  C   UNL     1      -0.755  -4.699   5.595  0.00  0.00    +0.121 A 
ATOM     23  C   UNL     1      -1.683  -4.329   6.558  0.00  0.00    +0.049 A 
ATOM     24  C   UNL     1      -2.375  -3.141   6.429  0.00  0.00    +0.049 A 
ATOM     25  C   UNL     1      -2.139  -2.315   5.340  0.00  0.00    +0.122 A 
BRANCH  25  26
ATOM     26  O   UNL     1      -2.817  -1.143   5.216  0.00  0.00    -0.495 OA
ATOM     27  C   UNL     1      -3.753  -0.822   6.247  0.00  0.00    +0.277 C 
ENDBRANCH  25  26
BRANCH  22  28
ATOM     28  O   UNL     1      -0.073  -5.869   5.721  0.00  0.00    -0.495 OA
ATOM     29  C   UNL     1      -0.363  -6.667   6.870  0.00  0.00    +0.277 C 
ENDBRANCH  22  28
ENDBRANCH  19  20
ENDBRANCH  10  19
TORSDOF 5
