REMARK  Name = ZINC09695275
REMARK  8 active torsions:
REMARK  status: ('A' for Active; 'I' for Inactive)
REMARK    1  A    between atoms: C_1  and  C_2
REMARK    2  A    between atoms: C_2  and  O_3
REMARK    3  A    between atoms: O_3  and  C_4
REMARK    4  A    between atoms: C_4  and  C_6
REMARK    5  A    between atoms: C_7  and  N_31
REMARK    6  A    between atoms: C_12  and  C_13
REMARK    7  A    between atoms: C_20  and  C_28
REMARK    8  A    between atoms: C_21  and  C_23
REMARK                            x       y       z     vdW  Elec       q    Type
REMARK                         _______ _______ _______ _____ _____    ______ ____
ROOT
ATOM      1  C   UNL     1       2.428   0.038  -0.321  0.00  0.00    +0.087 C 
ATOM      2  C   UNL     1       1.323  -0.663   0.027  0.00  0.00    +0.115 C 
ATOM      3  N   UNL     1       0.100  -0.073   0.355  0.00  0.00    -0.257 N 
ATOM      4  C   UNL     1      -0.999  -0.771   0.702  0.00  0.00    +0.271 A 
ATOM      5  O   UNL     1      -0.962  -1.987   0.742  0.00  0.00    -0.266 OA
ATOM      6  C   UNL     1      -2.198  -0.085   1.020  0.00  0.00    +0.080 A 
ATOM      7  C   UNL     1      -3.410  -0.589   1.391  0.00  0.00    +0.035 C 
ATOM      8  S   UNL     1      -1.696   1.616   0.810  0.00  0.00    -0.065 S 
ATOM      9  C   UNL     1      -0.010   1.304   0.329  0.00  0.00    +0.099 A 
ATOM     10  C   UNL     1       1.009   2.154  -0.002  0.00  0.00    +0.057 C 
ATOM     11  C   UNL     1       2.353   1.551  -0.363  0.00  0.00    +0.103 C 
ENDROOT
BRANCH   7  12
ATOM     12  C   UNL     1      -4.486   0.286   1.665  0.00  0.00    +0.013 A 
ATOM     13  C   UNL     1      -5.788  -0.018   2.048  0.00  0.00    +0.015 A 
ATOM     14  C   UNL     1      -6.639   1.040   2.255  0.00  0.00    +0.008 A 
ATOM     15  C   UNL     1      -6.182   2.306   2.069  0.00  0.00    +0.046 A 
ATOM     16  S   UNL     1      -4.530   2.069   1.602  0.00  0.00    -0.097 S 
ENDBRANCH   7  12
BRANCH  11  17
ATOM     17  C   UNL     1       3.384   2.101   0.589  0.00  0.00    +0.002 A 
ATOM     18  C   UNL     1       4.437   2.914   0.330  0.00  0.00    +0.012 A 
ATOM     19  C   UNL     1       5.260   3.297   1.372  0.00  0.00    +0.008 A 
ATOM     20  C   UNL     1       4.990   2.848   2.622  0.00  0.00    +0.045 A 
ATOM     21  S   UNL     1       3.530   1.857   2.351  0.00  0.00    -0.101 S 
ENDBRANCH  11  17
BRANCH  10  22
ATOM     22  C   UNL     1       0.817   3.544  -0.005  0.00  0.00    +0.241 C 
ATOM     23  O   UNL     1      -0.271   4.010   0.290  0.00  0.00    -0.271 OA
ATOM     24  N   UNL     1       1.834   4.364  -0.334  0.00  0.00    -0.326 N 
ATOM     25  H   UNL     1       2.700   3.993  -0.568  0.00  0.00    +0.145 HD
ATOM     26  H   UNL     1       1.702   5.325  -0.336  0.00  0.00    +0.145 HD
ENDBRANCH  10  22
BRANCH   2  27
ATOM     27  N   UNL     1       1.409  -2.030   0.060  0.00  0.00    -0.344 N 
ATOM     28  H   UNL     1       0.675  -2.571  -0.272  0.00  0.00    +0.144 HD
ATOM     29  H   UNL     1       2.205  -2.457   0.414  0.00  0.00    +0.144 HD
ENDBRANCH   2  27
BRANCH   1  30
ATOM     30  C   UNL     1       3.623  -0.625  -0.637  0.00  0.00    +0.339 C 
ATOM     31  O   UNL     1       3.645  -1.841  -0.704  0.00  0.00    -0.245 OA
BRANCH  30  32
ATOM     32  O   UNL     1       4.749   0.084  -0.867  0.00  0.00    -0.462 OA
BRANCH  32  34
ATOM     33  C   UNL     1       7.093   0.311  -1.409  0.00  0.00    +0.048 C 
ATOM     34  C   UNL     1       5.929  -0.656  -1.183  0.00  0.00    +0.229 C 
ENDBRANCH  32  34
ENDBRANCH  30  32
ENDBRANCH   1  30
TORSDOF 7
