REMARK  Name = ZINC05450575
REMARK  3 active torsions:
REMARK  status: ('A' for Active; 'I' for Inactive)
REMARK    1  A    between atoms: C_5  and  C_7
REMARK    2  A    between atoms: N_13  and  N_14
REMARK    3  A    between atoms: C_15  and  C_16
REMARK                            x       y       z     vdW  Elec       q    Type
REMARK                         _______ _______ _______ _____ _____    ______ ____
ROOT
ATOM      1  C   UNL     1       5.583   0.759   1.069  0.00  0.00    +0.186 A 
ATOM      2  N   UNL     1       6.702   0.231   0.655  0.00  0.00    -0.151 NA
ATOM      3  N   UNL     1       6.622   0.081  -0.736  0.00  0.00    -0.253 N 
ATOM      4  H   UNL     1       7.311  -0.283  -1.313  0.00  0.00    +0.191 HD
ATOM      5  C   UNL     1       5.413   0.533  -1.125  0.00  0.00    +0.197 A 
ATOM      6  S   UNL     1       4.816   0.571  -2.729  0.00  0.00    -0.010 S 
ATOM      7  N   UNL     1       4.758   0.952  -0.023  0.00  0.00    -0.188 N 
ENDROOT
BRANCH   1  12
ATOM      8  C   UNL     1       4.377   2.631   4.094  0.00  0.00    +0.001 A 
ATOM      9  C   UNL     1       4.628   1.714   5.099  0.00  0.00    +0.003 A 
ATOM     10  C   UNL     1       5.189   0.486   4.798  0.00  0.00    +0.039 A 
ATOM     11  C   UNL     1       5.497   0.166   3.489  0.00  0.00    +0.134 A 
ATOM     12  C   UNL     1       5.251   1.091   2.472  0.00  0.00    +0.056 A 
ATOM     13  C   UNL     1       4.684   2.327   2.784  0.00  0.00    +0.014 A 
ATOM     14  F   UNL     1       6.040  -1.036   3.196  0.00  0.00    -0.205 F 
ENDBRANCH   1  12
BRANCH   7  15
ATOM     15  N   UNL     1       3.467   1.494   0.008  0.00  0.00    -0.171 NA
ATOM     16  C   UNL     1       2.439   0.715   0.152  0.00  0.00    +0.141 C 
BRANCH  16  17
ATOM     17  C   UNL     1       1.080   1.286   0.185  0.00  0.00    -0.005 A 
ATOM     18  C   UNL     1      -0.029   0.450   0.339  0.00  0.00    +0.010 A 
ATOM     19  C   UNL     1      -1.297   0.990   0.364  0.00  0.00    +0.016 A 
ATOM     20  C   UNL     1      -1.473   2.359   0.248  0.00  0.00    +0.018 A 
ATOM     21  C   UNL     1      -0.378   3.193   0.096  0.00  0.00    +0.016 A 
ATOM     22  C   UNL     1       0.895   2.665   0.063  0.00  0.00    +0.010 A 
ATOM     23 BR   UNL     1      -3.216   3.091   0.292  0.00  0.00    -0.050 Br
ENDBRANCH  16  17
ENDBRANCH   7  15
TORSDOF 3
