REMARK  Name = ZINC40988594
REMARK  6 active torsions:
REMARK  status: ('A' for Active; 'I' for Inactive)
REMARK    1  A    between atoms: C_3  and  C_6
REMARK    2  A    between atoms: C_6  and  C_8
REMARK    3  A    between atoms: C_6  and  N_29
REMARK    4  A    between atoms: C_8  and  N_9
REMARK    5  A    between atoms: C_10  and  C_12
REMARK    6  A    between atoms: N_15  and  C_17
REMARK                            x       y       z     vdW  Elec       q    Type
REMARK                         _______ _______ _______ _____ _____    ______ ____
ROOT
ATOM      1  N   UNL     1       5.785   2.168  -1.371  0.00  0.00    -0.311 N 
ATOM      2  C   UNL     1       6.521   2.208  -2.499  0.00  0.00    +0.264 C 
ATOM      3  O   UNL     1       6.043   1.828  -3.551  0.00  0.00    -0.268 OA
ATOM      4  H   UNL     1       6.166   2.472  -0.532  0.00  0.00    +0.149 HD
ENDROOT
BRANCH   2   5
ATOM      5  C   UNL     1       7.908   2.713  -2.459  0.00  0.00    +0.150 A 
ATOM      6  C   UNL     1       8.794   2.821  -3.544  0.00  0.00    +0.006 A 
ATOM      7  C   UNL     1       9.944   3.329  -3.037  0.00  0.00    +0.044 A 
ATOM      8  N   UNL     1       9.750   3.516  -1.721  0.00  0.00    -0.263 N 
ATOM      9  N   UNL     1       8.556   3.157  -1.396  0.00  0.00    -0.166 NA
ATOM     10  C   UNL     1      11.175   3.606  -3.861  0.00  0.00    +0.055 C 
ATOM     11  C   UNL     1      11.046   2.851  -5.190  0.00  0.00    +0.006 C 
ATOM     12  C   UNL     1       9.681   3.144  -5.819  0.00  0.00    +0.005 C 
ATOM     13  C   UNL     1       8.580   2.469  -4.990  0.00  0.00    +0.039 C 
BRANCH   8  14
ATOM     14  C   UNL     1      10.748   4.054  -0.793  0.00  0.00    +0.130 C 
ATOM     15  C   UNL     1      11.020   3.034   0.325  0.00  0.00    +0.051 C 
ATOM     16  C   UNL     1      11.816   3.706   1.470  0.00  0.00    +0.168 C 
ATOM     17  S   UNL     1      11.296   5.466   1.344  0.00  0.00    -0.029 S 
ATOM     18  O   UNL     1      10.502   5.795   2.476  0.00  0.00    -0.174 OA
ATOM     19  O   UNL     1      12.430   6.261   1.030  0.00  0.00    -0.174 OA
ATOM     20  C   UNL     1      10.208   5.357  -0.139  0.00  0.00    +0.192 C 
ENDBRANCH   8  14
ENDBRANCH   2   5
BRANCH   1  21
ATOM     21  C   UNL     1       4.409   1.667  -1.411  0.00  0.00    +0.094 C 
BRANCH  21  22
ATOM     22  C   UNL     1       3.759   1.852  -0.038  0.00  0.00    -0.013 C 
BRANCH  22  23
ATOM     23  N   UNL     1       2.426   1.234  -0.041  0.00  0.00    +0.386 N 
ATOM     24  C   UNL     1       2.539  -0.229  -0.271  0.00  0.00    -0.078 C 
ATOM     25  C   UNL     1       1.210  -0.782   0.302  0.00  0.00    -0.020 C 
ATOM     26  C   UNL     1       0.973   0.107   1.544  0.00  0.00    -0.020 C 
ATOM     27  C   UNL     1       1.791   1.386   1.286  0.00  0.00    -0.078 C 
ATOM     28  H   UNL     1       1.848   1.655  -0.753  0.00  0.00    -0.081 HD
ENDBRANCH  22  23
BRANCH  22  31
ATOM     29  C   UNL     1       4.106   5.446   1.173  0.00  0.00    +0.008 A 
ATOM     30  C   UNL     1       4.418   4.106   1.040  0.00  0.00    +0.009 A 
ATOM     31  C   UNL     1       3.630   3.323   0.263  0.00  0.00    -0.022 A 
ATOM     32  S   UNL     1       2.403   4.485  -0.310  0.00  0.00    -0.103 S 
ATOM     33  C   UNL     1       3.022   5.937   0.524  0.00  0.00    +0.045 A 
ENDBRANCH  22  31
ENDBRANCH  21  22
ENDBRANCH   1  21
TORSDOF 6
