REMARK  Name = ZINC21265482
REMARK  12 active torsions:
REMARK  status: ('A' for Active; 'I' for Inactive)
REMARK    1  A    between atoms: C_1  and  C_2
REMARK    2  A    between atoms: C_2  and  C_3
REMARK    3  A    between atoms: N_9  and  S_10
REMARK    4  A    between atoms: S_10  and  C_13
REMARK    5  A    between atoms: C_16  and  N_19
REMARK    6  A    between atoms: C_20  and  C_22
REMARK    7  A    between atoms: C_22  and  N_23
REMARK    8  A    between atoms: N_23  and  C_24
REMARK    9  A    between atoms: C_24  and  C_25
REMARK   10  A    between atoms: C_25  and  C_26
REMARK   11  A    between atoms: C_29  and  S_32
REMARK   12  A    between atoms: S_32  and  N_35
REMARK                            x       y       z     vdW  Elec       q    Type
REMARK                         _______ _______ _______ _____ _____    ______ ____
ROOT
ATOM      1  N   UNL     1       8.723   2.510  -0.528  0.00  0.00    -0.287 N 
ATOM      2  C   UNL     1       9.340   3.700  -0.661  0.00  0.00    +0.200 C 
ATOM      3  O   UNL     1       8.771   4.718  -0.327  0.00  0.00    -0.278 OA
ATOM      4  H   UNL     1       9.213   1.593  -0.889  0.00  0.00    +0.155 HD
ENDROOT
BRANCH   1   8
ATOM      5  C   UNL     1       4.960   2.299   1.247  0.00  0.00    +0.106 A 
ATOM      6  C   UNL     1       5.876   1.283   1.450  0.00  0.00    +0.030 A 
ATOM      7  C   UNL     1       7.123   1.348   0.859  0.00  0.00    +0.025 A 
ATOM      8  C   UNL     1       7.459   2.439   0.068  0.00  0.00    +0.033 A 
ATOM      9  C   UNL     1       6.538   3.460  -0.129  0.00  0.00    +0.025 A 
ATOM     10  C   UNL     1       5.292   3.387   0.461  0.00  0.00    +0.030 A 
BRANCH   5  11
ATOM     11  S   UNL     1       3.368   2.210   1.997  0.00  0.00    +0.061 S 
ATOM     12  O   UNL     1       2.826   3.523   1.958  0.00  0.00    -0.153 OA
ATOM     13  O   UNL     1       3.531   1.489   3.211  0.00  0.00    -0.153 OA
BRANCH  11  19
ATOM     14  C   UNL     1       1.768   1.854  -0.169  0.00  0.00    +0.080 C 
ATOM     15  C   UNL     1       0.266   1.559  -0.104  0.00  0.00    +0.021 C 
ATOM     16  C   UNL     1       0.053   0.052   0.056  0.00  0.00    +0.003 C 
ATOM     17  C   UNL     1       0.695  -0.420   1.363  0.00  0.00    +0.017 C 
ATOM     18  C   UNL     1       2.202  -0.147   1.314  0.00  0.00    +0.110 C 
ATOM     19  N   UNL     1       2.415   1.276   1.016  0.00  0.00    -0.174 NA
BRANCH  14  21
ATOM     20  C   UNL     1       1.498   3.939  -1.520  0.00  0.00    +0.005 C 
ATOM     21  C   UNL     1       1.993   3.368  -0.190  0.00  0.00    +0.017 C 
ENDBRANCH  14  21
ENDBRANCH  11  19
ENDBRANCH   5  11
ENDBRANCH   1   8
BRANCH   2  22
ATOM     22  C   UNL     1      10.737   3.767  -1.223  0.00  0.00    +0.015 C 
BRANCH  22  23
ATOM     23  N   UNL     1      11.182   5.166  -1.264  0.00  0.00    +0.385 N 
ATOM     24  H   UNL     1      10.502   5.748  -1.903  0.00  0.00    -0.085 HD
ATOM     25  H   UNL     1      11.176   5.583  -0.246  0.00  0.00    -0.085 HD
BRANCH  23  26
ATOM     26  C   UNL     1      12.543   5.270  -1.808  0.00  0.00    -0.077 C 
BRANCH  26  27
ATOM     27  C   UNL     1      12.970   6.738  -1.835  0.00  0.00    +0.016 C 
BRANCH  27  28
ATOM     28  C   UNL     1      14.366   6.845  -2.393  0.00  0.00    -0.049 A 
ATOM     29  C   UNL     1      15.456   6.789  -1.544  0.00  0.00    +0.005 A 
ATOM     30  C   UNL     1      16.736   6.882  -2.056  0.00  0.00    +0.029 A 
ATOM     31  C   UNL     1      16.927   7.040  -3.416  0.00  0.00    +0.105 A 
ATOM     32  C   UNL     1      15.838   7.101  -4.264  0.00  0.00    +0.029 A 
ATOM     33  C   UNL     1      14.557   7.004  -3.752  0.00  0.00    +0.005 A 
BRANCH  31  34
ATOM     34  S   UNL     1      18.559   7.163  -4.068  0.00  0.00    +0.056 S 
ATOM     35  O   UNL     1      19.420   6.531  -3.131  0.00  0.00    -0.153 OA
ATOM     36  O   UNL     1      18.485   6.758  -5.428  0.00  0.00    -0.153 OA
BRANCH  34  37
ATOM     37  N   UNL     1      18.965   8.769  -4.074  0.00  0.00    -0.204 NA
ATOM     38  H   UNL     1      19.982   8.889  -4.476  0.00  0.00    +0.144 HD
ATOM     39  H   UNL     1      18.928   9.160  -3.046  0.00  0.00    +0.144 HD
ENDBRANCH  34  37
ENDBRANCH  31  34
ENDBRANCH  27  28
ENDBRANCH  26  27
ENDBRANCH  23  26
ENDBRANCH  22  23
ENDBRANCH   2  22
TORSDOF 11
