REMARK  Name = ZINC43260229
REMARK  9 active torsions:
REMARK  status: ('A' for Active; 'I' for Inactive)
REMARK    1  A    between atoms: C_1  and  C_2
REMARK    2  A    between atoms: C_2  and  C_4
REMARK    3  A    between atoms: C_2  and  N_21
REMARK    4  A    between atoms: C_4  and  C_6
REMARK    5  A    between atoms: C_4  and  N_12
REMARK    6  A    between atoms: N_12  and  C_13
REMARK    7  A    between atoms: N_12  and  C_14
REMARK    8  A    between atoms: C_14  and  C_15
REMARK    9  A    between atoms: N_17  and  C_18
REMARK                            x       y       z     vdW  Elec       q    Type
REMARK                         _______ _______ _______ _____ _____    ______ ____
ROOT
ATOM      1  C   UNL     1       0.971  -0.503   1.469  0.00  0.00    +0.079 C 
ENDROOT
BRANCH   1   2
ATOM      2  C   UNL     1       0.469   0.484   0.447  0.00  0.00    +0.006 A 
ATOM      3  C   UNL     1      -0.081   1.708   0.641  0.00  0.00    +0.014 A 
ATOM      4  C   UNL     1      -0.474   2.449  -0.458  0.00  0.00    +0.023 A 
ATOM      5  C   UNL     1      -0.297   1.928  -1.698  0.00  0.00    +0.055 A 
ATOM      6  S   UNL     1       0.451   0.349  -1.333  0.00  0.00    -0.085 S 
ATOM      7 BR   UNL     1      -0.726   2.683  -3.378  0.00  0.00    -0.043 Br
ENDBRANCH   1   2
BRANCH   1   9
ATOM      8  C   UNL     1       3.099   0.749   1.845  0.00  0.00    -0.012 C 
ATOM      9  C   UNL     1       2.497  -0.583   1.395  0.00  0.00    -0.056 C 
BRANCH   9  10
ATOM     10  N   UNL     1       2.974  -1.659   2.273  0.00  0.00    +0.381 N 
ATOM     11  H   UNL     1       2.623  -1.511   3.207  0.00  0.00    -0.090 HD
ATOM     12  H   UNL     1       2.645  -2.547   1.926  0.00  0.00    -0.090 HD
ATOM     13  H   UNL     1       3.983  -1.657   2.289  0.00  0.00    -0.090 HD
ENDBRANCH   9  10
ENDBRANCH   1   9
BRANCH   1  14
ATOM     14  N   UNL     1       0.397  -1.827   1.193  0.00  0.00    -0.291 NA
ATOM     15  C   UNL     1      -1.067  -1.802   1.312  0.00  0.00    +0.106 C 
BRANCH  14  16
ATOM     16  C   UNL     1       0.809  -2.314  -0.130  0.00  0.00    +0.180 C 
BRANCH  16  17
ATOM     17  C   UNL     1       0.569  -3.799  -0.216  0.00  0.00    +0.227 C 
ATOM     18  O   UNL     1       0.101  -4.394   0.731  0.00  0.00    -0.274 OA
ATOM     19  N   UNL     1       0.875  -4.467  -1.346  0.00  0.00    -0.311 N 
ATOM     20  H   UNL     1       1.250  -3.992  -2.104  0.00  0.00    +0.149 HD
BRANCH  19  21
ATOM     21  C   UNL     1       0.641  -5.911  -1.430  0.00  0.00    +0.073 C 
ATOM     22  C   UNL     1       1.740  -6.769  -2.062  0.00  0.00    +0.024 C 
ATOM     23  C   UNL     1       0.436  -6.514  -2.821  0.00  0.00    +0.024 C 
ENDBRANCH  19  21
ENDBRANCH  16  17
ENDBRANCH  14  16
ENDBRANCH   1  14
TORSDOF 7
