REMARK  Name = ZINC36151087
REMARK  14 active torsions:
REMARK  status: ('A' for Active; 'I' for Inactive)
REMARK    1  A    between atoms: C_1  and  C_2
REMARK    2  A    between atoms: C_2  and  C_3
REMARK    3  A    between atoms: C_2  and  C_4
REMARK    4  A    between atoms: C_4  and  N_5
REMARK    5  A    between atoms: N_5  and  C_6
REMARK    6  A    between atoms: N_5  and  C_24
REMARK    7  A    between atoms: C_6  and  C_7
REMARK    8  A    between atoms: C_8  and  C_18
REMARK    9  A    between atoms: C_11  and  N_12
REMARK   10  A    between atoms: C_24  and  C_25
REMARK   11  A    between atoms: C_25  and  C_27
REMARK   12  A    between atoms: C_25  and  O_35
REMARK   13  A    between atoms: C_27  and  O_28
REMARK   14  A    between atoms: O_28  and  C_29
REMARK                            x       y       z     vdW  Elec       q    Type
REMARK                         _______ _______ _______ _____ _____    ______ ____
ROOT
ATOM      1  N   UNL     1      -0.013   0.001   2.333  0.00  0.00    +0.384 N 
ATOM      2  H   UNL     1      -0.384   0.935   2.424  0.00  0.00    -0.081 HD
ENDROOT
BRANCH   1   3
ATOM      3  C   UNL     1       0.609  -0.151   1.011  0.00  0.00    -0.075 C 
BRANCH   3   5
ATOM      4  C   UNL     1      -0.709   1.733   0.034  0.00  0.00    +0.005 C 
ATOM      5  C   UNL     1      -0.396   0.239  -0.074  0.00  0.00    -0.034 C 
ATOM      6  C   UNL     1       0.199  -0.059  -1.452  0.00  0.00    +0.005 C 
ENDBRANCH   3   5
ENDBRANCH   1   3
BRANCH   1   7
ATOM      7  C   UNL     1      -1.102  -0.974   2.477  0.00  0.00    -0.035 C 
BRANCH   7   8
ATOM      8  C   UNL     1      -1.780  -0.777   3.808  0.00  0.00    +0.025 A 
ATOM      9  C   UNL     1      -1.514  -1.499   4.990  0.00  0.00    +0.117 A 
ATOM     10  N   UNL     1      -2.303  -1.039   5.932  0.00  0.00    -0.076 NA
ATOM     11  O   UNL     1      -3.096  -0.007   5.374  0.00  0.00    -0.339 OA
ATOM     12  C   UNL     1      -2.751   0.131   4.082  0.00  0.00    +0.222 A 
BRANCH  12  13
ATOM     13  N   UNL     1      -3.291   1.038   3.189  0.00  0.00    -0.299 N 
ATOM     14  C   UNL     1      -4.367   0.636   2.273  0.00  0.00    +0.108 C 
ATOM     15  C   UNL     1      -5.540   1.608   2.434  0.00  0.00    +0.019 C 
ATOM     16  C   UNL     1      -5.043   3.040   2.229  0.00  0.00    +0.003 C 
ATOM     17  C   UNL     1      -3.991   3.373   3.289  0.00  0.00    +0.019 C 
ATOM     18  C   UNL     1      -2.804   2.423   3.142  0.00  0.00    +0.108 C 
ENDBRANCH  12  13
BRANCH   9  19
ATOM     19  C   UNL     1      -0.516  -2.588   5.141  0.00  0.00    +0.004 A 
ATOM     20  C   UNL     1      -0.391  -3.564   4.155  0.00  0.00    +0.010 A 
ATOM     21  C   UNL     1       0.538  -4.574   4.301  0.00  0.00    +0.001 A 
ATOM     22  C   UNL     1       1.344  -4.619   5.424  0.00  0.00    +0.000 A 
ATOM     23  C   UNL     1       1.224  -3.653   6.407  0.00  0.00    +0.001 A 
ATOM     24  C   UNL     1       0.301  -2.636   6.268  0.00  0.00    +0.010 A 
ENDBRANCH   9  19
ENDBRANCH   7   8
ENDBRANCH   1   7
BRANCH   1  25
ATOM     25  C   UNL     1       0.993  -0.230   3.377  0.00  0.00    -0.043 C 
BRANCH  25  26
ATOM     26  C   UNL     1       2.064   0.861   3.305  0.00  0.00    +0.135 C 
BRANCH  26  27
ATOM     27  O   UNL     1       1.477   2.125   3.620  0.00  0.00    -0.390 OA
ATOM     28  H   UNL     1       1.084   2.168   4.502  0.00  0.00    +0.210 HD
ENDBRANCH  26  27
BRANCH  26  29
ATOM     29  C   UNL     1       3.176   0.551   4.310  0.00  0.00    +0.258 C 
BRANCH  29  30
ATOM     30  O   UNL     1       4.230   1.505   4.162  0.00  0.00    -0.489 OA
BRANCH  30  31
ATOM     31  C   UNL     1       5.303   1.371   4.985  0.00  0.00    +0.121 A 
ATOM     32  C   UNL     1       5.343   0.340   5.912  0.00  0.00    +0.045 A 
ATOM     33  C   UNL     1       6.435   0.205   6.748  0.00  0.00    +0.004 A 
ATOM     34  C   UNL     1       7.487   1.098   6.661  0.00  0.00    +0.000 A 
ATOM     35  C   UNL     1       7.449   2.127   5.738  0.00  0.00    +0.004 A 
ATOM     36  C   UNL     1       6.362   2.262   4.896  0.00  0.00    +0.045 A 
ENDBRANCH  30  31
ENDBRANCH  29  30
ENDBRANCH  26  29
ENDBRANCH  25  26
ENDBRANCH   1  25
TORSDOF 12
