REMARK  Name = ZINC04278046
REMARK  5 active torsions:
REMARK  status: ('A' for Active; 'I' for Inactive)
REMARK    1  A    between atoms: C_1  and  C_2
REMARK    2  A    between atoms: C_6  and  C_9
REMARK    3  A    between atoms: C_7  and  C_8
REMARK    4  A    between atoms: N_23  and  S_25
REMARK    5  A    between atoms: S_25  and  C_28
REMARK                            x       y       z     vdW  Elec       q    Type
REMARK                         _______ _______ _______ _____ _____    ______ ____
ROOT
ATOM      1  C   UNL     1       2.428  -1.569  -3.137  0.00  0.00    +0.047 A 
ATOM      2  C   UNL     1       1.080  -1.891  -3.090  0.00  0.00    +0.015 A 
ATOM      3  C   UNL     1       0.302  -1.362  -2.060  0.00  0.00    +0.022 A 
ATOM      4  C   UNL     1       0.846  -0.530  -1.130  0.00  0.00    +0.026 A 
ATOM      5  N   UNL     1       2.142  -0.148  -1.216  0.00  0.00    -0.311 N 
ATOM      6  C   UNL     1       2.951  -0.700  -2.155  0.00  0.00    +0.259 A 
ATOM      7  O   UNL     1       4.144  -0.443  -2.150  0.00  0.00    -0.267 OA
ATOM      8  C   UNL     1       2.741   0.866  -0.347  0.00  0.00    +0.130 C 
ATOM      9  C   UNL     1       1.922   1.115   0.905  0.00  0.00    +0.025 C 
ATOM     10  C   UNL     1       0.446   1.273   0.539  0.00  0.00    +0.017 C 
ATOM     11  C   UNL     1      -0.057  -0.064  -0.012  0.00  0.00    +0.052 C 
ATOM     12  C   UNL     1       0.017  -1.109   1.114  0.00  0.00    +0.119 C 
ATOM     13  N   UNL     1       1.425  -1.204   1.531  0.00  0.00    -0.176 NA
ATOM     14  C   UNL     1       2.117   0.022   1.946  0.00  0.00    +0.114 C 
ENDROOT
BRANCH   1  20
ATOM     15  C   UNL     1       5.894  -4.852  -4.595  0.00  0.00    +0.044 C 
ATOM     16  C   UNL     1       4.969  -3.703  -4.901  0.00  0.00    -0.047 A 
ATOM     17  C   UNL     1       4.934  -3.165  -6.176  0.00  0.00    +0.003 A 
ATOM     18  C   UNL     1       4.088  -2.110  -6.465  0.00  0.00    +0.001 A 
ATOM     19  C   UNL     1       3.272  -1.588  -5.482  0.00  0.00    +0.009 A 
ATOM     20  C   UNL     1       3.301  -2.125  -4.196  0.00  0.00    -0.010 A 
ATOM     21  C   UNL     1       4.161  -3.186  -3.909  0.00  0.00    -0.040 A 
ATOM     22  C   UNL     1       4.204  -3.769  -2.520  0.00  0.00    +0.044 C 
ENDBRANCH   1  20
BRANCH  13  23
ATOM     23  S   UNL     1       2.211  -2.662   1.533  0.00  0.00    +0.061 S 
ATOM     24  O   UNL     1       1.460  -3.530   0.696  0.00  0.00    -0.153 OA
ATOM     25  O   UNL     1       3.585  -2.382   1.304  0.00  0.00    -0.153 OA
BRANCH  23  26
ATOM     26  C   UNL     1       2.096  -3.314   3.166  0.00  0.00    +0.106 A 
ATOM     27  C   UNL     1       3.125  -3.109   4.066  0.00  0.00    +0.030 A 
ATOM     28  C   UNL     1       3.032  -3.615   5.349  0.00  0.00    +0.022 A 
ATOM     29  C   UNL     1       1.915  -4.337   5.729  0.00  0.00    +0.041 A 
ATOM     30  C   UNL     1       0.887  -4.546   4.826  0.00  0.00    +0.022 A 
ATOM     31  C   UNL     1       0.978  -4.034   3.545  0.00  0.00    +0.030 A 
ATOM     32 CL   UNL     1       1.801  -4.979   7.337  0.00  0.00    -0.084 Cl
ENDBRANCH  23  26
ENDBRANCH  13  23
TORSDOF 3
