REMARK  Name = ZINC38965277
REMARK  9 active torsions:
REMARK  status: ('A' for Active; 'I' for Inactive)
REMARK    1  A    between atoms: C_1  and  C_2
REMARK    2  A    between atoms: C_5  and  S_8
REMARK    3  A    between atoms: S_8  and  N_11
REMARK    4  A    between atoms: C_13  and  N_23
REMARK    5  A    between atoms: N_23  and  C_24
REMARK    6  A    between atoms: C_27  and  O_32
REMARK    7  A    between atoms: C_29  and  O_30
REMARK    8  A    between atoms: O_30  and  C_31
REMARK    9  A    between atoms: O_32  and  C_33
REMARK                            x       y       z     vdW  Elec       q    Type
REMARK                         _______ _______ _______ _____ _____    ______ ____
ROOT
ATOM      1  N   UNL     1       1.683  -4.691   0.282  0.00  0.00    -0.110 NA
ATOM      2  C   UNL     1       1.900  -5.956   0.069  0.00  0.00    +0.192 C 
ATOM      3  C   UNL     1       3.311  -6.477  -0.081  0.00  0.00    +0.237 C 
ATOM      4  N   UNL     1       3.489  -7.918  -0.321  0.00  0.00    -0.359 N 
ATOM      5  C   UNL     1       2.428  -8.673  -0.393  0.00  0.00    +0.063 A 
ATOM      6  C   UNL     1       2.552 -10.118  -0.631  0.00  0.00    +0.027 A 
ATOM      7  C   UNL     1       1.430 -10.868  -0.698  0.00  0.00    +0.002 A 
ATOM      8  C   UNL     1       0.153 -10.302  -0.547  0.00  0.00    +0.002 A 
ATOM      9  C   UNL     1      -0.039  -8.983  -0.326  0.00  0.00    +0.030 A 
ATOM     10  C   UNL     1       1.068  -8.102  -0.237  0.00  0.00    +0.089 A 
ATOM     11  N   UNL     1       0.874  -6.818  -0.017  0.00  0.00    -0.226 NA
ATOM     12  H   UNL     1       4.376  -8.297  -0.424  0.00  0.00    +0.162 HD
ENDROOT
BRANCH   1  13
ATOM     13  S   UNL     1       0.132  -4.135   0.451  0.00  0.00    +0.100 S 
ATOM     14  O   UNL     1      -0.376  -4.706   1.649  0.00  0.00    -0.146 OA
ATOM     15  O   UNL     1      -0.503  -4.313  -0.807  0.00  0.00    -0.146 OA
BRANCH  13  20
ATOM     16  C   UNL     1       0.463   1.817   1.388  0.00  0.00    +0.044 C 
ATOM     17  C   UNL     1       0.381   0.330   1.154  0.00  0.00    -0.050 A 
ATOM     18  C   UNL     1       0.283  -0.162  -0.134  0.00  0.00    +0.005 A 
ATOM     19  C   UNL     1       0.207  -1.526  -0.348  0.00  0.00    +0.029 A 
ATOM     20  C   UNL     1       0.230  -2.397   0.725  0.00  0.00    +0.113 A 
ATOM     21  C   UNL     1       0.329  -1.904   2.013  0.00  0.00    +0.029 A 
ATOM     22  C   UNL     1       0.408  -0.541   2.227  0.00  0.00    +0.005 A 
ENDBRANCH  13  20
ENDBRANCH   1  13
BRANCH   3  23
ATOM     23  N   UNL     1       4.046  -6.133   1.138  0.00  0.00    -0.315 N 
ATOM     24  H   UNL     1       3.631  -6.257   2.006  0.00  0.00    +0.149 HD
BRANCH  23  25
ATOM     25  C   UNL     1       5.351  -5.626   1.051  0.00  0.00    +0.073 A 
ATOM     26  C   UNL     1       5.992  -5.569  -0.177  0.00  0.00    +0.050 A 
ATOM     27  C   UNL     1       7.279  -5.068  -0.264  0.00  0.00    +0.084 A 
ATOM     28  C   UNL     1       7.929  -4.621   0.878  0.00  0.00    +0.142 A 
ATOM     29  C   UNL     1       7.291  -4.677   2.108  0.00  0.00    +0.094 A 
ATOM     30  C   UNL     1       6.001  -5.173   2.196  0.00  0.00    +0.144 A 
ATOM     31 CL   UNL     1       8.081  -4.997  -1.802  0.00  0.00    -0.080 Cl
BRANCH  30  32
ATOM     32  O   UNL     1       5.371  -5.223   3.401  0.00  0.00    -0.493 OA
ATOM     33  C   UNL     1       6.098  -4.742   4.533  0.00  0.00    +0.277 C 
ENDBRANCH  30  32
BRANCH  28  34
ATOM     34  O   UNL     1       9.194  -4.129   0.791  0.00  0.00    -0.494 OA
ATOM     35  C   UNL     1       9.803  -3.687   2.006  0.00  0.00    +0.277 C 
ENDBRANCH  28  34
ENDBRANCH  23  25
ENDBRANCH   3  23
TORSDOF 6
