REMARK  Name = ZINC66859790
REMARK  5 active torsions:
REMARK  status: ('A' for Active; 'I' for Inactive)
REMARK    1  A    between atoms: C_10  and  C_11
REMARK    2  A    between atoms: C_10  and  O_24
REMARK    3  A    between atoms: C_11  and  N_12
REMARK    4  A    between atoms: C_14  and  C_22
REMARK    5  A    between atoms: C_16  and  N_19
REMARK                            x       y       z     vdW  Elec       q    Type
REMARK                         _______ _______ _______ _____ _____    ______ ____
ROOT
ATOM      1  C   UNL     1       4.671   0.060  -0.987  0.00  0.00    +0.142 C 
ENDROOT
BRANCH   1  11
ATOM      2  C   UNL     1      -0.052   1.308  -0.077  0.00  0.00    +0.000 A 
ATOM      3  C   UNL     1       1.127   2.030  -0.072  0.00  0.00    +0.000 A 
ATOM      4  C   UNL     1       2.336   1.366  -0.059  0.00  0.00    +0.007 A 
ATOM      5  C   UNL     1       2.379  -0.022  -0.053  0.00  0.00    -0.011 A 
ATOM      6  C   UNL     1       1.205  -0.741  -0.063  0.00  0.00    -0.041 A 
ATOM      7  C   UNL     1      -0.012  -0.071  -0.072  0.00  0.00    +0.004 A 
ATOM      8  C   UNL     1       1.177  -2.247  -0.074  0.00  0.00    +0.035 C 
ATOM      9  C   UNL     1       2.525  -2.813   0.366  0.00  0.00    +0.008 C 
ATOM     10  C   UNL     1       3.626  -2.143  -0.464  0.00  0.00    +0.041 C 
ATOM     11  C   UNL     1       3.733  -0.682  -0.032  0.00  0.00    +0.107 C 
BRANCH  11  12
ATOM     12  O   UNL     1       4.267  -0.620   1.292  0.00  0.00    -0.382 OA
ATOM     13  H   UNL     1       4.380   0.279   1.630  0.00  0.00    +0.211 HD
ENDBRANCH  11  12
ENDBRANCH   1  11
BRANCH   1  14
ATOM     14  N   UNL     1       5.979  -0.599  -0.997  0.00  0.00    -0.325 N 
ATOM     15  C   UNL     1       7.025  -0.050  -1.719  0.00  0.00    +0.136 A 
ATOM     16  C   UNL     1       8.277  -0.689  -1.730  0.00  0.00    +0.094 A 
ATOM     17  C   UNL     1       9.319  -0.115  -2.467  0.00  0.00    +0.056 A 
ATOM     18  C   UNL     1       9.069   1.060  -3.154  0.00  0.00    +0.146 A 
ATOM     19  C   UNL     1       7.810   1.629  -3.095  0.00  0.00    +0.145 A 
ATOM     20  N   UNL     1       6.839   1.070  -2.399  0.00  0.00    -0.237 NA
ATOM     21  H   UNL     1       6.112  -1.420  -0.498  0.00  0.00    +0.148 HD
BRANCH  18  22
ATOM     22  N   UNL     1      10.141   1.704  -3.946  0.00  0.00    +0.058 N 
ATOM     23  O   UNL     1      11.240   1.203  -3.995  0.00  0.00    -0.126 OA
ATOM     24  O   UNL     1       9.917   2.730  -4.545  0.00  0.00    -0.126 OA
ENDBRANCH  18  22
BRANCH  16  25
ATOM     25  C   UNL     1       8.483  -1.904  -1.000  0.00  0.00    +0.103 C 
ATOM     26  N   UNL     1       8.647  -2.867  -0.422  0.00  0.00    -0.191 NA
ENDBRANCH  16  25
ENDBRANCH   1  14
TORSDOF 5
