REMARK  Name = ZINC13207191
REMARK  10 active torsions:
REMARK  status: ('A' for Active; 'I' for Inactive)
REMARK    1  A    between atoms: C_1  and  C_2
REMARK    2  A    between atoms: C_2  and  CA_3
REMARK    3  A    between atoms: CA_3  and  C_5
REMARK    4  A    between atoms: CA_3  and  N_7
REMARK    5  A    between atoms: C_5  and  O_6
REMARK    6  A    between atoms: C_14  and  C_18
REMARK    7  A    between atoms: C_18  and  C_19
REMARK    8  A    between atoms: C_18  and  C_20
REMARK    9  A    between atoms: C_23  and  C_25
REMARK   10  A    between atoms: C_23  and  C_26
REMARK                            x       y       z     vdW  Elec       q    Type
REMARK                         _______ _______ _______ _____ _____    ______ ____
ROOT
ATOM      1  N   UNL     1       0.974  -2.885  -0.017  0.00  0.00    -0.321 N 
ATOM      2  C   UNL     1       1.803  -1.773  -0.020  0.00  0.00    +0.166 A 
ATOM      3  C   UNL     1       1.264  -0.482  -0.011  0.00  0.00    +0.196 A 
ATOM      4  C   UNL     1       2.154   0.599  -0.014  0.00  0.00    +0.124 A 
ATOM      5  C   UNL     1       1.311   1.804  -0.001  0.00  0.00    +0.070 A 
ATOM      6  C   UNL     1       1.568   3.174   0.003  0.00  0.00    -0.023 A 
ATOM      7  C   UNL     1       0.496   4.041   0.015  0.00  0.00    +0.004 A 
ATOM      8  C   UNL     1      -0.791   3.522   0.028  0.00  0.00    +0.053 A 
ATOM      9  N   UNL     1      -1.010   2.224   0.029  0.00  0.00    -0.216 NA
ATOM     10  C   UNL     1      -0.016   1.346   0.009  0.00  0.00    +0.231 A 
ATOM     11  O   UNL     1       0.002  -0.004   0.002  0.00  0.00    -0.432 OA
ATOM     12  C   UNL     1       0.692   5.533   0.014  0.00  0.00    +0.197 C 
ATOM     13  O   UNL     1       2.037   5.854   0.369  0.00  0.00    -0.369 OA
ATOM     14  C   UNL     1       3.011   5.150  -0.411  0.00  0.00    +0.068 C 
ATOM     15  C   UNL     1       2.986   3.675  -0.004  0.00  0.00    +0.070 C 
ATOM     16  C   UNL     1       4.400   5.733  -0.146  0.00  0.00    +0.041 C 
ATOM     17  C   UNL     1       2.674   5.278  -1.898  0.00  0.00    +0.041 C 
ATOM     18  N   UNL     1       3.464   0.367  -0.027  0.00  0.00    -0.231 NA
ATOM     19  C   UNL     1       3.926  -0.866  -0.036  0.00  0.00    +0.224 A 
ATOM     20  N   UNL     1       3.124  -1.915  -0.033  0.00  0.00    -0.217 NA
ATOM     21  H   UNL     1       0.011  -2.772  -0.007  0.00  0.00    +0.148 HD
ENDROOT
BRANCH   8  22
ATOM     22  C   UNL     1      -1.965   4.466   0.045  0.00  0.00    +0.032 C 
ATOM     23  C   UNL     1      -2.829   4.229  -1.195  0.00  0.00    +0.014 C 
ATOM     24  C   UNL     1      -2.800   4.218   1.303  0.00  0.00    +0.014 C 
ENDBRANCH   8  22
BRANCH   1  25
ATOM     25  CA  UNL     1       1.553  -4.231  -0.026  0.00  0.00    +0.097 C 
BRANCH  25  27
ATOM     26  C   UNL     1       0.352  -4.878   2.066  0.00  0.00    +0.006 C 
ATOM     27  C   UNL     1       0.560  -5.218   0.589  0.00  0.00    +0.021 C 
ENDBRANCH  25  27
BRANCH  25  28
ATOM     28  C   UNL     1       1.857  -4.644  -1.468  0.00  0.00    +0.178 C 
BRANCH  28  29
ATOM     29  O   UNL     1       0.634  -4.753  -2.200  0.00  0.00    -0.393 OA
ATOM     30  H   UNL     1       0.751  -5.013  -3.124  0.00  0.00    +0.209 HD
ENDBRANCH  28  29
ENDBRANCH  25  28
ENDBRANCH   1  25
TORSDOF 5
