REMARK  Name = ZINC63738999
REMARK  10 active torsions:
REMARK  status: ('A' for Active; 'I' for Inactive)
REMARK    1  A    between atoms: C_1  and  C_2
REMARK    2  A    between atoms: N_8  and  C_9
REMARK    3  A    between atoms: C_9  and  C_10
REMARK    4  A    between atoms: C_10  and  N_11
REMARK    5  A    between atoms: C_12  and  C_14
REMARK    6  A    between atoms: C_14  and  C_16
REMARK    7  A    between atoms: C_14  and  C_17
REMARK    8  A    between atoms: C_23  and  C_25
REMARK    9  A    between atoms: C_31  and  O_35
REMARK   10  A    between atoms: O_35  and  C_36
REMARK                            x       y       z     vdW  Elec       q    Type
REMARK                         _______ _______ _______ _____ _____    ______ ____
ROOT
ATOM      1  C   UNL     1       7.005   0.208   4.930  0.00  0.00    +0.004 C 
ATOM      2  C   UNL     1       8.413   0.807   4.959  0.00  0.00    +0.023 C 
ATOM      3  C   UNL     1       9.097   0.428   6.277  0.00  0.00    +0.108 C 
ATOM      4  N   UNL     1       9.059  -1.033   6.427  0.00  0.00    -0.300 N 
ATOM      5  C   UNL     1       7.765  -1.720   6.325  0.00  0.00    +0.108 C 
ATOM      6  C   UNL     1       7.096  -1.318   5.007  0.00  0.00    +0.023 C 
ATOM      7  C   UNL     1      10.191  -1.729   6.654  0.00  0.00    +0.242 C 
ATOM      8  O   UNL     1      11.253  -1.150   6.736  0.00  0.00    -0.273 OA
ENDROOT
BRANCH   7   9
ATOM      9  C   UNL     1      10.135  -3.228   6.806  0.00  0.00    +0.190 C 
ATOM     10  C   UNL     1       9.297  -3.599   8.009  0.00  0.00    +0.016 C 
ATOM     11  C   UNL     1      10.118  -4.271   8.846  0.00  0.00    -0.003 A 
ATOM     12  C   UNL     1       9.906  -4.885  10.163  0.00  0.00    +0.013 A 
ATOM     13  C   UNL     1      10.940  -5.503  10.773  0.00  0.00    +0.046 A 
ATOM     14  C   UNL     1      12.214  -5.572  10.178  0.00  0.00    +0.122 A 
ATOM     15  C   UNL     1      12.483  -5.028   8.964  0.00  0.00    +0.071 A 
ATOM     16  C   UNL     1      11.466  -4.357   8.239  0.00  0.00    +0.047 A 
ATOM     17  N   UNL     1      11.477  -3.759   7.068  0.00  0.00    -0.370 N 
ATOM     18  H   UNL     1      12.242  -3.682   6.478  0.00  0.00    +0.161 HD
BRANCH  14  19
ATOM     19  O   UNL     1      13.211  -6.207  10.843  0.00  0.00    -0.495 OA
ATOM     20  C   UNL     1      12.887  -6.766  12.117  0.00  0.00    +0.277 C 
ENDBRANCH  14  19
ENDBRANCH   7   9
BRANCH   1  21
ATOM     21  C   UNL     1       6.306   0.613   3.630  0.00  0.00    +0.075 C 
ATOM     22  C   UNL     1       6.216   2.138   3.554  0.00  0.00    +0.017 C 
BRANCH  21  24
ATOM     23  N   UNL     1       4.113   0.250   2.546  0.00  0.00    -0.317 N 
ATOM     24  C   UNL     1       4.919   0.025   3.602  0.00  0.00    +0.216 C 
ATOM     25  O   UNL     1       4.528  -0.651   4.530  0.00  0.00    -0.276 OA
ATOM     26  H   UNL     1       4.426   0.791   1.803  0.00  0.00    +0.149 HD
BRANCH  23  27
ATOM     27  C   UNL     1       2.764  -0.321   2.518  0.00  0.00    +0.085 C 
BRANCH  27  28
ATOM     28  C   UNL     1       2.066   0.083   1.218  0.00  0.00    -0.059 C 
BRANCH  28  35
ATOM     29  C   UNL     1      -0.019   1.526   0.010  0.00  0.00    -0.013 C 
ATOM     30  C   UNL     1       0.002  -0.004   0.002  0.00  0.00    -0.072 C 
ATOM     31  C   UNL     1      -1.434  -0.533   0.011  0.00  0.00    -0.016 C 
ATOM     32  C   UNL     1      -1.408  -2.064   0.003  0.00  0.00    -0.003 C 
ATOM     33  C   UNL     1      -0.600  -2.558   1.206  0.00  0.00    -0.019 C 
ATOM     34  C   UNL     1       0.805  -1.954   1.152  0.00  0.00    -0.078 C 
ATOM     35  N   UNL     1       0.713  -0.490   1.191  0.00  0.00    +0.382 N 
ATOM     36  H   UNL     1       0.213  -0.206   2.020  0.00  0.00    -0.081 HD
ENDBRANCH  28  35
ENDBRANCH  27  28
ENDBRANCH  23  27
ENDBRANCH  21  24
ENDBRANCH   1  21
TORSDOF 7
