REMARK  Name = ZINC36806021
REMARK  8 active torsions:
REMARK  status: ('A' for Active; 'I' for Inactive)
REMARK    1  A    between atoms: C_1  and  C_2
REMARK    2  A    between atoms: C_2  and  C_4
REMARK    3  A    between atoms: C_2  and  S_16
REMARK    4  A    between atoms: N_6  and  C_7
REMARK    5  A    between atoms: C_10  and  N_13
REMARK    6  A    between atoms: S_16  and  C_17
REMARK    7  A    between atoms: C_20  and  C_23
REMARK    8  A    between atoms: N_21  and  N_22
REMARK                            x       y       z     vdW  Elec       q    Type
REMARK                         _______ _______ _______ _____ _____    ______ ____
ROOT
ATOM      1  S   UNL     1       1.025  -0.501  -1.306  0.00  0.00    -0.072 S 
ENDROOT
BRANCH   1   2
ATOM      2  C   UNL     1       2.653   0.052  -0.920  0.00  0.00    +0.209 A 
ATOM      3  N   UNL     1       3.022   0.693   0.167  0.00  0.00    -0.121 NA
ATOM      4  N   UNL     1       4.281   0.946   0.124  0.00  0.00    -0.127 NA
ATOM      5  C   UNL     1       4.794   0.482  -0.992  0.00  0.00    +0.183 A 
ATOM      6  N   UNL     1       3.768  -0.110  -1.692  0.00  0.00    -0.224 N 
BRANCH   5   7
ATOM      7  C   UNL     1       6.207   0.574  -1.414  0.00  0.00    +0.035 A 
ATOM      8  C   UNL     1       6.530   1.042  -2.688  0.00  0.00    +0.013 A 
ATOM      9  C   UNL     1       7.851   1.125  -3.076  0.00  0.00    +0.001 A 
ATOM     10  C   UNL     1       8.857   0.746  -2.204  0.00  0.00    +0.001 A 
ATOM     11  C   UNL     1       8.545   0.281  -0.939  0.00  0.00    +0.016 A 
ATOM     12  C   UNL     1       7.227   0.197  -0.536  0.00  0.00    +0.029 A 
ATOM     13 BR   UNL     1       6.803  -0.432   1.196  0.00  0.00    -0.050 Br
ENDBRANCH   5   7
BRANCH   6  14
ATOM     14  N   UNL     1       3.847  -0.727  -2.908  0.00  0.00    -0.295 N 
ATOM     15  H   UNL     1       3.612  -0.089  -3.654  0.00  0.00    +0.163 HD
ATOM     16  H   UNL     1       4.762  -1.128  -3.051  0.00  0.00    +0.163 HD
ENDBRANCH   6  14
ENDBRANCH   1   2
BRANCH   1  18
ATOM     17  C   UNL     1       0.005   1.556   0.181  0.00  0.00    +0.029 C 
ATOM     18  C   UNL     1       0.033   0.027   0.118  0.00  0.00    +0.137 C 
BRANCH  18  19
ATOM     19  C   UNL     1      -1.373  -0.495  -0.028  0.00  0.00    +0.230 C 
ATOM     20  O   UNL     1      -1.785  -0.833  -1.117  0.00  0.00    -0.274 OA
ATOM     21  N   UNL     1      -2.173  -0.588   1.053  0.00  0.00    -0.285 N 
ATOM     22  H   UNL     1      -1.824  -0.379   1.934  0.00  0.00    +0.155 HD
BRANCH  21  23
ATOM     23  C   UNL     1      -3.506  -0.986   0.905  0.00  0.00    +0.034 A 
ATOM     24  C   UNL     1      -4.490  -0.436   1.715  0.00  0.00    +0.025 A 
ATOM     25  C   UNL     1      -5.806  -0.831   1.566  0.00  0.00    +0.034 A 
ATOM     26  C   UNL     1      -6.142  -1.773   0.612  0.00  0.00    +0.126 A 
ATOM     27  C   UNL     1      -5.164  -2.323  -0.196  0.00  0.00    +0.034 A 
ATOM     28  C   UNL     1      -3.848  -1.928  -0.057  0.00  0.00    +0.025 A 
BRANCH  26  29
ATOM     29  N   UNL     1      -7.553  -2.194   0.455  0.00  0.00    +0.056 N 
ATOM     30  O   UNL     1      -8.409  -1.714   1.161  0.00  0.00    -0.126 OA
ATOM     31  O   UNL     1      -7.848  -3.018  -0.379  0.00  0.00    -0.126 OA
ENDBRANCH  26  29
ENDBRANCH  21  23
ENDBRANCH  18  19
ENDBRANCH   1  18
TORSDOF 7
