REMARK  Name = ZINC04030453
REMARK  7 active torsions:
REMARK  status: ('A' for Active; 'I' for Inactive)
REMARK    1  A    between atoms: C_1  and  C_2
REMARK    2  A    between atoms: C_2  and  N_3
REMARK    3  A    between atoms: N_3  and  C_4
REMARK    4  A    between atoms: N_3  and  C_6
REMARK    5  A    between atoms: C_4  and  C_5
REMARK    6  A    between atoms: C_11  and  C_25
REMARK    7  A    between atoms: N_13  and  C_14
REMARK                            x       y       z     vdW  Elec       q    Type
REMARK                         _______ _______ _______ _____ _____    ______ ____
ROOT
ATOM      1  C   UNL     1       1.240   2.106  -0.278  0.00  0.00    +0.033 A 
ATOM      2  C   UNL     1       2.455   1.418  -0.278  0.00  0.00    +0.024 A 
ATOM      3  C   UNL     1       2.477   0.057  -0.226  0.00  0.00    +0.013 A 
ATOM      4  C   UNL     1       1.272  -0.662  -0.182  0.00  0.00    +0.018 A 
ATOM      5  C   UNL     1       1.285  -2.080  -0.178  0.00  0.00    +0.030 A 
ATOM      6  C   UNL     1       0.079  -2.746  -0.348  0.00  0.00    +0.099 A 
ATOM      7  C   UNL     1      -1.128  -1.923  -0.556  0.00  0.00    +0.233 A 
ATOM      8  N   UNL     1      -2.175  -2.398  -1.196  0.00  0.00    -0.211 NA
ATOM      9  O   UNL     1      -1.121  -0.657  -0.064  0.00  0.00    -0.437 OA
ATOM     10  C   UNL     1       0.045   0.029  -0.155  0.00  0.00    +0.139 A 
ATOM     11  C   UNL     1       0.038   1.412  -0.213  0.00  0.00    +0.070 A 
ENDROOT
BRANCH   8  12
ATOM     12  C   UNL     1      -3.323  -1.659  -1.273  0.00  0.00    +0.086 A 
ATOM     13  C   UNL     1      -3.539  -0.812  -2.363  0.00  0.00    +0.031 A 
ATOM     14  C   UNL     1      -4.699  -0.069  -2.435  0.00  0.00    +0.022 A 
ATOM     15  C   UNL     1      -5.649  -0.161  -1.431  0.00  0.00    +0.042 A 
ATOM     16  C   UNL     1      -5.441  -0.998  -0.348  0.00  0.00    +0.042 A 
ATOM     17  C   UNL     1      -4.287  -1.752  -0.266  0.00  0.00    +0.068 A 
ATOM     18 CL   UNL     1      -4.032  -2.807   1.089  0.00  0.00    -0.081 Cl
ATOM     19 CL   UNL     1      -7.105   0.778  -1.530  0.00  0.00    -0.083 Cl
ENDBRANCH   8  12
BRANCH   6  20
ATOM     20  C   UNL     1       0.007  -4.216  -0.323  0.00  0.00    +0.247 C 
ATOM     21  O   UNL     1      -1.062  -4.775  -0.475  0.00  0.00    -0.270 OA
ATOM     22  N   UNL     1       1.126  -4.942  -0.131  0.00  0.00    -0.325 N 
ATOM     23  H   UNL     1       1.979  -4.496  -0.009  0.00  0.00    +0.145 HD
ATOM     24  H   UNL     1       1.079  -5.911  -0.114  0.00  0.00    +0.145 HD
ENDBRANCH   6  20
BRANCH   1  25
ATOM     25  N   UNL     1       1.232   3.495  -0.342  0.00  0.00    -0.330 N 
BRANCH  25  27
ATOM     26  C   UNL     1       2.899   4.421  -1.875  0.00  0.00    +0.024 C 
ATOM     27  C   UNL     1       2.497   4.232  -0.410  0.00  0.00    +0.102 C 
ENDBRANCH  25  27
BRANCH  25  28
ATOM     28  C   UNL     1      -0.040   4.221  -0.343  0.00  0.00    +0.102 C 
ATOM     29  C   UNL     1      -0.445   4.542   1.098  0.00  0.00    +0.024 C 
ENDBRANCH  25  28
ENDBRANCH   1  25
TORSDOF 5
