REMARK  Name = ZINC24786829
REMARK  10 active torsions:
REMARK  status: ('A' for Active; 'I' for Inactive)
REMARK    1  A    between atoms: C_1  and  C_2
REMARK    2  A    between atoms: C_2  and  O_3
REMARK    3  A    between atoms: O_3  and  C_4
REMARK    4  A    between atoms: C_4  and  C_6
REMARK    5  A    between atoms: C_7  and  C_29
REMARK    6  A    between atoms: C_9  and  N_11
REMARK    7  A    between atoms: C_12  and  C_14
REMARK    8  A    between atoms: C_14  and  S_15
REMARK    9  A    between atoms: S_15  and  C_16
REMARK   10  A    between atoms: C_19  and  C_22
REMARK                            x       y       z     vdW  Elec       q    Type
REMARK                         _______ _______ _______ _____ _____    ______ ____
ROOT
ATOM      1  N   UNL     1      -2.499   1.248   0.020  0.00  0.00    -0.279 N 
ATOM      2  C   UNL     1      -3.557   2.082   0.019  0.00  0.00    +0.228 C 
ATOM      3  O   UNL     1      -3.383   3.283   0.010  0.00  0.00    -0.275 OA
ATOM      4  H   UNL     1      -2.657   0.159   0.028  0.00  0.00    +0.155 HD
ENDROOT
BRANCH   1   8
ATOM      5  C   UNL     1       1.056   3.174  -0.017  0.00  0.00    +0.101 A 
ATOM      6  C   UNL     1       1.155   1.788  -0.008  0.00  0.00    -0.028 A 
ATOM      7  C   UNL     1      -0.013   1.076   0.009  0.00  0.00    +0.035 A 
ATOM      8  C   UNL     1      -1.209   1.762   0.010  0.00  0.00    +0.073 A 
ATOM      9  S   UNL     1      -0.710   3.422  -0.002  0.00  0.00    -0.067 S 
ATOM     10  C   UNL     1       2.495   1.098  -0.015  0.00  0.00    +0.045 C 
BRANCH   5  11
ATOM     11  C   UNL     1       2.091   4.140  -0.035  0.00  0.00    +0.346 C 
ATOM     12  O   UNL     1       3.255   3.786  -0.044  0.00  0.00    -0.244 OA
BRANCH  11  13
ATOM     13  O   UNL     1       1.786   5.455  -0.042  0.00  0.00    -0.461 OA
BRANCH  13  15
ATOM     14  C   UNL     1       2.342   7.807  -0.065  0.00  0.00    +0.048 C 
ATOM     15  C   UNL     1       2.880   6.375  -0.060  0.00  0.00    +0.229 C 
ENDBRANCH  13  15
ENDBRANCH  11  13
ENDBRANCH   5  11
ENDBRANCH   1   8
BRANCH   2  16
ATOM     16  C   UNL     1      -4.957   1.524   0.030  0.00  0.00    +0.173 C 
BRANCH  16  17
ATOM     17  S   UNL     1      -6.149   2.886   0.026  0.00  0.00    -0.077 S 
BRANCH  17  18
ATOM     18  C   UNL     1      -7.657   1.974   0.040  0.00  0.00    +0.185 A 
ATOM     19  N   UNL     1      -8.919   2.494   0.043  0.00  0.00    -0.201 NA
ATOM     20  H   UNL     1      -6.999  -0.115   0.045  0.00  0.00    +0.191 HD
ATOM     21  C   UNL     1      -9.767   1.411   0.055  0.00  0.00    +0.183 A 
ATOM     22  N   UNL     1      -9.017   0.334   0.068  0.00  0.00    -0.152 NA
ATOM     23  N   UNL     1      -7.775   0.665   0.050  0.00  0.00    -0.253 N 
BRANCH  21  24
ATOM     24  C   UNL     1     -11.245   1.452   0.053  0.00  0.00    +0.035 A 
ATOM     25  C   UNL     1     -11.912   2.673   0.169  0.00  0.00    +0.013 A 
ATOM     26  C   UNL     1     -13.291   2.705   0.167  0.00  0.00    +0.001 A 
ATOM     27  C   UNL     1     -14.014   1.530   0.049  0.00  0.00    +0.001 A 
ATOM     28  C   UNL     1     -13.360   0.317  -0.066  0.00  0.00    +0.016 A 
ATOM     29  C   UNL     1     -11.979   0.271  -0.071  0.00  0.00    +0.029 A 
ATOM     30 BR   UNL     1     -11.086  -1.387  -0.237  0.00  0.00    -0.050 Br
ENDBRANCH  21  24
ENDBRANCH  17  18
ENDBRANCH  16  17
ENDBRANCH   2  16
TORSDOF 8
