REMARK  Name = ZINC15513910
REMARK  11 active torsions:
REMARK  status: ('A' for Active; 'I' for Inactive)
REMARK    1  A    between atoms: C_1  and  C_2
REMARK    2  A    between atoms: C_6  and  N_9
REMARK    3  A    between atoms: C_7  and  C_8
REMARK    4  A    between atoms: C_10  and  S_14
REMARK    5  A    between atoms: S_14  and  C_15
REMARK    6  A    between atoms: C_15  and  C_16
REMARK    7  A    between atoms: N_18  and  C_19
REMARK    8  A    between atoms: C_19  and  C_21
REMARK    9  A    between atoms: C_19  and  C_32
REMARK   10  A    between atoms: C_32  and  C_33
REMARK   11  A    between atoms: C_32  and  C_34
REMARK                            x       y       z     vdW  Elec       q    Type
REMARK                         _______ _______ _______ _____ _____    ______ ____
ROOT
ATOM      1  C   UNL     1      -3.364   2.889   2.312  0.00  0.00    +0.224 C 
ATOM      2  O   UNL     1      -3.280   3.521   1.281  0.00  0.00    -0.275 OA
ATOM      3  N   UNL     1      -2.763   1.687   2.417  0.00  0.00    -0.308 N 
ATOM      4  H   UNL     1      -2.830   1.181   3.242  0.00  0.00    +0.149 HD
ENDROOT
BRANCH   1   5
ATOM      5  C   UNL     1      -4.139   3.447   3.478  0.00  0.00    +0.173 C 
BRANCH   5   6
ATOM      6  S   UNL     1      -4.821   5.063   3.030  0.00  0.00    -0.075 S 
BRANCH   6   8
ATOM      7  N   UNL     1      -6.362   6.606   4.779  0.00  0.00    -0.187 N 
ATOM      8  C   UNL     1      -5.652   5.471   4.529  0.00  0.00    +0.214 A 
ATOM      9  N   UNL     1      -5.710   4.734   5.617  0.00  0.00    -0.101 NA
ATOM     10  N   UNL     1      -6.394   5.328   6.527  0.00  0.00    -0.022 NA
ATOM     11  N   UNL     1      -6.827   6.464   6.099  0.00  0.00    -0.038 NA
BRANCH   7  17
ATOM     12  C   UNL     1      -9.470   9.801   2.699  0.00  0.00    +0.044 C 
ATOM     13  C   UNL     1      -8.079   9.251   2.883  0.00  0.00    -0.046 A 
ATOM     14  C   UNL     1      -7.018   9.809   2.193  0.00  0.00    +0.004 A 
ATOM     15  C   UNL     1      -5.741   9.307   2.358  0.00  0.00    +0.002 A 
ATOM     16  C   UNL     1      -5.520   8.249   3.219  0.00  0.00    +0.028 A 
ATOM     17  C   UNL     1      -6.583   7.683   3.909  0.00  0.00    +0.073 A 
ATOM     18  C   UNL     1      -7.865   8.190   3.740  0.00  0.00    -0.022 A 
ATOM     19  C   UNL     1      -9.021   7.582   4.491  0.00  0.00    +0.046 C 
ENDBRANCH   7  17
ENDBRANCH   6   8
ENDBRANCH   5   6
ENDBRANCH   1   5
BRANCH   3  20
ATOM     20  C   UNL     1      -2.009   1.144   1.284  0.00  0.00    +0.106 C 
BRANCH  20  21
ATOM     21  C   UNL     1      -1.968  -0.359   1.383  0.00  0.00    -0.023 A 
ATOM     22  C   UNL     1      -1.786  -0.965   2.612  0.00  0.00    +0.009 A 
ATOM     23  C   UNL     1      -1.754  -2.345   2.711  0.00  0.00    +0.050 A 
ATOM     24  C   UNL     1      -1.893  -3.118   1.570  0.00  0.00    +0.162 A 
ATOM     25  C   UNL     1      -2.070  -2.510   0.336  0.00  0.00    +0.162 A 
ATOM     26  C   UNL     1      -2.107  -1.129   0.241  0.00  0.00    +0.055 A 
ATOM     27  O   UNL     1      -2.207  -3.281  -0.782  0.00  0.00    -0.488 OA
ATOM     28  C   UNL     1      -1.044  -4.005  -1.188  0.00  0.00    +0.232 C 
ATOM     29  C   UNL     1      -0.935  -5.319  -0.430  0.00  0.00    +0.082 C 
ATOM     30  C   UNL     1      -0.721  -5.111   1.061  0.00  0.00    +0.232 C 
ATOM     31  O   UNL     1      -1.857  -4.479   1.653  0.00  0.00    -0.488 OA
ENDBRANCH  20  21
BRANCH  20  32
ATOM     32  C   UNL     1      -0.582   1.695   1.310  0.00  0.00    +0.008 C 
ATOM     33  C   UNL     1       0.168   1.228   0.060  0.00  0.00    +0.009 C 
ATOM     34  C   UNL     1       0.140   1.185   2.558  0.00  0.00    +0.009 C 
ENDBRANCH  20  32
ENDBRANCH   3  20
TORSDOF 7
