REMARK  Name = ZINC16376170
REMARK  9 active torsions:
REMARK  status: ('A' for Active; 'I' for Inactive)
REMARK    1  A    between atoms: C_1  and  C_2
REMARK    2  A    between atoms: C_2  and  N_62
REMARK    3  A    between atoms: C_3  and  C_4
REMARK    4  A    between atoms: C_3  and  N_62
REMARK    5  A    between atoms: N_6  and  C_7
REMARK    6  A    between atoms: C_12  and  C_13
REMARK    7  A    between atoms: C_17  and  C_18
REMARK    8  A    between atoms: C_17  and  N_62
REMARK    9  A    between atoms: C_29  and  C_31
REMARK                            x       y       z     vdW  Elec       q    Type
REMARK                         _______ _______ _______ _____ _____    ______ ____
ROOT
ATOM      1  C   UNL     1      -4.646  -3.226  -0.675  0.00  0.00    +0.020 C 
ENDROOT
BRANCH   1   2
ATOM      2  C   UNL     1      -4.282  -4.624  -1.106  0.00  0.00    +0.204 C 
ATOM      3  O   UNL     1      -3.131  -5.000  -1.037  0.00  0.00    -0.277 OA
ATOM      4  N   UNL     1      -5.236  -5.456  -1.569  0.00  0.00    -0.259 N 
ATOM      5  C   UNL     1      -4.940  -6.789  -1.901  0.00  0.00    +0.079 A 
ATOM      6  C   UNL     1      -3.622  -7.196  -2.031  0.00  0.00    +0.027 A 
ATOM      7  C   UNL     1      -3.336  -8.509  -2.354  0.00  0.00    +0.002 A 
ATOM      8  C   UNL     1      -4.362  -9.415  -2.547  0.00  0.00    +0.004 A 
ATOM      9  C   UNL     1      -5.679  -9.014  -2.420  0.00  0.00    +0.047 A 
ATOM     10  C   UNL     1      -5.976  -7.698  -2.097  0.00  0.00    +0.142 A 
ATOM     11  O   UNL     1      -7.273  -7.311  -1.981  0.00  0.00    -0.488 OA
ATOM     12  C   UNL     1      -7.549  -6.119  -1.241  0.00  0.00    +0.256 C 
ATOM     13  C   UNL     1      -6.627  -5.001  -1.739  0.00  0.00    +0.149 C 
BRANCH  13  14
ATOM     14  C   UNL     1      -6.902  -4.728  -3.195  0.00  0.00    -0.023 A 
ATOM     15  C   UNL     1      -6.390  -5.570  -4.165  0.00  0.00    +0.005 A 
ATOM     16  C   UNL     1      -6.646  -5.322  -5.500  0.00  0.00    +0.000 A 
ATOM     17  C   UNL     1      -7.405  -4.227  -5.867  0.00  0.00    +0.000 A 
ATOM     18  C   UNL     1      -7.912  -3.382  -4.898  0.00  0.00    +0.000 A 
ATOM     19  C   UNL     1      -7.661  -3.633  -3.562  0.00  0.00    +0.005 A 
ENDBRANCH  13  14
ENDBRANCH   1   2
BRANCH   1  20
ATOM     20  N   UNL     1      -3.406  -2.495  -0.341  0.00  0.00    +0.391 N 
ATOM     21  H   UNL     1      -2.711  -2.661  -1.079  0.00  0.00    -0.080 HD
BRANCH  20  23
ATOM     22  C   UNL     1      -3.901  -2.819   2.060  0.00  0.00    -0.017 C 
ATOM     23  C   UNL     1      -2.864  -2.981   0.946  0.00  0.00    -0.081 C 
ENDBRANCH  20  23
BRANCH  20  24
ATOM     24  C   UNL     1      -3.681  -1.045  -0.258  0.00  0.00    +0.020 C 
BRANCH  24  25
ATOM     25  C   UNL     1      -2.372  -0.308  -0.136  0.00  0.00    +0.201 C 
ATOM     26  O   UNL     1      -1.329  -0.926  -0.104  0.00  0.00    -0.278 OA
ATOM     27  N   UNL     1      -2.361   1.038  -0.062  0.00  0.00    -0.287 N 
ATOM     28  H   UNL     1      -3.197   1.528  -0.023  0.00  0.00    +0.155 HD
BRANCH  27  29
ATOM     29  C   UNL     1      -1.143   1.727  -0.043  0.00  0.00    +0.045 A 
ATOM     30  C   UNL     1      -0.040   1.174   0.594  0.00  0.00    +0.024 A 
ATOM     31  C   UNL     1       1.161   1.855   0.606  0.00  0.00    +0.002 A 
ATOM     32  C   UNL     1       1.266   3.088  -0.012  0.00  0.00    +0.001 A 
ATOM     33  C   UNL     1       0.168   3.643  -0.643  0.00  0.00    +0.014 A 
ATOM     34  C   UNL     1      -1.037   2.968  -0.657  0.00  0.00    +0.076 A 
BRANCH  34  35
ATOM     35  C   UNL     1      -2.233   3.575  -1.345  0.00  0.00    +0.419 C 
ATOM     36  F   UNL     1      -1.879   4.814  -1.889  0.00  0.00    -0.166 F 
ATOM     37  F   UNL     1      -2.666   2.723  -2.367  0.00  0.00    -0.166 F 
ATOM     38  F   UNL     1      -3.265   3.750  -0.416  0.00  0.00    -0.166 F 
ENDBRANCH  34  35
ENDBRANCH  27  29
ENDBRANCH  24  25
ENDBRANCH  20  24
ENDBRANCH   1  20
TORSDOF 8
