REMARK  Name = ZINC22371344
REMARK  10 active torsions:
REMARK  status: ('A' for Active; 'I' for Inactive)
REMARK    1  A    between atoms: C_1  and  C_2
REMARK    2  A    between atoms: C_6  and  N_8
REMARK    3  A    between atoms: N_8  and  C_9
REMARK    4  A    between atoms: N_8  and  S_27
REMARK    5  A    between atoms: C_9  and  C_10
REMARK    6  A    between atoms: N_12  and  C_13
REMARK    7  A    between atoms: C_16  and  C_25
REMARK    8  A    between atoms: C_16  and  C_26
REMARK    9  A    between atoms: C_21  and  C_24
REMARK   10  A    between atoms: S_27  and  C_30
REMARK                            x       y       z     vdW  Elec       q    Type
REMARK                         _______ _______ _______ _____ _____    ______ ____
ROOT
ATOM      1  N   UNL     1       1.479   4.440   2.290  0.00  0.00    -0.194 N 
ENDROOT
BRANCH   1   7
ATOM      2  C   UNL     1       2.724   4.201   7.038  0.00  0.00    +0.044 C 
ATOM      3  C   UNL     1       3.049   4.558   5.610  0.00  0.00    -0.049 A 
ATOM      4  C   UNL     1       4.279   5.108   5.299  0.00  0.00    +0.003 A 
ATOM      5  C   UNL     1       4.581   5.436   3.990  0.00  0.00    +0.002 A 
ATOM      6  C   UNL     1       3.655   5.216   2.990  0.00  0.00    +0.025 A 
ATOM      7  C   UNL     1       2.418   4.664   3.299  0.00  0.00    +0.052 A 
ATOM      8  C   UNL     1       2.116   4.340   4.616  0.00  0.00    +0.028 A 
ENDBRANCH   1   7
BRANCH   1   9
ATOM      9  S   UNL     1       1.981   4.208   0.729  0.00  0.00    +0.075 S 
ATOM     10  O   UNL     1       0.961   3.460   0.081  0.00  0.00    -0.150 OA
ATOM     11  O   UNL     1       3.328   3.761   0.797  0.00  0.00    -0.150 OA
BRANCH   9  12
ATOM     12  C   UNL     1       2.014   5.790  -0.048  0.00  0.00    +0.109 A 
ATOM     13  C   UNL     1       3.193   6.510  -0.098  0.00  0.00    +0.030 A 
ATOM     14  C   UNL     1       3.221   7.750  -0.708  0.00  0.00    +0.022 A 
ATOM     15  C   UNL     1       2.068   8.271  -1.267  0.00  0.00    +0.041 A 
ATOM     16  C   UNL     1       0.888   7.550  -1.217  0.00  0.00    +0.022 A 
ATOM     17  C   UNL     1       0.862   6.310  -0.607  0.00  0.00    +0.030 A 
ATOM     18 CL   UNL     1       2.101   9.829  -2.033  0.00  0.00    -0.084 Cl
ENDBRANCH   9  12
ENDBRANCH   1   9
BRANCH   1  19
ATOM     19  C   UNL     1       0.050   4.411   2.612  0.00  0.00    +0.227 C 
BRANCH  19  20
ATOM     20  C   UNL     1      -0.338   3.021   3.047  0.00  0.00    +0.233 C 
ATOM     21  O   UNL     1       0.510   2.161   3.158  0.00  0.00    -0.274 OA
ATOM     22  N   UNL     1      -1.627   2.734   3.313  0.00  0.00    -0.307 N 
ATOM     23  H   UNL     1      -2.406   3.491   3.141  0.00  0.00    +0.149 HD
BRANCH  22  24
ATOM     24  C   UNL     1      -1.992   1.413   3.831  0.00  0.00    +0.111 C 
ATOM     25  C   UNL     1      -3.143   1.558   4.830  0.00  0.00    +0.074 C 
ATOM     26  C   UNL     1      -3.698   0.159   5.130  0.00  0.00    +0.107 C 
ATOM     27  O   UNL     1      -4.264  -0.368   3.929  0.00  0.00    -0.486 OA
ATOM     28  C   UNL     1      -3.517  -0.309   2.796  0.00  0.00    +0.126 A 
ATOM     29  C   UNL     1      -2.419   0.526   2.689  0.00  0.00    +0.015 A 
ATOM     30  C   UNL     1      -1.689   0.557   1.513  0.00  0.00    +0.012 A 
ATOM     31  C   UNL     1      -2.050  -0.245   0.447  0.00  0.00    -0.050 A 
ATOM     32  C   UNL     1      -3.144  -1.083   0.553  0.00  0.00    +0.007 A 
ATOM     33  C   UNL     1      -3.877  -1.116   1.722  0.00  0.00    +0.046 A 
ATOM     34  C   UNL     1      -1.251  -0.205  -0.830  0.00  0.00    +0.044 C 
ATOM     35  C   UNL     1      -2.567  -0.752   5.610  0.00  0.00    +0.055 C 
ATOM     36  C   UNL     1      -4.778   0.255   6.210  0.00  0.00    +0.055 C 
ENDBRANCH  22  24
ENDBRANCH  19  20
ENDBRANCH   1  19
TORSDOF 6
