REMARK  Name = ZINC21793191
REMARK  6 active torsions:
REMARK  status: ('A' for Active; 'I' for Inactive)
REMARK    1  A    between atoms: C_1  and  O_2
REMARK    2  A    between atoms: O_2  and  C_3
REMARK    3  A    between atoms: C_6  and  N_10
REMARK    4  A    between atoms: C_7  and  N_9
REMARK    5  A    between atoms: N_10  and  S_11
REMARK    6  A    between atoms: S_11  and  C_14
REMARK                            x       y       z     vdW  Elec       q    Type
REMARK                         _______ _______ _______ _____ _____    ______ ____
ROOT
ATOM      1  N   UNL     1      -4.902  -2.573   0.036  0.00  0.00    -0.214 N 
ATOM      2  H   UNL     1      -5.016  -3.373   0.573  0.00  0.00    +0.174 HD
ENDROOT
BRANCH   1   6
ATOM      3  C   UNL     1      -1.095  -0.941  -0.495  0.00  0.00    +0.122 A 
ATOM      4  C   UNL     1      -2.200  -0.110  -0.392  0.00  0.00    +0.047 A 
ATOM      5  C   UNL     1      -3.461  -0.650  -0.216  0.00  0.00    +0.030 A 
ATOM      6  C   UNL     1      -3.623  -2.025  -0.143  0.00  0.00    +0.069 A 
ATOM      7  C   UNL     1      -2.513  -2.862  -0.247  0.00  0.00    +0.051 A 
ATOM      8  C   UNL     1      -1.251  -2.317  -0.429  0.00  0.00    +0.070 A 
BRANCH   7   9
ATOM      9  N   UNL     1      -2.672  -4.251  -0.173  0.00  0.00    -0.356 N 
ATOM     10  H   UNL     1      -3.556  -4.632  -0.050  0.00  0.00    +0.142 HD
ATOM     11  H   UNL     1      -1.900  -4.833  -0.246  0.00  0.00    +0.142 HD
ENDBRANCH   7   9
BRANCH   3  13
ATOM     12  C   UNL     1       0.231   1.020  -0.728  0.00  0.00    +0.277 C 
ATOM     13  O   UNL     1       0.143  -0.405  -0.668  0.00  0.00    -0.495 OA
ENDBRANCH   3  13
ENDBRANCH   1   6
BRANCH   1  14
ATOM     14  S   UNL     1      -6.216  -1.855  -0.670  0.00  0.00    +0.072 S 
ATOM     15  O   UNL     1      -7.327  -2.705  -0.419  0.00  0.00    -0.150 OA
ATOM     16  O   UNL     1      -6.196  -0.491  -0.273  0.00  0.00    -0.150 OA
BRANCH  14  17
ATOM     17  C   UNL     1      -5.950  -1.876  -2.411  0.00  0.00    +0.109 A 
ATOM     18  C   UNL     1      -5.296  -0.823  -3.023  0.00  0.00    +0.030 A 
ATOM     19  C   UNL     1      -5.087  -0.839  -4.389  0.00  0.00    +0.022 A 
ATOM     20  C   UNL     1      -5.531  -1.910  -5.144  0.00  0.00    +0.041 A 
ATOM     21  C   UNL     1      -6.185  -2.964  -4.531  0.00  0.00    +0.022 A 
ATOM     22  C   UNL     1      -6.389  -2.949  -3.164  0.00  0.00    +0.030 A 
ATOM     23 CL   UNL     1      -5.269  -1.931  -6.860  0.00  0.00    -0.084 Cl
ENDBRANCH  14  17
ENDBRANCH   1  14
TORSDOF 5
