REMARK  Name = ZINC36708924
REMARK  9 active torsions:
REMARK  status: ('A' for Active; 'I' for Inactive)
REMARK    1  A    between atoms: C_1  and  C_2
REMARK    2  A    between atoms: C_2  and  C_3
REMARK    3  A    between atoms: C_2  and  C_4
REMARK    4  A    between atoms: C_2  and  C_5
REMARK    5  A    between atoms: N_13  and  C_17
REMARK    6  A    between atoms: C_17  and  C_18
REMARK    7  A    between atoms: N_20  and  C_21
REMARK    8  A    between atoms: C_24  and  O_28
REMARK    9  A    between atoms: O_28  and  C_29
REMARK                            x       y       z     vdW  Elec       q    Type
REMARK                         _______ _______ _______ _____ _____    ______ ____
ROOT
ATOM      1  C   UNL     1       0.734  -0.481  -1.246  0.00  0.00    -0.005 C 
ATOM      2  C   UNL     1       0.748  -2.011  -1.250  0.00  0.00    +0.006 C 
ATOM      3  C   UNL     1       1.445  -2.510  -2.518  0.00  0.00    +0.035 C 
ATOM      4  C   UNL     1       2.871  -1.972  -2.564  0.00  0.00    +0.113 C 
ATOM      5  C   UNL     1       2.874  -0.448  -2.535  0.00  0.00    +0.035 C 
ATOM      6  C   UNL     1       2.171   0.043  -1.267  0.00  0.00    +0.006 C 
ATOM      7  C   UNL     1       3.681  -2.523  -1.413  0.00  0.00    +0.247 C 
ATOM      8  O   UNL     1       3.472  -2.369  -0.229  0.00  0.00    -0.273 OA
ATOM      9  N   UNL     1       4.684  -3.223  -1.981  0.00  0.00    -0.215 N 
ATOM     10  C   UNL     1       4.616  -3.187  -3.317  0.00  0.00    +0.310 C 
ATOM     11  O   UNL     1       5.410  -3.743  -4.050  0.00  0.00    -0.252 OA
ATOM     12  N   UNL     1       3.568  -2.465  -3.759  0.00  0.00    -0.285 N 
ATOM     13  H   UNL     1       3.323  -2.303  -4.683  0.00  0.00    +0.151 HD
ENDROOT
BRANCH   1  15
ATOM     14  C   UNL     1       0.012   1.549   0.018  0.00  0.00    +0.011 C 
ATOM     15  C   UNL     1       0.027   0.019   0.015  0.00  0.00    -0.035 C 
ATOM     16  C   UNL     1       0.772  -0.486   1.252  0.00  0.00    +0.011 C 
ATOM     17  C   UNL     1      -1.411  -0.505   0.035  0.00  0.00    +0.011 C 
ENDBRANCH   1  15
BRANCH   9  18
ATOM     18  C   UNL     1       5.721  -3.934  -1.228  0.00  0.00    +0.214 C 
BRANCH  18  19
ATOM     19  C   UNL     1       5.268  -5.346  -0.960  0.00  0.00    +0.235 C 
ATOM     20  O   UNL     1       4.185  -5.722  -1.358  0.00  0.00    -0.274 OA
ATOM     21  N   UNL     1       6.065  -6.192  -0.277  0.00  0.00    -0.284 N 
ATOM     22  H   UNL     1       6.957  -5.913  -0.017  0.00  0.00    +0.155 HD
BRANCH  21  23
ATOM     23  C   UNL     1       5.606  -7.472   0.057  0.00  0.00    +0.035 A 
ATOM     24  C   UNL     1       5.982  -8.053   1.260  0.00  0.00    +0.027 A 
ATOM     25  C   UNL     1       5.528  -9.315   1.590  0.00  0.00    +0.049 A 
ATOM     26  C   UNL     1       4.697 -10.004   0.718  0.00  0.00    +0.145 A 
ATOM     27  C   UNL     1       4.321  -9.424  -0.486  0.00  0.00    +0.084 A 
ATOM     28  C   UNL     1       4.770  -8.159  -0.814  0.00  0.00    +0.047 A 
ATOM     29 CL   UNL     1       3.281 -10.286  -1.577  0.00  0.00    -0.080 Cl
BRANCH  26  30
ATOM     30  O   UNL     1       4.251 -11.246   1.043  0.00  0.00    -0.433 OA
BRANCH  30  31
ATOM     31  C   UNL     1       4.678 -11.782   2.297  0.00  0.00    +0.541 C 
ATOM     32  F   UNL     1       6.074 -11.866   2.317  0.00  0.00    -0.166 F 
ATOM     33  F   UNL     1       4.247 -10.945   3.332  0.00  0.00    -0.166 F 
ENDBRANCH  30  31
ENDBRANCH  26  30
ENDBRANCH  21  23
ENDBRANCH  18  19
ENDBRANCH   9  18
TORSDOF 6
