REMARK  Name = ZINC03214274
REMARK  12 active torsions:
REMARK  status: ('A' for Active; 'I' for Inactive)
REMARK    1  A    between atoms: C_1  and  C_2
REMARK    2  A    between atoms: C_2  and  C_3
REMARK    3  A    between atoms: C_7  and  C_38
REMARK    4  A    between atoms: C_8  and  N_9
REMARK    5  A    between atoms: C_10  and  C_12
REMARK    6  A    between atoms: C_12  and  O_13
REMARK    7  A    between atoms: O_13  and  C_14
REMARK    8  A    between atoms: C_14  and  C_16
REMARK    9  A    between atoms: C_16  and  C_17
REMARK   10  A    between atoms: N_27  and  S_28
REMARK   11  A    between atoms: S_28  and  C_31
REMARK   12  A    between atoms: C_38  and  C_39
REMARK                            x       y       z     vdW  Elec       q    Type
REMARK                         _______ _______ _______ _____ _____    ______ ____
ROOT
ATOM      1  C   UNL     1       3.849   8.893  -3.573  0.00  0.00    +0.121 C 
ATOM      2  C   UNL     1       5.130   9.658  -3.355  0.00  0.00    -0.025 A 
ATOM      3  C   UNL     1       6.328   8.979  -3.531  0.00  0.00    +0.005 A 
ATOM      4  C   UNL     1       7.533   9.628  -3.356  0.00  0.00    +0.000 A 
ATOM      5  C   UNL     1       7.547  10.964  -3.003  0.00  0.00    +0.000 A 
ATOM      6  C   UNL     1       6.358  11.639  -2.823  0.00  0.00    +0.004 A 
ATOM      7  C   UNL     1       5.142  10.987  -2.994  0.00  0.00    -0.041 A 
ATOM      8  C   UNL     1       3.885  11.780  -2.756  0.00  0.00    +0.052 C 
ATOM      9  C   UNL     1       2.685  11.113  -3.427  0.00  0.00    +0.115 C 
ATOM     10  N   UNL     1       2.714   9.682  -3.083  0.00  0.00    -0.168 NA
ENDROOT
BRANCH  10  11
ATOM     11  S   UNL     1       1.511   8.990  -2.179  0.00  0.00    +0.061 S 
ATOM     12  O   UNL     1       0.340   9.001  -2.985  0.00  0.00    -0.153 OA
ATOM     13  O   UNL     1       2.049   7.794  -1.634  0.00  0.00    -0.153 OA
BRANCH  11  14
ATOM     14  C   UNL     1       1.196  10.066  -0.820  0.00  0.00    +0.106 A 
ATOM     15  C   UNL     1       1.980   9.993   0.315  0.00  0.00    +0.031 A 
ATOM     16  C   UNL     1       1.737  10.839   1.380  0.00  0.00    +0.040 A 
ATOM     17  C   UNL     1       0.701  11.755   1.313  0.00  0.00    +0.124 A 
ATOM     18  C   UNL     1      -0.088  11.824   0.177  0.00  0.00    +0.040 A 
ATOM     19  C   UNL     1       0.160  10.980  -0.888  0.00  0.00    +0.031 A 
ATOM     20  F   UNL     1       0.459  12.580   2.355  0.00  0.00    -0.205 F 
ENDBRANCH  11  14
ENDBRANCH  10  11
BRANCH   1  21
ATOM     21  C   UNL     1       3.913   7.566  -2.814  0.00  0.00    +0.146 C 
BRANCH  21  22
ATOM     22  C   UNL     1       2.862   6.629  -3.352  0.00  0.00    +0.309 C 
ATOM     23  O   UNL     1       2.218   6.939  -4.326  0.00  0.00    -0.251 OA
BRANCH  22  24
ATOM     24  O   UNL     1       2.643   5.450  -2.749  0.00  0.00    -0.455 OA
BRANCH  24  25
ATOM     25  C   UNL     1       1.616   4.598  -3.321  0.00  0.00    +0.328 C 
BRANCH  25  27
ATOM     26  N   UNL     1       0.619   2.380  -2.867  0.00  0.00    -0.282 N 
ATOM     27  C   UNL     1       1.512   3.327  -2.518  0.00  0.00    +0.255 C 
ATOM     28  O   UNL     1       2.232   3.156  -1.557  0.00  0.00    -0.272 OA
ATOM     29  H   UNL     1       0.058   2.507  -3.648  0.00  0.00    +0.155 HD
BRANCH  26  35
ATOM     30  C   UNL     1      -0.754   0.770  -1.702  0.00  0.00    -0.026 A 
ATOM     31  C   UNL     1      -0.868  -0.381  -0.947  0.00  0.00    +0.005 A 
ATOM     32  C   UNL     1       0.264  -1.091  -0.590  0.00  0.00    +0.001 A 
ATOM     33  C   UNL     1       1.514  -0.650  -0.987  0.00  0.00    +0.005 A 
ATOM     34  C   UNL     1       1.635   0.501  -1.740  0.00  0.00    -0.026 A 
ATOM     35  C   UNL     1       0.500   1.215  -2.102  0.00  0.00    +0.040 A 
BRANCH  30  37
ATOM     36  C   UNL     1      -2.436   1.104  -3.493  0.00  0.00    +0.009 C 
ATOM     37  C   UNL     1      -1.988   1.539  -2.096  0.00  0.00    +0.033 C 
ENDBRANCH  30  37
BRANCH  34  38
ATOM     38  C   UNL     1       2.997   0.980  -2.172  0.00  0.00    +0.033 C 
ATOM     39  C   UNL     1       3.923   1.045  -0.956  0.00  0.00    +0.009 C 
ENDBRANCH  34  38
ENDBRANCH  26  35
ENDBRANCH  25  27
ENDBRANCH  24  25
ENDBRANCH  22  24
ENDBRANCH  21  22
ENDBRANCH   1  21
TORSDOF 10
