REMARK  Name = ZINC09342337
REMARK  10 active torsions:
REMARK  status: ('A' for Active; 'I' for Inactive)
REMARK    1  A    between atoms: C_1  and  C_2
REMARK    2  A    between atoms: C_5  and  O_37
REMARK    3  A    between atoms: C_6  and  N_8
REMARK    4  A    between atoms: C_10  and  C_15
REMARK    5  A    between atoms: N_17  and  C_18
REMARK    6  A    between atoms: C_21  and  C_25
REMARK    7  A    between atoms: C_23  and  C_24
REMARK    8  A    between atoms: C_25  and  C_27
REMARK    9  A    between atoms: C_25  and  C_29
REMARK   10  A    between atoms: O_37  and  C_38
REMARK                            x       y       z     vdW  Elec       q    Type
REMARK                         _______ _______ _______ _____ _____    ______ ____
ROOT
ATOM      1  C   UNL     1      -7.186   4.457   2.092  0.00  0.00    +0.222 C 
ATOM      2  O   UNL     1      -6.715   5.487   2.526  0.00  0.00    -0.275 OA
ATOM      3  N   UNL     1      -8.523   4.300   2.033  0.00  0.00    -0.285 N 
ATOM      4  H   UNL     1      -8.901   3.513   1.609  0.00  0.00    +0.155 HD
ENDROOT
BRANCH   3   5
ATOM      5  C   UNL     1      -9.367   5.272   2.582  0.00  0.00    +0.038 A 
ATOM      6  C   UNL     1      -8.908   6.098   3.599  0.00  0.00    +0.044 A 
ATOM      7  C   UNL     1      -9.742   7.061   4.135  0.00  0.00    +0.047 A 
ATOM      8  C   UNL     1     -11.037   7.194   3.666  0.00  0.00    -0.008 A 
ATOM      9  C   UNL     1     -11.498   6.369   2.658  0.00  0.00    +0.011 A 
ATOM     10  C   UNL     1     -10.668   5.409   2.114  0.00  0.00    -0.029 A 
ATOM     11  C   UNL     1     -11.172   4.510   1.014  0.00  0.00    +0.045 C 
ATOM     12 CL   UNL     1      -9.166   8.099   5.402  0.00  0.00    -0.083 Cl
BRANCH   8  13
ATOM     13  C   UNL     1     -11.947   8.241   4.257  0.00  0.00    +0.153 C 
BRANCH  13  14
ATOM     14  C   UNL     1     -13.095   7.568   4.962  0.00  0.00    -0.026 A 
ATOM     15  C   UNL     1     -14.290   7.364   4.298  0.00  0.00    +0.006 A 
ATOM     16  C   UNL     1     -15.343   6.742   4.943  0.00  0.00    +0.020 A 
ATOM     17  C   UNL     1     -15.204   6.333   6.258  0.00  0.00    +0.041 A 
ATOM     18  C   UNL     1     -14.009   6.543   6.924  0.00  0.00    +0.020 A 
ATOM     19  C   UNL     1     -12.956   7.160   6.276  0.00  0.00    +0.006 A 
ATOM     20 CL   UNL     1     -16.527   5.559   7.071  0.00  0.00    -0.084 Cl
ENDBRANCH  13  14
BRANCH  13  21
ATOM     21  C   UNL     1     -12.467   9.101   3.182  0.00  0.00    +0.075 C 
ATOM     22  N   UNL     1     -12.869   9.765   2.352  0.00  0.00    -0.196 NA
ENDBRANCH  13  21
ENDBRANCH   8  13
ENDBRANCH   3   5
BRANCH   1  25
ATOM     23  N   UNL     1      -4.173   2.409   2.280  0.00  0.00    -0.267 N 
ATOM     24  C   UNL     1      -4.798   3.689   1.928  0.00  0.00    +0.127 C 
ATOM     25  C   UNL     1      -6.276   3.353   1.620  0.00  0.00    +0.102 C 
ATOM     26  C   UNL     1      -6.486   2.068   2.454  0.00  0.00    +0.110 C 
ATOM     27  C   UNL     1      -5.097   1.483   2.589  0.00  0.00    +0.221 C 
ATOM     28  O   UNL     1      -4.853   0.344   2.927  0.00  0.00    -0.275 OA
BRANCH  23  34
ATOM     29  C   UNL     1      -0.082   1.012  -0.064  0.00  0.00    +0.044 C 
ATOM     30  C   UNL     1      -0.782   1.505   1.176  0.00  0.00    -0.048 A 
ATOM     31  C   UNL     1      -0.057   1.734   2.332  0.00  0.00    +0.007 A 
ATOM     32  C   UNL     1      -0.693   2.187   3.473  0.00  0.00    +0.048 A 
ATOM     33  C   UNL     1      -2.060   2.412   3.461  0.00  0.00    +0.141 A 
ATOM     34  C   UNL     1      -2.790   2.182   2.298  0.00  0.00    +0.078 A 
ATOM     35  C   UNL     1      -2.144   1.734   1.155  0.00  0.00    +0.030 A 
BRANCH  33  36
ATOM     36  O   UNL     1      -2.687   2.857   4.583  0.00  0.00    -0.493 OA
ATOM     37  C   UNL     1      -1.874   3.071   5.739  0.00  0.00    +0.277 C 
ENDBRANCH  33  36
ENDBRANCH  23  34
ENDBRANCH   1  25
TORSDOF 7
