REMARK  Name = ZINC39709394
REMARK  9 active torsions:
REMARK  status: ('A' for Active; 'I' for Inactive)
REMARK    1  A    between atoms: C_1  and  C_2
REMARK    2  A    between atoms: C_2  and  C_3
REMARK    3  A    between atoms: C_8  and  C_12
REMARK    4  A    between atoms: C_12  and  C_14
REMARK    5  A    between atoms: C_14  and  S_15
REMARK    6  A    between atoms: S_15  and  C_16
REMARK    7  A    between atoms: N_27  and  C_28
REMARK    8  A    between atoms: C_28  and  C_29
REMARK    9  A    between atoms: C_29  and  C_30
REMARK                            x       y       z     vdW  Elec       q    Type
REMARK                         _______ _______ _______ _____ _____    ______ ____
ROOT
ATOM      1  C   UNL     1      -7.783  -2.274  -6.205  0.00  0.00    +0.222 C 
ATOM      2  N   UNL     1      -6.824  -3.141  -6.899  0.00  0.00    -0.317 N 
ATOM      3  C   UNL     1      -5.523  -2.687  -7.085  0.00  0.00    +0.043 A 
ATOM      4  C   UNL     1      -4.451  -3.558  -7.164  0.00  0.00    +0.043 A 
ATOM      5  C   UNL     1      -3.177  -3.060  -7.365  0.00  0.00    +0.043 A 
ATOM      6  C   UNL     1      -2.966  -1.694  -7.489  0.00  0.00    +0.021 A 
ATOM      7  C   UNL     1      -4.023  -0.812  -7.406  0.00  0.00    +0.016 A 
ATOM      8  C   UNL     1      -5.311  -1.301  -7.196  0.00  0.00    +0.058 A 
ATOM      9  C   UNL     1      -6.468  -0.398  -7.072  0.00  0.00    +0.250 C 
ATOM     10  O   UNL     1      -6.351   0.786  -7.322  0.00  0.00    -0.270 OA
ATOM     11  N   UNL     1      -7.654  -0.897  -6.681  0.00  0.00    -0.270 N 
ATOM     12 CL   UNL     1      -1.831  -4.152  -7.462  0.00  0.00    -0.083 Cl
ATOM     13  H   UNL     1      -7.093  -4.015  -7.223  0.00  0.00    +0.149 HD
ENDROOT
BRANCH   1  14
ATOM     14  S   UNL     1      -7.459  -2.326  -4.422  0.00  0.00    -0.111 S 
BRANCH  14  15
ATOM     15  C   UNL     1      -5.758  -1.714  -4.267  0.00  0.00    +0.151 C 
BRANCH  15  16
ATOM     16  C   UNL     1      -5.357  -1.706  -2.814  0.00  0.00    +0.171 C 
ATOM     17  O   UNL     1      -6.142  -2.078  -1.966  0.00  0.00    -0.291 OA
BRANCH  16  23
ATOM     18  C   UNL     1      -1.412  -0.526   0.013  0.00  0.00    -0.024 A 
ATOM     19  C   UNL     1      -2.010  -0.859   1.177  0.00  0.00    +0.005 A 
ATOM     20  C   UNL     1      -3.325  -1.347   1.223  0.00  0.00    +0.001 A 
ATOM     21  C   UNL     1      -4.077  -1.516   0.112  0.00  0.00    +0.010 A 
ATOM     22  C   UNL     1      -3.548  -1.198  -1.161  0.00  0.00    +0.006 A 
ATOM     23  C   UNL     1      -4.069  -1.267  -2.441  0.00  0.00    +0.024 C 
ATOM     24  C   UNL     1      -2.969  -0.774  -3.355  0.00  0.00    +0.152 C 
ATOM     25  N   UNL     1      -1.837  -0.441  -2.485  0.00  0.00    -0.380 N 
ATOM     26  C   UNL     1      -2.162  -0.673  -1.245  0.00  0.00    +0.046 A 
ATOM     27  H   UNL     1      -0.981  -0.097  -2.785  0.00  0.00    +0.160 HD
BRANCH  18  29
ATOM     28  C   UNL     1      -0.019   1.526   0.010  0.00  0.00    +0.009 C 
ATOM     29  C   UNL     1       0.002  -0.004   0.002  0.00  0.00    +0.034 C 
ENDBRANCH  18  29
ENDBRANCH  16  23
ENDBRANCH  15  16
ENDBRANCH  14  15
ENDBRANCH   1  14
BRANCH  11  30
ATOM     30  C   UNL     1      -8.841  -0.039  -6.732  0.00  0.00    +0.122 C 
BRANCH  30  31
ATOM     31  C   UNL     1      -8.993   0.701  -5.402  0.00  0.00    +0.144 C 
BRANCH  31  32
ATOM     32  C   UNL     1     -10.214   1.583  -5.455  0.00  0.00    +0.358 C 
ATOM     33  O   UNL     1     -10.899   1.617  -6.463  0.00  0.00    -0.246 OA
ATOM     34  O   UNL     1     -10.517   2.262  -4.489  0.00  0.00    -0.246 OA
ENDBRANCH  31  32
ENDBRANCH  30  31
ENDBRANCH  11  30
TORSDOF 8
