REMARK  Name = ZINC30962161
REMARK  13 active torsions:
REMARK  status: ('A' for Active; 'I' for Inactive)
REMARK    1  A    between atoms: C_1  and  C_2
REMARK    2  A    between atoms: C_2  and  C_3
REMARK    3  A    between atoms: C_3  and  C_4
REMARK    4  A    between atoms: C_4  and  O_5
REMARK    5  A    between atoms: O_5  and  C_6
REMARK    6  A    between atoms: C_9  and  C_13
REMARK    7  A    between atoms: N_14  and  N_15
REMARK    8  A    between atoms: C_16  and  C_18
REMARK    9  A    between atoms: C_18  and  C_20
REMARK   10  A    between atoms: C_18  and  N_23
REMARK   11  A    between atoms: C_20  and  C_21
REMARK   12  A    between atoms: C_20  and  C_22
REMARK   13  A    between atoms: C_24  and  C_26
REMARK                            x       y       z     vdW  Elec       q    Type
REMARK                         _______ _______ _______ _____ _____    ______ ____
ROOT
ATOM      1  N   UNL     1       1.163   6.726  -0.071  0.00  0.00    -0.205 N 
ATOM      2  C   UNL     1       1.134   8.059  -0.266  0.00  0.00    +0.253 C 
ATOM      3  O   UNL     1       2.167   8.666  -0.456  0.00  0.00    -0.272 OA
ATOM      4  H   UNL     1       0.226   6.175   0.101  0.00  0.00    +0.177 HD
ENDROOT
BRANCH   1   6
ATOM      5  C   UNL     1       2.404   4.745  -0.025  0.00  0.00    +0.138 C 
ATOM      6  N   UNL     1       2.385   6.041  -0.087  0.00  0.00    -0.188 NA
BRANCH   5  10
ATOM      7  C   UNL     1      -0.937   2.506  -1.385  0.00  0.00    +0.134 A 
ATOM      8  C   UNL     1      -0.823   3.849  -1.717  0.00  0.00    +0.047 A 
ATOM      9  C   UNL     1       0.261   4.580  -1.279  0.00  0.00    +0.013 A 
ATOM     10  C   UNL     1       1.243   3.968  -0.495  0.00  0.00    -0.004 A 
ATOM     11  C   UNL     1       1.121   2.617  -0.159  0.00  0.00    +0.028 A 
ATOM     12  C   UNL     1       0.033   1.894  -0.601  0.00  0.00    +0.060 A 
ATOM     13 BR   UNL     1      -0.134   0.066  -0.147  0.00  0.00    -0.046 Br
BRANCH   7  14
ATOM     14  O   UNL     1      -2.004   1.788  -1.824  0.00  0.00    -0.491 OA
BRANCH  14  15
ATOM     15  C   UNL     1      -2.965   2.479  -2.626  0.00  0.00    +0.229 C 
BRANCH  15  16
ATOM     16  C   UNL     1      -4.085   1.516  -3.022  0.00  0.00    +0.041 C 
BRANCH  16  18
ATOM     17  C   UNL     1      -6.234   1.291  -4.277  0.00  0.00    +0.004 C 
ATOM     18  C   UNL     1      -5.114   2.255  -3.881  0.00  0.00    -0.000 C 
ENDBRANCH  16  18
ENDBRANCH  15  16
ENDBRANCH  14  15
ENDBRANCH   7  14
ENDBRANCH   5  10
ENDBRANCH   1   6
BRANCH   2  19
ATOM     19  C   UNL     1      -0.180   8.795  -0.250  0.00  0.00    +0.163 C 
BRANCH  19  20
ATOM     20  N   UNL     1       0.056  10.222  -0.484  0.00  0.00    -0.300 N 
ATOM     21  C   UNL     1      -0.828  11.134  -0.034  0.00  0.00    +0.245 C 
ATOM     22  O   UNL     1      -1.822  10.773   0.567  0.00  0.00    -0.270 OA
ATOM     23  H   UNL     1       0.954  10.548  -1.028  0.00  0.00    +0.150 HD
BRANCH  21  24
ATOM     24  C   UNL     1      -0.590  12.573  -0.270  0.00  0.00    +0.037 A 
ATOM     25  C   UNL     1       0.552  12.991  -0.955  0.00  0.00    +0.014 A 
ATOM     26  C   UNL     1       0.766  14.335  -1.179  0.00  0.00    +0.021 A 
ATOM     27  C   UNL     1      -0.144  15.270  -0.714  0.00  0.00    +0.041 A 
ATOM     28  C   UNL     1      -1.277  14.862  -0.029  0.00  0.00    +0.021 A 
ATOM     29  C   UNL     1      -1.504  13.521   0.195  0.00  0.00    +0.014 A 
ATOM     30 CL   UNL     1       0.135  16.961  -0.993  0.00  0.00    -0.084 Cl
ENDBRANCH  21  24
ENDBRANCH  19  20
BRANCH  19  31
ATOM     31  C   UNL     1      -1.089   8.241  -1.349  0.00  0.00    +0.012 C 
ATOM     32  C   UNL     1      -2.424   8.988  -1.332  0.00  0.00    +0.009 C 
ATOM     33  C   UNL     1      -0.416   8.430  -2.710  0.00  0.00    +0.009 C 
ENDBRANCH  19  31
ENDBRANCH   2  19
TORSDOF 10
