REMARK  Name = ZINC09508697
REMARK  6 active torsions:
REMARK  status: ('A' for Active; 'I' for Inactive)
REMARK    1  A    between atoms: C_4  and  S_7
REMARK    2  A    between atoms: S_7  and  N_10
REMARK    3  A    between atoms: N_10  and  C_11
REMARK    4  A    between atoms: C_20  and  N_51
REMARK    5  A    between atoms: C_22  and  C_23
REMARK    6  A    between atoms: C_22  and  N_51
REMARK                            x       y       z     vdW  Elec       q    Type
REMARK                         _______ _______ _______ _____ _____    ______ ____
ROOT
ATOM      1  C   UNL     1      -4.923   0.227   2.778  0.00  0.00    +0.071 C 
ATOM      2  C   UNL     1      -5.587  -1.137   3.063  0.00  0.00    +0.054 C 
ATOM      3  C   UNL     1      -4.714  -2.156   2.362  0.00  0.00    -0.044 A 
ATOM      4  C   UNL     1      -4.630  -3.529   2.524  0.00  0.00    +0.004 A 
ATOM      5  C   UNL     1      -3.746  -4.266   1.761  0.00  0.00    +0.000 A 
ATOM      6  C   UNL     1      -2.942  -3.633   0.832  0.00  0.00    +0.000 A 
ATOM      7  C   UNL     1      -3.023  -2.264   0.669  0.00  0.00    +0.002 A 
ATOM      8  C   UNL     1      -3.909  -1.523   1.434  0.00  0.00    -0.057 A 
ATOM      9  C   UNL     1      -4.187  -0.035   1.447  0.00  0.00    -0.021 C 
ENDROOT
BRANCH   9  10
ATOM     10  N   UNL     1      -2.921   0.722   1.414  0.00  0.00    +0.387 N 
ATOM     11  H   UNL     1      -2.189   0.179   1.887  0.00  0.00    -0.084 HD
ATOM     12  H   UNL     1      -3.049   1.618   1.899  0.00  0.00    -0.084 HD
BRANCH  10  13
ATOM     13  C   UNL     1      -2.513   0.977   0.020  0.00  0.00    -0.046 C 
BRANCH  13  14
ATOM     14  C   UNL     1      -1.219   1.750   0.017  0.00  0.00    -0.061 A 
ATOM     15  C   UNL     1      -1.242   3.133   0.030  0.00  0.00    +0.005 A 
ATOM     16  C   UNL     1      -0.058   3.846   0.023  0.00  0.00    +0.050 A 
ATOM     17  C   UNL     1       1.155   3.177   0.008  0.00  0.00    +0.166 A 
ATOM     18  C   UNL     1       1.178   1.784   0.000  0.00  0.00    +0.166 A 
ATOM     19  C   UNL     1      -0.013   1.076   0.008  0.00  0.00    +0.051 A 
ATOM     20  O   UNL     1       2.478   1.369  -0.015  0.00  0.00    -0.453 OA
ATOM     21  C   UNL     1       3.251   2.513   0.396  0.00  0.00    +0.466 C 
ATOM     22  O   UNL     1       2.441   3.634  -0.003  0.00  0.00    -0.453 OA
ENDBRANCH  13  14
ENDBRANCH  10  13
ENDBRANCH   9  10
BRANCH   1  23
ATOM     23  N   UNL     1      -5.935   1.274   2.616  0.00  0.00    -0.188 NA
ATOM     24  H   UNL     1      -6.427   1.349   1.783  0.00  0.00    +0.148 HD
BRANCH  23  25
ATOM     25  S   UNL     1      -6.239   2.330   3.854  0.00  0.00    +0.059 S 
ATOM     26  O   UNL     1      -7.236   3.228   3.387  0.00  0.00    -0.153 OA
ATOM     27  O   UNL     1      -6.412   1.544   5.026  0.00  0.00    -0.153 OA
BRANCH  25  31
ATOM     28  C   UNL     1      -2.483   4.778   4.481  0.00  0.00    +0.000 A 
ATOM     29  C   UNL     1      -3.453   5.214   3.597  0.00  0.00    +0.002 A 
ATOM     30  C   UNL     1      -4.600   4.466   3.406  0.00  0.00    +0.028 A 
ATOM     31  C   UNL     1      -4.777   3.283   4.098  0.00  0.00    +0.105 A 
ATOM     32  C   UNL     1      -3.810   2.850   4.986  0.00  0.00    +0.028 A 
ATOM     33  C   UNL     1      -2.661   3.595   5.173  0.00  0.00    +0.002 A 
ENDBRANCH  25  31
ENDBRANCH  23  25
ENDBRANCH   1  23
TORSDOF 6
