REMARK  Name = ZINC21539353
REMARK  4 active torsions:
REMARK  status: ('A' for Active; 'I' for Inactive)
REMARK    1  A    between atoms: C_1  and  S_2
REMARK    2  A    between atoms: S_2  and  C_3
REMARK    3  A    between atoms: C_7  and  N_9
REMARK    4  A    between atoms: C_24  and  C_26
REMARK                            x       y       z     vdW  Elec       q    Type
REMARK                         _______ _______ _______ _____ _____    ______ ____
ROOT
ATOM      1  N   UNL     1      -5.593   5.893  -1.804  0.00  0.00    -0.269 N 
ATOM      2  C   UNL     1      -4.723   5.869  -2.833  0.00  0.00    +0.308 C 
ATOM      3  O   UNL     1      -4.585   6.852  -3.535  0.00  0.00    -0.252 OA
ATOM      4  N   UNL     1      -4.006   4.756  -3.084  0.00  0.00    -0.268 N 
ATOM      5  C   UNL     1      -4.146   3.544  -2.255  0.00  0.00    +0.148 C 
ATOM      6  C   UNL     1      -2.823   2.858  -1.994  0.00  0.00    +0.005 A 
ATOM      7  C   UNL     1      -2.216   2.820  -0.722  0.00  0.00    -0.030 A 
ATOM      8  C   UNL     1      -1.041   2.148  -0.603  0.00  0.00    -0.005 A 
ATOM      9  S   UNL     1      -0.720   1.560  -2.247  0.00  0.00    -0.075 S 
ATOM     10  C   UNL     1      -2.164   2.235  -3.008  0.00  0.00    +0.090 A 
ATOM     11  N   UNL     1      -2.606   2.209  -4.325  0.00  0.00    -0.312 N 
ATOM     12  C   UNL     1      -2.692   1.200  -5.222  0.00  0.00    +0.092 A 
ATOM     13  C   UNL     1      -3.260   1.689  -6.348  0.00  0.00    +0.020 A 
ATOM     14  C   UNL     1      -3.513   3.061  -6.135  0.00  0.00    +0.025 A 
ATOM     15  C   UNL     1      -3.082   3.363  -4.902  0.00  0.00    +0.049 A 
ATOM     16  C   UNL     1      -3.040   4.690  -4.206  0.00  0.00    +0.155 C 
ATOM     17  C   UNL     1      -0.218   1.959   0.629  0.00  0.00    +0.043 C 
ATOM     18  C   UNL     1      -0.701   2.959   1.691  0.00  0.00    +0.005 C 
ATOM     19  C   UNL     1      -2.231   2.899   1.761  0.00  0.00    +0.005 C 
ATOM     20  C   UNL     1      -2.838   3.502   0.493  0.00  0.00    +0.036 C 
ATOM     21  H   UNL     1      -5.664   5.032  -1.124  0.00  0.00    +0.156 HD
ENDROOT
BRANCH   1  26
ATOM     22  C   UNL     1      -6.735   9.391  -1.684  0.00  0.00    +0.009 A 
ATOM     23  C   UNL     1      -8.027   9.226  -1.198  0.00  0.00    +0.015 A 
ATOM     24  C   UNL     1      -8.504   7.961  -0.917  0.00  0.00    +0.003 A 
ATOM     25  C   UNL     1      -7.699   6.855  -1.117  0.00  0.00    +0.023 A 
ATOM     26  C   UNL     1      -6.407   7.013  -1.602  0.00  0.00    +0.036 A 
ATOM     27  C   UNL     1      -5.923   8.283  -1.880  0.00  0.00    +0.038 A 
BRANCH  22  29
ATOM     28  C   UNL     1      -7.514  12.099  -1.629  0.00  0.00    +0.090 C 
ATOM     29  S   UNL     1      -6.127  11.006  -2.042  0.00  0.00    -0.129 S 
ENDBRANCH  22  29
ENDBRANCH   1  26
BRANCH  16  30
ATOM     30  C   UNL     1      -1.650   4.919  -3.670  0.00  0.00    -0.021 A 
ATOM     31  C   UNL     1      -1.471   5.599  -2.480  0.00  0.00    +0.006 A 
ATOM     32  C   UNL     1      -0.197   5.805  -1.986  0.00  0.00    +0.000 A 
ATOM     33  C   UNL     1       0.900   5.340  -2.688  0.00  0.00    +0.000 A 
ATOM     34  C   UNL     1       0.722   4.664  -3.880  0.00  0.00    +0.000 A 
ATOM     35  C   UNL     1      -0.553   4.454  -4.372  0.00  0.00    +0.006 A 
ENDBRANCH  16  30
TORSDOF 3
