REMARK  Name = ZINC28053311
REMARK  5 active torsions:
REMARK  status: ('A' for Active; 'I' for Inactive)
REMARK    1  A    between atoms: C_1  and  C_2
REMARK    2  A    between atoms: C_10  and  C_18
REMARK    3  A    between atoms: C_24  and  C_27
REMARK    4  A    between atoms: C_30  and  O_33
REMARK    5  A    between atoms: O_33  and  C_34
REMARK                            x       y       z     vdW  Elec       q    Type
REMARK                         _______ _______ _______ _____ _____    ______ ____
ROOT
ATOM      1  C   UNL     1      -1.747   0.236   0.122  0.00  0.00    +0.044 C 
ATOM      2  C   UNL     1      -0.603   1.216   0.090  0.00  0.00    -0.050 A 
ATOM      3  C   UNL     1       0.700   0.752   0.039  0.00  0.00    +0.007 A 
ATOM      4  C   UNL     1       1.761   1.640   0.003  0.00  0.00    +0.046 A 
ATOM      5  C   UNL     1       1.518   3.001   0.023  0.00  0.00    +0.131 A 
ATOM      6  C   UNL     1       0.200   3.472   0.081  0.00  0.00    +0.038 A 
ATOM      7  C   UNL     1      -0.860   2.574   0.116  0.00  0.00    +0.016 A 
ATOM      8  C   UNL     1      -0.025   4.937   0.102  0.00  0.00    +0.050 C 
ATOM      9  C   UNL     1       0.979   5.739  -0.259  0.00  0.00    +0.025 C 
ATOM     10  C   UNL     1       0.859   7.243  -0.235  0.00  0.00    +0.174 C 
ATOM     11  N   UNL     1      -0.536   7.632  -0.085  0.00  0.00    -0.201 N 
ATOM     12  C   UNL     1      -1.527   6.773   0.273  0.00  0.00    +0.240 A 
ATOM     13  N   UNL     1      -2.634   7.457   0.319  0.00  0.00    -0.092 NA
ATOM     14  N   UNL     1      -2.412   8.688   0.010  0.00  0.00    -0.021 NA
ATOM     15  N   UNL     1      -1.157   8.869  -0.250  0.00  0.00    -0.042 NA
ATOM     16  N   UNL     1      -1.269   5.433   0.509  0.00  0.00    -0.282 N 
ATOM     17  C   UNL     1       2.287   5.127  -0.706  0.00  0.00    +0.234 C 
ATOM     18  O   UNL     1       2.531   3.903  -0.012  0.00  0.00    -0.479 OA
ATOM     19  H   UNL     1      -1.996   4.765   0.994  0.00  0.00    +0.155 HD
ENDROOT
BRANCH  10  20
ATOM     20  C   UNL     1       1.658   7.790   0.920  0.00  0.00    -0.019 A 
ATOM     21  C   UNL     1       1.349   7.413   2.213  0.00  0.00    +0.006 A 
ATOM     22  C   UNL     1       2.085   7.910   3.272  0.00  0.00    +0.000 A 
ATOM     23  C   UNL     1       3.123   8.793   3.039  0.00  0.00    +0.000 A 
ATOM     24  C   UNL     1       3.428   9.174   1.745  0.00  0.00    +0.000 A 
ATOM     25  C   UNL     1       2.696   8.672   0.686  0.00  0.00    +0.006 A 
ENDBRANCH  10  20
BRANCH  17  26
ATOM     26  C   UNL     1       2.229   4.856  -2.187  0.00  0.00    -0.003 A 
ATOM     27  C   UNL     1       1.522   3.766  -2.662  0.00  0.00    +0.011 A 
ATOM     28  C   UNL     1       1.463   3.518  -4.019  0.00  0.00    +0.046 A 
ATOM     29  C   UNL     1       2.122   4.357  -4.906  0.00  0.00    +0.120 A 
ATOM     30  C   UNL     1       2.835   5.447  -4.426  0.00  0.00    +0.046 A 
ATOM     31  C   UNL     1       2.887   5.693  -3.068  0.00  0.00    +0.011 A 
BRANCH  29  32
ATOM     32  O   UNL     1       2.071   4.112  -6.242  0.00  0.00    -0.495 OA
ATOM     33  C   UNL     1       1.318   2.973  -6.663  0.00  0.00    +0.277 C 
ENDBRANCH  29  32
ENDBRANCH  17  26
TORSDOF 3
