REMARK  Name = ZINC22184863
REMARK  11 active torsions:
REMARK  status: ('A' for Active; 'I' for Inactive)
REMARK    1  A    between atoms: C_1  and  C_2
REMARK    2  A    between atoms: C_2  and  C_4
REMARK    3  A    between atoms: C_2  and  N_20
REMARK    4  A    between atoms: N_6  and  C_7
REMARK    5  A    between atoms: N_6  and  C_8
REMARK    6  A    between atoms: C_8  and  C_9
REMARK    7  A    between atoms: C_21  and  C_23
REMARK    8  A    between atoms: C_26  and  C_29
REMARK    9  A    between atoms: C_29  and  C_30
REMARK   10  A    between atoms: C_29  and  C_31
REMARK   11  A    between atoms: C_29  and  C_32
REMARK                            x       y       z     vdW  Elec       q    Type
REMARK                         _______ _______ _______ _____ _____    ______ ____
ROOT
ATOM      1  C   UNL     1       0.108   1.473  -0.149  0.00  0.00    +0.038 C 
ATOM      2  C   UNL     1      -0.020  -0.044   0.002  0.00  0.00    +0.156 C 
ENDROOT
BRANCH   2   3
ATOM      3  C   UNL     1       0.832  -0.508   1.155  0.00  0.00    +0.236 C 
ATOM      4  O   UNL     1       1.874  -1.091   0.944  0.00  0.00    -0.274 OA
ATOM      5  N   UNL     1       0.436  -0.273   2.422  0.00  0.00    -0.296 N 
ATOM      6  C   UNL     1      -0.860   0.360   2.679  0.00  0.00    +0.132 C 
BRANCH   5   7
ATOM      7  C   UNL     1       1.301  -0.653   3.542  0.00  0.00    +0.181 C 
BRANCH   7   8
ATOM      8  C   UNL     1       2.215   0.496   3.883  0.00  0.00    +0.128 A 
ATOM      9  N   UNL     1       3.103   0.336   4.899  0.00  0.00    -0.309 N 
ATOM     10  H   UNL     1       3.142  -0.500   5.388  0.00  0.00    +0.170 HD
ATOM     11  C   UNL     1       3.934   1.357   5.221  0.00  0.00    +0.266 A 
ATOM     12  O   UNL     1       4.742   1.245   6.128  0.00  0.00    -0.267 OA
ATOM     13  C   UNL     1       3.839   2.539   4.487  0.00  0.00    +0.102 A 
ATOM     14  C   UNL     1       2.911   2.679   3.440  0.00  0.00    +0.085 A 
ATOM     15  N   UNL     1       2.119   1.585   3.189  0.00  0.00    -0.232 NA
ATOM     16  C   UNL     1       2.922   3.918   2.786  0.00  0.00    +0.036 A 
ATOM     17  C   UNL     1       3.785   4.883   3.171  0.00  0.00    +0.048 A 
ATOM     18  S   UNL     1       4.668   4.106   4.514  0.00  0.00    -0.090 S 
ENDBRANCH   7   8
ENDBRANCH   5   7
ENDBRANCH   2   3
BRANCH   2  19
ATOM     19  N   UNL     1       0.429  -0.697  -1.230  0.00  0.00    -0.300 N 
ATOM     20  C   UNL     1      -0.427  -0.857  -2.259  0.00  0.00    +0.245 C 
ATOM     21  O   UNL     1      -1.571  -0.460  -2.164  0.00  0.00    -0.270 OA
ATOM     22  H   UNL     1       1.343  -1.014  -1.306  0.00  0.00    +0.150 HD
BRANCH  20  23
ATOM     23  C   UNL     1       0.027  -1.516  -3.502  0.00  0.00    +0.037 A 
ATOM     24  C   UNL     1       1.339  -1.979  -3.612  0.00  0.00    +0.013 A 
ATOM     25  C   UNL     1       1.755  -2.594  -4.774  0.00  0.00    +0.005 A 
ATOM     26  C   UNL     1       0.876  -2.752  -5.831  0.00  0.00    -0.042 A 
ATOM     27  C   UNL     1      -0.426  -2.295  -5.729  0.00  0.00    +0.005 A 
ATOM     28  C   UNL     1      -0.857  -1.684  -4.569  0.00  0.00    +0.013 A 
BRANCH  26  29
ATOM     29  C   UNL     1       1.338  -3.423  -7.098  0.00  0.00    -0.013 C 
ATOM     30  C   UNL     1       1.798  -4.848  -6.782  0.00  0.00    +0.015 C 
ATOM     31  C   UNL     1       0.183  -3.471  -8.100  0.00  0.00    +0.015 C 
ATOM     32  C   UNL     1       2.502  -2.633  -7.699  0.00  0.00    +0.015 C 
ENDBRANCH  26  29
ENDBRANCH  20  23
ENDBRANCH   2  19
TORSDOF 6
