REMARK  Name = ZINC52095067
REMARK  2 active torsions:
REMARK  status: ('A' for Active; 'I' for Inactive)
REMARK    1  A    between atoms: C_5  and  C_6
REMARK    2  A    between atoms: C_6  and  C_8
REMARK                            x       y       z     vdW  Elec       q    Type
REMARK                         _______ _______ _______ _____ _____    ______ ____
ROOT
ATOM      1  C   UNL     1      -1.243  -1.694  -1.283  0.00  0.00    -0.009 A 
ATOM      2  C   UNL     1      -0.695  -2.960  -1.345  0.00  0.00    +0.034 A 
ATOM      3  C   UNL     1      -0.739  -3.673  -2.533  0.00  0.00    +0.067 A 
ATOM      4  C   UNL     1      -1.336  -3.109  -3.662  0.00  0.00    +0.068 A 
ATOM      5  C   UNL     1      -1.883  -1.837  -3.591  0.00  0.00    +0.043 A 
ATOM      6  C   UNL     1      -1.840  -1.135  -2.401  0.00  0.00    +0.025 A 
ATOM      7 BR   UNL     1      -2.594   0.596  -2.300  0.00  0.00    -0.050 Br
ATOM      8  N   UNL     1      -1.229  -4.047  -4.686  0.00  0.00    -0.306 N 
ATOM      9  H   UNL     1      -1.554  -3.937  -5.593  0.00  0.00    +0.170 HD
ATOM     10  C   UNL     1      -0.596  -5.132  -4.203  0.00  0.00    +0.325 A 
ATOM     11  O   UNL     1      -0.340  -6.136  -4.840  0.00  0.00    -0.247 OA
ATOM     12  N   UNL     1      -0.287  -4.937  -2.907  0.00  0.00    -0.306 N 
ATOM     13  H   UNL     1       0.171  -5.569  -2.331  0.00  0.00    +0.170 HD
ENDROOT
BRANCH   1  14
ATOM     14  C   UNL     1      -1.196  -0.918   0.009  0.00  0.00    +0.144 C 
ATOM     15 CL   UNL     1      -1.069  -2.066   1.394  0.00  0.00    -0.112 Cl
BRANCH  14  20
ATOM     16  C   UNL     1      -0.017   1.410   0.010  0.00  0.00    +0.046 A 
ATOM     17  C   UNL     1       1.265   1.817  -0.000  0.00  0.00    +0.195 A 
ATOM     18  O   UNL     1       2.055   0.731  -0.014  0.00  0.00    -0.471 OA
ATOM     19  C   UNL     1       1.295  -0.376  -0.012  0.00  0.00    +0.200 A 
ATOM     20  C   UNL     1       0.002  -0.004   0.002  0.00  0.00    +0.012 A 
ENDBRANCH  14  20
ENDBRANCH   1  14
TORSDOF 2
