REMARK  Name = ZINC67036725
REMARK  5 active torsions:
REMARK  status: ('A' for Active; 'I' for Inactive)
REMARK    1  A    between atoms: C_5  and  C_7
REMARK    2  A    between atoms: N_16  and  C_17
REMARK    3  A    between atoms: C_17  and  C_18
REMARK    4  A    between atoms: C_18  and  C_20
REMARK    5  A    between atoms: C_18  and  N_25
REMARK                            x       y       z     vdW  Elec       q    Type
REMARK                         _______ _______ _______ _____ _____    ______ ____
ROOT
ATOM      1  C   UNL     1      -1.423  -4.023   1.724  0.00  0.00    +0.168 C 
ATOM      2  C   UNL     1      -0.214  -4.708   1.076  0.00  0.00    +0.145 C 
ATOM      3  N   UNL     1       1.010  -4.154   1.676  0.00  0.00    -0.281 N 
ATOM      4  C   UNL     1       1.152  -2.691   1.732  0.00  0.00    +0.137 C 
ATOM      5  C   UNL     1      -0.123  -2.104   2.348  0.00  0.00    +0.179 C 
ATOM      6  O   UNL     1      -1.261  -2.605   1.643  0.00  0.00    -0.369 OA
ATOM      7  C   UNL     1       1.972  -4.964   2.161  0.00  0.00    +0.302 C 
ATOM      8  O   UNL     1       3.015  -4.491   2.571  0.00  0.00    -0.253 OA
ATOM      9  N   UNL     1       1.779  -6.297   2.192  0.00  0.00    -0.300 N 
ATOM     10  H   UNL     1       0.980  -6.681   1.798  0.00  0.00    +0.150 HD
ENDROOT
BRANCH   1  15
ATOM     11  C   UNL     1      -4.337  -4.002  -0.676  0.00  0.00    +0.001 A 
ATOM     12  C   UNL     1      -4.988  -5.173  -0.333  0.00  0.00    +0.003 A 
ATOM     13  C   UNL     1      -4.486  -5.973   0.676  0.00  0.00    +0.039 A 
ATOM     14  C   UNL     1      -3.330  -5.602   1.343  0.00  0.00    +0.129 A 
ATOM     15  C   UNL     1      -2.680  -4.429   0.999  0.00  0.00    +0.018 A 
ATOM     16  C   UNL     1      -3.184  -3.631  -0.011  0.00  0.00    +0.009 A 
ATOM     17  F   UNL     1      -2.838  -6.383   2.329  0.00  0.00    -0.205 F 
ENDBRANCH   1  15
BRANCH   9  18
ATOM     18  C   UNL     1       2.776  -7.168   2.819  0.00  0.00    +0.098 C 
BRANCH  18  19
ATOM     19  C   UNL     1       2.382  -8.631   2.607  0.00  0.00    +0.016 C 
BRANCH  19  20
ATOM     20  N   UNL     1       3.305  -9.499   3.350  0.00  0.00    +0.387 N 
ATOM     21  C   UNL     1       3.119  -9.313   4.812  0.00  0.00    -0.078 C 
ATOM     22  C   UNL     1       3.693 -10.621   5.412  0.00  0.00    -0.020 C 
ATOM     23  C   UNL     1       3.252 -11.693   4.388  0.00  0.00    -0.020 C 
ATOM     24  C   UNL     1       2.995 -10.921   3.082  0.00  0.00    -0.078 C 
ATOM     25  H   UNL     1       4.259  -9.296   3.091  0.00  0.00    -0.081 HD
ENDBRANCH  19  20
BRANCH  19  26
ATOM     26  C   UNL     1       2.453  -8.962   1.138  0.00  0.00    +0.093 A 
ATOM     27  C   UNL     1       1.409  -9.014   0.292  0.00  0.00    +0.043 A 
ATOM     28  C   UNL     1       1.926  -9.359  -0.977  0.00  0.00    +0.041 A 
ATOM     29  C   UNL     1       3.256  -9.497  -0.831  0.00  0.00    +0.195 A 
ATOM     30  O   UNL     1       3.570  -9.250   0.451  0.00  0.00    -0.469 OA
ENDBRANCH  19  26
ENDBRANCH  18  19
ENDBRANCH   9  18
TORSDOF 5
