REMARK  Name = ZINC06455962
REMARK  8 active torsions:
REMARK  status: ('A' for Active; 'I' for Inactive)
REMARK    1  A    between atoms: C_1  and  C_2
REMARK    2  A    between atoms: C_2  and  C_4
REMARK    3  A    between atoms: C_2  and  S_14
REMARK    4  A    between atoms: N_6  and  C_7
REMARK    5  A    between atoms: N_6  and  C_8
REMARK    6  A    between atoms: S_14  and  C_15
REMARK    7  A    between atoms: C_18  and  C_21
REMARK    8  A    between atoms: N_19  and  N_20
REMARK                            x       y       z     vdW  Elec       q    Type
REMARK                         _______ _______ _______ _____ _____    ______ ____
ROOT
ATOM      1  C   UNL     1       8.651  -0.742  -1.246  0.00  0.00    +0.209 A 
ATOM      2  N   UNL     1       8.686  -1.966  -0.766  0.00  0.00    -0.121 NA
ATOM      3  N   UNL     1       9.844  -2.486  -0.968  0.00  0.00    -0.127 NA
ATOM      4  C   UNL     1      10.622  -1.624  -1.581  0.00  0.00    +0.182 A 
ATOM      5  N   UNL     1       9.882  -0.481  -1.778  0.00  0.00    -0.224 N 
ENDROOT
BRANCH   4   6
ATOM      6  C   UNL     1      12.027  -1.841  -1.983  0.00  0.00    +0.021 A 
ATOM      7  C   UNL     1      12.547  -3.135  -2.044  0.00  0.00    +0.013 A 
ATOM      8  C   UNL     1      13.858  -3.332  -2.426  0.00  0.00    +0.021 A 
ATOM      9  C   UNL     1      14.661  -2.248  -2.738  0.00  0.00    +0.041 A 
ATOM     10  C   UNL     1      14.153  -0.962  -2.674  0.00  0.00    +0.021 A 
ATOM     11  C   UNL     1      12.842  -0.753  -2.299  0.00  0.00    +0.013 A 
ATOM     12 CL   UNL     1      16.312  -2.503  -3.210  0.00  0.00    -0.084 Cl
ENDBRANCH   4   6
BRANCH   5  13
ATOM     13  N   UNL     1      10.293   0.674  -2.379  0.00  0.00    -0.295 N 
ATOM     14  H   UNL     1      11.318   0.757  -2.769  0.00  0.00    +0.163 HD
ATOM     15  H   UNL     1       9.598   1.522  -2.475  0.00  0.00    +0.163 HD
ENDBRANCH   5  13
BRANCH   1  16
ATOM     16  S   UNL     1       7.276   0.358  -1.204  0.00  0.00    -0.072 S 
BRANCH  16  18
ATOM     17  C   UNL     1       6.532  -0.975   1.062  0.00  0.00    +0.029 C 
ATOM     18  C   UNL     1       6.061  -0.689  -0.366  0.00  0.00    +0.137 C 
BRANCH  18  19
ATOM     19  C   UNL     1       4.731   0.018  -0.324  0.00  0.00    +0.233 C 
ATOM     20  O   UNL     1       4.680   1.222  -0.468  0.00  0.00    -0.274 OA
ATOM     21  N   UNL     1       3.599  -0.685  -0.127  0.00  0.00    -0.274 N 
ATOM     22  C   UNL     1       3.668  -2.124   0.143  0.00  0.00    +0.138 C 
BRANCH  21  23
ATOM     23  C   UNL     1       2.357  -0.043  -0.182  0.00  0.00    +0.036 A 
ATOM     24  C   UNL     1       2.027   0.914   0.769  0.00  0.00    +0.023 A 
ATOM     25  C   UNL     1       0.800   1.547   0.712  0.00  0.00    +0.002 A 
ATOM     26  C   UNL     1      -0.098   1.228  -0.289  0.00  0.00    +0.000 A 
ATOM     27  C   UNL     1       0.227   0.276  -1.237  0.00  0.00    +0.002 A 
ATOM     28  C   UNL     1       1.452  -0.361  -1.186  0.00  0.00    +0.023 A 
ENDBRANCH  21  23
ENDBRANCH  18  19
ENDBRANCH  16  18
ENDBRANCH   1  16
TORSDOF 6
