REMARK  Name = ZINC01067812
REMARK  4 active torsions:
REMARK  status: ('A' for Active; 'I' for Inactive)
REMARK    1  A    between atoms: C_1  and  C_2
REMARK    2  A    between atoms: C_2  and  C_3
REMARK    3  A    between atoms: C_2  and  C_4
REMARK    4  A    between atoms: C_2  and  C_5
REMARK                            x       y       z     vdW  Elec       q    Type
REMARK                         _______ _______ _______ _____ _____    ______ ____
ROOT
ATOM      1  C   UNL     1      -0.764   3.109   1.267  0.00  0.00    -0.005 C 
ATOM      2  C   UNL     1      -0.729   1.579   1.268  0.00  0.00    +0.007 C 
ATOM      3  C   UNL     1      -0.013   1.086   0.008  0.00  0.00    +0.043 C 
ATOM      4  C   UNL     1      -0.750   1.591  -1.228  0.00  0.00    +0.101 C 
ATOM      5  C   UNL     1      -0.810   3.115  -1.231  0.00  0.00    +0.043 C 
ATOM      6  C   UNL     1      -1.523   3.602   0.033  0.00  0.00    +0.007 C 
ATOM      7  N   UNL     1      -2.104   1.026  -1.283  0.00  0.00    -0.306 N 
ATOM      8  C   UNL     1      -2.177   0.305  -2.418  0.00  0.00    +0.154 C 
ATOM      9  S   UNL     1      -3.569  -0.552  -2.925  0.00  0.00    -0.017 S 
ATOM     10  N   UNL     1      -1.024   0.341  -3.101  0.00  0.00    -0.191 N 
ATOM     11  N   UNL     1      -0.093   1.102  -2.452  0.00  0.00    -0.209 NA
ATOM     12  C   UNL     1      -0.806  -0.308  -4.304  0.00  0.00    +0.182 A 
ATOM     13  N   UNL     1       0.277  -0.326  -5.045  0.00  0.00    -0.223 NA
ATOM     14  C   UNL     1       0.351  -1.012  -6.207  0.00  0.00    +0.080 A 
ATOM     15  C   UNL     1       1.450  -1.118  -7.090  0.00  0.00    +0.029 A 
ATOM     16  C   UNL     1       1.355  -1.856  -8.241  0.00  0.00    +0.002 A 
ATOM     17  C   UNL     1       0.186  -2.522  -8.580  0.00  0.00    +0.001 A 
ATOM     18  C   UNL     1      -0.908  -2.441  -7.739  0.00  0.00    +0.017 A 
ATOM     19  C   UNL     1      -0.822  -1.703  -6.585  0.00  0.00    +0.041 A 
ATOM     20  S   UNL     1      -1.931  -1.326  -5.249  0.00  0.00    -0.051 S 
ATOM     21  H   UNL     1      -2.809   1.149  -0.628  0.00  0.00    +0.150 HD
ATOM     22  H   UNL     1       0.727   0.558  -2.229  0.00  0.00    +0.147 HD
ENDROOT
BRANCH   1  24
ATOM     23  C   UNL     1      -2.901   3.061   2.561  0.00  0.00    +0.011 C 
ATOM     24  C   UNL     1      -1.471   3.603   2.531  0.00  0.00    -0.035 C 
ATOM     25  C   UNL     1      -0.713   3.110   3.765  0.00  0.00    +0.011 C 
ATOM     26  C   UNL     1      -1.505   5.133   2.531  0.00  0.00    +0.011 C 
ENDBRANCH   1  24
TORSDOF 1
