REMARK  Name = ZINC25560060
REMARK  7 active torsions:
REMARK  status: ('A' for Active; 'I' for Inactive)
REMARK    1  A    between atoms: C_4  and  O_7
REMARK    2  A    between atoms: O_7  and  S_8
REMARK    3  A    between atoms: S_8  and  C_11
REMARK    4  A    between atoms: C_14  and  O_17
REMARK    5  A    between atoms: O_17  and  C_18
REMARK    6  A    between atoms: C_20  and  O_35
REMARK    7  A    between atoms: C_23  and  N_24
REMARK                            x       y       z     vdW  Elec       q    Type
REMARK                         _______ _______ _______ _____ _____    ______ ____
ROOT
ATOM      1  C   UNL     1       5.422   4.785  -4.555  0.00  0.00    +0.153 A 
ATOM      2  C   UNL     1       4.110   4.397  -4.738  0.00  0.00    +0.094 A 
ATOM      3  C   UNL     1       3.203   5.246  -5.365  0.00  0.00    +0.132 A 
ATOM      4  C   UNL     1       3.619   6.499  -5.825  0.00  0.00    +0.076 A 
ATOM      5  C   UNL     1       4.962   6.900  -5.646  0.00  0.00    +0.061 A 
ATOM      6  C   UNL     1       5.861   6.040  -5.010  0.00  0.00    +0.079 A 
ATOM      7  C   UNL     1       5.409   8.217  -6.127  0.00  0.00    +0.197 C 
ATOM      8  O   UNL     1       6.564   8.562  -5.972  0.00  0.00    -0.287 OA
ATOM      9  C   UNL     1       4.450   9.119  -6.799  0.00  0.00    +0.033 A 
ATOM     10  C   UNL     1       4.864  10.366  -7.259  0.00  0.00    +0.012 A 
ATOM     11  C   UNL     1       3.960  11.203  -7.887  0.00  0.00    +0.001 A 
ATOM     12  C   UNL     1       2.645  10.810  -8.062  0.00  0.00    +0.001 A 
ATOM     13  C   UNL     1       2.217   9.574  -7.612  0.00  0.00    +0.012 A 
ATOM     14  C   UNL     1       3.114   8.719  -6.977  0.00  0.00    +0.033 A 
ATOM     15  C   UNL     1       2.667   7.396  -6.493  0.00  0.00    +0.198 C 
ATOM     16  O   UNL     1       1.510   7.051  -6.648  0.00  0.00    -0.286 OA
ENDROOT
BRANCH   6  17
ATOM     17  N   UNL     1       7.181   6.425  -4.828  0.00  0.00    -0.355 N 
ATOM     18  H   UNL     1       7.522   7.407  -5.185  0.00  0.00    +0.142 HD
ATOM     19  H   UNL     1       7.887   5.746  -4.327  0.00  0.00    +0.142 HD
ENDBRANCH   6  17
BRANCH   3  20
ATOM     20  O   UNL     1       1.915   4.855  -5.535  0.00  0.00    -0.506 OA
ATOM     21  H   UNL     1       1.198   5.526  -6.030  0.00  0.00    +0.292 HD
ENDBRANCH   3  20
BRANCH   1  22
ATOM     22  O   UNL     1       6.294   3.949  -3.938  0.00  0.00    -0.454 OA
BRANCH  22  26
ATOM     23  C   UNL     1       4.955   0.196  -2.870  0.00  0.00    +0.128 A 
ATOM     24  C   UNL     1       5.072   1.186  -1.911  0.00  0.00    +0.034 A 
ATOM     25  C   UNL     1       5.525   2.442  -2.265  0.00  0.00    +0.048 A 
ATOM     26  C   UNL     1       5.853   2.713  -3.586  0.00  0.00    +0.129 A 
ATOM     27  C   UNL     1       5.728   1.720  -4.547  0.00  0.00    +0.048 A 
ATOM     28  C   UNL     1       5.279   0.464  -4.187  0.00  0.00    +0.034 A 
BRANCH  23  29
ATOM     29  S   UNL     1       4.383  -1.407  -2.414  0.00  0.00    +0.151 S 
ATOM     30  O   UNL     1       3.837  -1.992  -3.588  0.00  0.00    -0.131 OA
ATOM     31  O   UNL     1       3.627  -1.244  -1.222  0.00  0.00    -0.131 OA
BRANCH  29  32
ATOM     32  O   UNL     1       5.607  -2.233  -2.044  0.00  0.00    -0.342 OA
BRANCH  32  36
ATOM     33  C   UNL     1       7.222  -1.284   1.631  0.00  0.00    +0.000 A 
ATOM     34  C   UNL     1       7.659  -0.627   0.495  0.00  0.00    +0.004 A 
ATOM     35  C   UNL     1       7.120  -0.944  -0.737  0.00  0.00    +0.048 A 
ATOM     36  C   UNL     1       6.139  -1.920  -0.834  0.00  0.00    +0.157 A 
ATOM     37  C   UNL     1       5.702  -2.577   0.308  0.00  0.00    +0.048 A 
ATOM     38  C   UNL     1       6.245  -2.257   1.537  0.00  0.00    +0.004 A 
ENDBRANCH  32  36
ENDBRANCH  29  32
ENDBRANCH  23  29
ENDBRANCH  22  26
ENDBRANCH   1  22
TORSDOF 7
