REMARK  Name = ZINC27318819
REMARK  13 active torsions:
REMARK  status: ('A' for Active; 'I' for Inactive)
REMARK    1  A    between atoms: C_1  and  C_2
REMARK    2  A    between atoms: C_2  and  C_3
REMARK    3  A    between atoms: C_2  and  C_4
REMARK    4  A    between atoms: C_4  and  C_6
REMARK    5  A    between atoms: C_4  and  N_39
REMARK    6  A    between atoms: N_8  and  C_9
REMARK    7  A    between atoms: C_9  and  C_10
REMARK    8  A    between atoms: C_10  and  O_38
REMARK    9  A    between atoms: C_16  and  C_20
REMARK   10  A    between atoms: C_17  and  C_18
REMARK   11  A    between atoms: C_17  and  C_19
REMARK   12  A    between atoms: C_20  and  S_21
REMARK   13  A    between atoms: S_21  and  N_24
REMARK                            x       y       z     vdW  Elec       q    Type
REMARK                         _______ _______ _______ _____ _____    ______ ____
ROOT
ATOM      1  C   UNL     1       0.623  -0.777  -1.053  0.00  0.00    +0.089 C 
ATOM      2  C   UNL     1       0.084  -2.223  -0.949  0.00  0.00    +0.041 C 
ATOM      3  C   UNL     1      -0.799  -2.223   0.336  0.00  0.00    -0.002 C 
ATOM      4  C   UNL     1       0.221  -2.097   1.510  0.00  0.00    +0.005 C 
ATOM      5  C   UNL     1       0.774  -0.637   1.404  0.00  0.00    +0.012 C 
ATOM      6  C   UNL     1       0.015  -0.041   0.180  0.00  0.00    +0.027 C 
ATOM      7  C   UNL     1      -1.374  -0.763   0.294  0.00  0.00    -0.022 C 
ATOM      8  C   UNL     1      -2.106  -0.397   1.586  0.00  0.00    +0.012 C 
ATOM      9  C   UNL     1      -2.247  -0.526  -0.940  0.00  0.00    +0.012 C 
ENDROOT
BRANCH   1  10
ATOM     10  O   UNL     1       0.182  -0.165  -2.266  0.00  0.00    -0.386 OA
ATOM     11  H   UNL     1      -0.893  -0.085  -2.483  0.00  0.00    +0.210 HD
ENDBRANCH   1  10
BRANCH   1  12
ATOM     12  C   UNL     1       2.151  -0.771  -0.978  0.00  0.00    +0.139 C 
BRANCH  12  15
ATOM     13  C   UNL     1       4.036  -1.514  -2.331  0.00  0.00    +0.199 C 
ATOM     14  O   UNL     1       4.781  -1.086  -1.476  0.00  0.00    -0.278 OA
ATOM     15  N   UNL     1       2.701  -1.406  -2.178  0.00  0.00    -0.314 N 
ATOM     16  H   UNL     1       2.025  -1.794  -2.954  0.00  0.00    +0.149 HD
BRANCH  13  17
ATOM     17  C   UNL     1       4.602  -2.166  -3.566  0.00  0.00    +0.015 C 
BRANCH  17  18
ATOM     18  N   UNL     1       6.001  -1.753  -3.741  0.00  0.00    +0.386 N 
ATOM     19  H   UNL     1       6.050  -0.660  -3.849  0.00  0.00    -0.089 HD
ATOM     20  H   UNL     1       6.414  -2.229  -4.642  0.00  0.00    -0.089 HD
ATOM     21  H   UNL     1       6.587  -2.061  -2.862  0.00  0.00    -0.089 HD
ENDBRANCH  17  18
BRANCH  17  23
ATOM     22  C   UNL     1       5.109  -4.350  -4.670  0.00  0.00    +0.006 C 
ATOM     23  C   UNL     1       4.535  -3.687  -3.416  0.00  0.00    -0.023 C 
ATOM     24  C   UNL     1       5.349  -4.116  -2.194  0.00  0.00    +0.006 C 
ENDBRANCH  17  23
ENDBRANCH  13  17
ENDBRANCH  12  15
ENDBRANCH   1  12
BRANCH   6  25
ATOM     25  C   UNL     1      -0.022   1.486   0.095  0.00  0.00    +0.195 C 
BRANCH  25  26
ATOM     26  S   UNL     1       1.645   2.114  -0.247  0.00  0.00    +0.032 S 
ATOM     27  O   UNL     1       2.549   1.675   0.759  0.00  0.00    -0.158 OA
ATOM     28  O   UNL     1       1.958   1.949  -1.623  0.00  0.00    -0.158 OA
BRANCH  26  29
ATOM     29  N   UNL     1       1.536   3.752  -0.031  0.00  0.00    -0.181 NA
ATOM     30  C   UNL     1       1.190   4.633  -1.155  0.00  0.00    +0.110 C 
ATOM     31  C   UNL     1       2.259   5.717  -1.284  0.00  0.00    +0.033 C 
ATOM     32  C   UNL     1       2.422   6.430   0.057  0.00  0.00    +0.017 C 
ATOM     33  C   UNL     1       2.858   5.440   1.135  0.00  0.00    +0.033 C 
ATOM     34  C   UNL     1       1.789   4.351   1.286  0.00  0.00    +0.110 C 
ATOM     35  C   UNL     1       1.126   7.093   0.454  0.00  0.00    -0.015 C 
ATOM     36  C   UNL     1       1.339   8.394   0.548  0.00  0.00    +0.005 C 
ATOM     37  C   UNL     1       2.743   8.724   0.237  0.00  0.00    -0.021 A 
ATOM     38  C   UNL     1       3.429   7.545  -0.065  0.00  0.00    -0.030 A 
ATOM     39  C   UNL     1       4.764   7.580  -0.390  0.00  0.00    +0.005 A 
ATOM     40  C   UNL     1       5.438   8.790  -0.420  0.00  0.00    +0.000 A 
ATOM     41  C   UNL     1       4.770   9.964  -0.124  0.00  0.00    +0.001 A 
ATOM     42  C   UNL     1       3.430   9.940   0.204  0.00  0.00    +0.008 A 
ENDBRANCH  26  29
ENDBRANCH  25  26
ENDBRANCH   6  25
TORSDOF 9
