REMARK  Name = ZINC67470063
REMARK  7 active torsions:
REMARK  status: ('A' for Active; 'I' for Inactive)
REMARK    1  A    between atoms: C_1  and  C_2
REMARK    2  A    between atoms: C_2  and  C_3
REMARK    3  A    between atoms: C_2  and  N_4
REMARK    4  A    between atoms: C_5  and  C_7
REMARK    5  A    between atoms: N_15  and  C_16
REMARK    6  A    between atoms: C_16  and  C_17
REMARK    7  A    between atoms: C_17  and  C_20
REMARK                            x       y       z     vdW  Elec       q    Type
REMARK                         _______ _______ _______ _____ _____    ______ ____
ROOT
ATOM      1  C   UNL     1      -3.036  -2.126  -0.344  0.00  0.00    +0.078 C 
ATOM      2  C   UNL     1      -3.558  -2.229   1.091  0.00  0.00    +0.032 C 
ATOM      3  C   UNL     1      -5.006  -2.727   1.069  0.00  0.00    +0.110 C 
ATOM      4  N   UNL     1      -5.062  -3.987   0.315  0.00  0.00    -0.286 N 
ATOM      5  C   UNL     1      -4.504  -4.022  -1.044  0.00  0.00    +0.110 C 
ATOM      6  C   UNL     1      -3.061  -3.510  -0.998  0.00  0.00    +0.032 C 
ATOM      7  C   UNL     1      -5.614  -5.090   0.860  0.00  0.00    +0.302 C 
ATOM      8  O   UNL     1      -5.740  -6.098   0.193  0.00  0.00    -0.253 OA
ATOM      9  N   UNL     1      -6.024  -5.074   2.143  0.00  0.00    -0.298 N 
ATOM     10  H   UNL     1      -5.998  -4.247   2.651  0.00  0.00    +0.150 HD
ENDROOT
BRANCH   1  12
ATOM     11  N   UNL     1      -1.357  -0.395   0.204  0.00  0.00    -0.313 N 
ATOM     12  C   UNL     1      -1.622  -1.604  -0.328  0.00  0.00    +0.216 C 
ATOM     13  O   UNL     1      -0.724  -2.273  -0.793  0.00  0.00    -0.276 OA
ATOM     14  H   UNL     1      -2.075   0.140   0.577  0.00  0.00    +0.149 HD
BRANCH  11  16
ATOM     15  C   UNL     1      -0.004   1.642   0.269  0.00  0.00    +0.027 C 
ATOM     16  C   UNL     1       0.018   0.113   0.220  0.00  0.00    +0.067 C 
ATOM     17  C   UNL     1       0.747  -0.427   1.452  0.00  0.00    +0.027 C 
ENDBRANCH  11  16
ENDBRANCH   1  12
BRANCH   9  18
ATOM     18  C   UNL     1      -6.511  -6.304   2.772  0.00  0.00    +0.117 C 
BRANCH  18  19
ATOM     19  C   UNL     1      -7.028  -5.989   4.177  0.00  0.00    +0.011 C 
ATOM     20  C   UNL     1      -8.466  -6.395   4.508  0.00  0.00    +0.014 C 
ATOM     21  C   UNL     1      -8.114  -4.919   4.307  0.00  0.00    +0.014 C 
BRANCH  19  22
ATOM     22  C   UNL     1      -6.006  -6.081   5.281  0.00  0.00    -0.040 A 
ATOM     23  C   UNL     1      -6.115  -5.267   6.393  0.00  0.00    +0.005 A 
ATOM     24  C   UNL     1      -5.179  -5.351   7.406  0.00  0.00    +0.020 A 
ATOM     25  C   UNL     1      -4.132  -6.250   7.307  0.00  0.00    +0.041 A 
ATOM     26  C   UNL     1      -4.024  -7.065   6.194  0.00  0.00    +0.020 A 
ATOM     27  C   UNL     1      -4.964  -6.984   5.184  0.00  0.00    +0.005 A 
ATOM     28 CL   UNL     1      -2.955  -6.356   8.579  0.00  0.00    -0.084 Cl
ENDBRANCH  19  22
ENDBRANCH  18  19
ENDBRANCH   9  18
TORSDOF 5
