REMARK  Name = ZINC04730016
REMARK  8 active torsions:
REMARK  status: ('A' for Active; 'I' for Inactive)
REMARK    1  A    between atoms: C_1  and  C_2
REMARK    2  A    between atoms: C_2  and  O_3
REMARK    3  A    between atoms: O_3  and  C_4
REMARK    4  A    between atoms: C_8  and  C_11
REMARK    5  A    between atoms: C_9  and  O_10
REMARK    6  A    between atoms: C_14  and  C_25
REMARK    7  A    between atoms: C_16  and  C_18
REMARK    8  A    between atoms: C_28  and  C_31
REMARK                            x       y       z     vdW  Elec       q    Type
REMARK                         _______ _______ _______ _____ _____    ______ ____
ROOT
ATOM      1  C   UNL     1      -4.946   0.857  -0.361  0.00  0.00    -0.028 C 
ATOM      2  C   UNL     1      -3.790   1.783   0.030  0.00  0.00    +0.044 C 
ATOM      3  C   UNL     1      -2.502   1.009   0.019  0.00  0.00    +0.040 C 
ATOM      4  N   UNL     1      -2.455  -0.270   0.007  0.00  0.00    -0.299 NA
ATOM      5  C   UNL     1      -3.630  -1.132   0.002  0.00  0.00    +0.081 C 
ATOM      6  N   UNL     1      -4.826  -0.388   0.424  0.00  0.00    +0.401 N 
ATOM      7  H   UNL     1      -5.660  -0.968   0.271  0.00  0.00    -0.081 HD
ATOM      8  H   UNL     1      -4.749  -0.155   1.421  0.00  0.00    -0.081 HD
ENDROOT
BRANCH   5   9
ATOM      9  C   UNL     1      -3.408  -2.285   0.947  0.00  0.00    -0.038 A 
ATOM     10  C   UNL     1      -4.486  -2.878   1.577  0.00  0.00    +0.004 A 
ATOM     11  C   UNL     1      -4.285  -3.939   2.441  0.00  0.00    +0.003 A 
ATOM     12  C   UNL     1      -3.005  -4.400   2.683  0.00  0.00    +0.038 A 
ATOM     13  C   UNL     1      -1.924  -3.803   2.056  0.00  0.00    +0.124 A 
ATOM     14  C   UNL     1      -2.128  -2.744   1.187  0.00  0.00    +0.042 A 
ATOM     15  F   UNL     1      -0.672  -4.253   2.292  0.00  0.00    -0.205 F 
ENDBRANCH   5   9
BRANCH   3  16
ATOM     16  C   UNL     1      -1.230   1.759   0.017  0.00  0.00    -0.004 A 
ATOM     17  C   UNL     1      -0.013   1.076   0.008  0.00  0.00    +0.010 A 
ATOM     18  C   UNL     1       1.172   1.783   0.000  0.00  0.00    +0.004 A 
ATOM     19  C   UNL     1       1.155   3.167   0.008  0.00  0.00    -0.050 A 
ATOM     20  C   UNL     1      -0.048   3.850   0.022  0.00  0.00    +0.004 A 
ATOM     21  C   UNL     1      -1.240   3.155   0.030  0.00  0.00    +0.010 A 
ATOM     22  C   UNL     1       2.452   3.933  -0.001  0.00  0.00    +0.044 C 
ENDBRANCH   3  16
BRANCH   1  27
ATOM     23  C   UNL     1      -8.042   3.011  -0.678  0.00  0.00    +0.162 A 
ATOM     24  C   UNL     1      -8.678   2.751   0.525  0.00  0.00    +0.049 A 
ATOM     25  C   UNL     1      -8.107   1.881   1.435  0.00  0.00    +0.004 A 
ATOM     26  C   UNL     1      -6.903   1.266   1.145  0.00  0.00    +0.006 A 
ATOM     27  C   UNL     1      -6.261   1.525  -0.051  0.00  0.00    -0.016 A 
ATOM     28  C   UNL     1      -6.828   2.396  -0.967  0.00  0.00    +0.160 A 
BRANCH  28  29
ATOM     29  O   UNL     1      -6.200   2.649  -2.147  0.00  0.00    -0.503 OA
ATOM     30  H   UNL     1      -6.449   2.047  -2.862  0.00  0.00    +0.292 HD
ENDBRANCH  28  29
BRANCH  23  31
ATOM     31  O   UNL     1      -8.603   3.866  -1.575  0.00  0.00    -0.489 OA
BRANCH  31  33
ATOM     32  C   UNL     1     -10.322   5.385  -2.335  0.00  0.00    +0.048 C 
ATOM     33  C   UNL     1      -9.851   4.461  -1.210  0.00  0.00    +0.226 C 
ENDBRANCH  31  33
ENDBRANCH  23  31
ENDBRANCH   1  27
TORSDOF 6
