REMARK  Name = ZINC43707342
REMARK  5 active torsions:
REMARK  status: ('A' for Active; 'I' for Inactive)
REMARK    1  A    between atoms: C_1  and  C_2
REMARK    2  A    between atoms: C_13  and  O_15
REMARK    3  A    between atoms: O_15  and  C_16
REMARK    4  A    between atoms: C_16  and  C_18
REMARK    5  A    between atoms: C_31  and  O_34
REMARK                            x       y       z     vdW  Elec       q    Type
REMARK                         _______ _______ _______ _____ _____    ______ ____
ROOT
ATOM      1  C   UNL     1      -0.019   1.529   0.010  0.00  0.00    +0.015 C 
ATOM      2  C   UNL     1       0.002  -0.004   0.002  0.00  0.00    +0.008 C 
ATOM      3  C   UNL     1       0.549  -0.564  -1.309  0.00  0.00    +0.011 C 
ATOM      4  C   UNL     1       2.075  -0.454  -1.380  0.00  0.00    +0.005 C 
ATOM      5  C   UNL     1       2.642  -1.266  -0.209  0.00  0.00    +0.002 C 
ATOM      6  C   UNL     1       2.248  -0.540   1.067  0.00  0.00    -0.001 C 
ATOM      7  C   UNL     1       0.734  -0.581   1.226  0.00  0.00    +0.002 C 
ATOM      8  C   UNL     1       0.180  -1.995   1.417  0.00  0.00    +0.008 C 
ATOM      9  C   UNL     1      -1.181  -2.029   0.692  0.00  0.00    +0.045 C 
ATOM     10  C   UNL     1      -1.430  -0.595   0.176  0.00  0.00    +0.183 C 
ATOM     11  C   UNL     1       2.939  -1.105   2.296  0.00  0.00    +0.037 C 
ATOM     12  C   UNL     1       4.290  -1.733   1.975  0.00  0.00    +0.136 C 
ATOM     13  C   UNL     1       4.983  -1.025   0.803  0.00  0.00    +0.063 C 
ATOM     14  C   UNL     1       4.111  -1.582  -0.349  0.00  0.00    +0.015 C 
ATOM     15  C   UNL     1       4.724  -1.193  -1.665  0.00  0.00    +0.013 C 
ATOM     16  C   UNL     1       4.884   0.325  -1.764  0.00  0.00    +0.032 C 
ATOM     17  C   UNL     1       5.577   0.948  -0.563  0.00  0.00    +0.116 C 
ATOM     18  C   UNL     1       4.985   0.480   0.775  0.00  0.00    +0.052 C 
ATOM     19  C   UNL     1       4.245  -3.082   0.025  0.00  0.00    +0.168 C 
ATOM     20  O   UNL     1       4.073  -3.077   1.463  0.00  0.00    -0.375 OA
ATOM     21 BR   UNL     1       6.835  -1.708   0.655  0.00  0.00    -0.081 Br
ENDROOT
BRANCH  17  22
ATOM     22  O   UNL     1       6.974   0.662  -0.611  0.00  0.00    -0.392 OA
ATOM     23  H   UNL     1       7.418   1.000  -1.401  0.00  0.00    +0.210 HD
ENDBRANCH  17  22
BRANCH  10  24
ATOM     24  O   UNL     1      -2.118  -0.624  -1.077  0.00  0.00    -0.457 OA
BRANCH  24  25
ATOM     25  C   UNL     1      -3.459  -0.499  -1.040  0.00  0.00    +0.339 C 
ATOM     26  O   UNL     1      -4.028  -0.369   0.025  0.00  0.00    -0.245 OA
BRANCH  25  27
ATOM     27  C   UNL     1      -4.237  -0.520  -2.296  0.00  0.00    +0.059 A 
ATOM     28  C   UNL     1      -3.586  -0.675  -3.522  0.00  0.00    +0.015 A 
ATOM     29  C   UNL     1      -4.318  -0.694  -4.691  0.00  0.00    +0.001 A 
ATOM     30  C   UNL     1      -5.695  -0.559  -4.650  0.00  0.00    +0.000 A 
ATOM     31  C   UNL     1      -6.346  -0.405  -3.439  0.00  0.00    +0.001 A 
ATOM     32  C   UNL     1      -5.627  -0.391  -2.263  0.00  0.00    +0.015 A 
ENDBRANCH  25  27
ENDBRANCH  24  25
ENDBRANCH  10  24
TORSDOF 4
