REMARK  Name = ZINC49075441
REMARK  4 active torsions:
REMARK  status: ('A' for Active; 'I' for Inactive)
REMARK    1  A    between atoms: N_4  and  C_6
REMARK    2  A    between atoms: C_6  and  C_7
REMARK    3  A    between atoms: C_7  and  N_8
REMARK    4  A    between atoms: N_8  and  C_9
REMARK                            x       y       z     vdW  Elec       q    Type
REMARK                         _______ _______ _______ _____ _____    ______ ____
ROOT
ATOM      1  C   UNL     1       4.089  -3.572  -2.373  0.00  0.00    -0.037 C 
ATOM      2  C   UNL     1       4.497  -5.043  -2.457  0.00  0.00    -0.008 C 
ATOM      3  C   UNL     1       4.667  -5.638  -1.068  0.00  0.00    +0.040 C 
ATOM      4  C   UNL     1       5.845  -5.067  -0.307  0.00  0.00    +0.229 C 
ATOM      5  O   UNL     1       5.646  -3.677  -0.028  0.00  0.00    -0.492 OA
ATOM      6  C   UNL     1       6.042  -2.818  -1.006  0.00  0.00    +0.123 A 
ATOM      7  C   UNL     1       5.335  -2.727  -2.191  0.00  0.00    -0.020 A 
ATOM      8  C   UNL     1       5.751  -1.881  -3.199  0.00  0.00    +0.006 A 
ATOM      9  C   UNL     1       6.877  -1.099  -3.014  0.00  0.00    +0.016 A 
ATOM     10  C   UNL     1       7.579  -1.165  -1.824  0.00  0.00    +0.021 A 
ATOM     11  C   UNL     1       7.168  -2.029  -0.815  0.00  0.00    +0.061 A 
ATOM     12 BR   UNL     1       9.109  -0.083  -1.570  0.00  0.00    -0.050 Br
ENDROOT
BRANCH   1  13
ATOM     13  N   UNL     1       3.189  -3.376  -1.229  0.00  0.00    +0.385 N 
ATOM     14  H   UNL     1       3.687  -3.567  -0.373  0.00  0.00    -0.085 HD
ATOM     15  H   UNL     1       2.402  -4.003  -1.308  0.00  0.00    -0.085 HD
BRANCH  13  16
ATOM     16  C   UNL     1       2.709  -1.987  -1.217  0.00  0.00    -0.058 C 
BRANCH  16  17
ATOM     17  C   UNL     1       1.771  -1.782  -0.025  0.00  0.00    +0.124 C 
BRANCH  17  21
ATOM     18  C   UNL     1      -0.016   1.349   0.009  0.00  0.00    +0.041 A 
ATOM     19  C   UNL     1       1.308   1.797  -0.001  0.00  0.00    +0.134 A 
ATOM     20  N   UNL     1       2.094   0.751  -0.014  0.00  0.00    -0.180 NA
ATOM     21  N   UNL     1       1.293  -0.398  -0.012  0.00  0.00    -0.273 N 
ATOM     22  C   UNL     1       0.002  -0.004   0.002  0.00  0.00    +0.108 A 
ENDBRANCH  17  21
ENDBRANCH  16  17
ENDBRANCH  13  16
ENDBRANCH   1  13
TORSDOF 4
