REMARK  Name = ZINC39711421
REMARK  13 active torsions:
REMARK  status: ('A' for Active; 'I' for Inactive)
REMARK    1  A    between atoms: C_1  and  C_2
REMARK    2  A    between atoms: C_2  and  O_3
REMARK    3  A    between atoms: O_3  and  C_4
REMARK    4  A    between atoms: C_11  and  C_16
REMARK    5  A    between atoms: C_16  and  C_18
REMARK    6  A    between atoms: C_16  and  N_28
REMARK    7  A    between atoms: N_23  and  C_24
REMARK    8  A    between atoms: C_24  and  C_25
REMARK    9  A    between atoms: C_24  and  C_26
REMARK   10  A    between atoms: C_24  and  C_27
REMARK   11  A    between atoms: N_31  and  C_34
REMARK   12  A    between atoms: C_38  and  C_41
REMARK   13  A    between atoms: C_39  and  C_40
REMARK                            x       y       z     vdW  Elec       q    Type
REMARK                         _______ _______ _______ _____ _____    ______ ____
ROOT
ATOM      1  C   UNL     1       1.600  -6.280   4.993  0.00  0.00    -0.009 C 
ENDROOT
BRANCH   1   9
ATOM      2  C   UNL     1       1.328  -1.760   1.308  0.00  0.00    +0.121 A 
ATOM      3  C   UNL     1       0.982  -2.594   0.238  0.00  0.00    +0.047 A 
ATOM      4  C   UNL     1       1.079  -3.946   0.303  0.00  0.00    +0.027 A 
ATOM      5  C   UNL     1       1.541  -4.575   1.475  0.00  0.00    +0.041 A 
ATOM      6  N   UNL     1       1.631  -5.904   1.525  0.00  0.00    -0.285 N 
ATOM      7  C   UNL     1       2.056  -6.559   2.592  0.00  0.00    +0.223 C 
ATOM      8  O   UNL     1       2.117  -7.774   2.579  0.00  0.00    -0.275 OA
ATOM      9  C   UNL     1       2.466  -5.793   3.830  0.00  0.00    +0.088 C 
ATOM     10  C   UNL     1       2.365  -4.281   3.778  0.00  0.00    -0.006 C 
ATOM     11  C   UNL     1       1.913  -3.724   2.619  0.00  0.00    -0.004 A 
ATOM     12  C   UNL     1       1.791  -2.272   2.482  0.00  0.00    +0.055 A 
ATOM     13  H   UNL     1       1.373  -6.415   0.742  0.00  0.00    +0.155 HD
BRANCH   2  14
ATOM     14  O   UNL     1       1.205  -0.413   1.170  0.00  0.00    -0.492 OA
BRANCH  14  16
ATOM     15  C   UNL     1       0.645   1.597  -0.049  0.00  0.00    +0.048 C 
ATOM     16  C   UNL     1       0.715   0.069  -0.082  0.00  0.00    +0.225 C 
ENDBRANCH  14  16
ENDBRANCH   2  14
ENDBRANCH   1   9
BRANCH   1  17
ATOM     17  N   UNL     1       1.806  -7.722   5.186  0.00  0.00    +0.387 N 
ATOM     18  C   UNL     1       1.064  -8.166   6.373  0.00  0.00    -0.059 C 
ATOM     19  C   UNL     1       1.185  -9.687   6.510  0.00  0.00    +0.086 C 
ATOM     20  N   UNL     1       2.612 -10.043   6.518  0.00  0.00    -0.333 N 
ATOM     21  C   UNL     1       3.468  -9.503   5.450  0.00  0.00    +0.086 C 
ATOM     22  C   UNL     1       3.239  -7.990   5.363  0.00  0.00    -0.059 C 
ATOM     23  H   UNL     1       1.469  -8.220   4.376  0.00  0.00    -0.081 HD
BRANCH  20  24
ATOM     24  C   UNL     1       3.141 -10.870   7.512  0.00  0.00    +0.033 A 
ATOM     25  C   UNL     1       3.173 -12.247   7.327  0.00  0.00    +0.023 A 
ATOM     26  C   UNL     1       3.697 -13.062   8.311  0.00  0.00    +0.002 A 
ATOM     27  C   UNL     1       4.188 -12.509   9.480  0.00  0.00    +0.004 A 
ATOM     28  C   UNL     1       4.157 -11.139   9.667  0.00  0.00    -0.046 A 
ATOM     29  C   UNL     1       3.640 -10.318   8.684  0.00  0.00    -0.027 A 
ATOM     30  C   UNL     1       3.613  -8.825   8.886  0.00  0.00    +0.046 C 
ATOM     31  C   UNL     1       4.693 -10.542  10.943  0.00  0.00    +0.044 C 
ENDBRANCH  20  24
ENDBRANCH   1  17
BRANCH   1  32
ATOM     32  C   UNL     1       0.126  -6.014   4.678  0.00  0.00    +0.205 C 
ATOM     33  N   UNL     1      -0.254  -6.662   3.415  0.00  0.00    -0.152 NA
ATOM     34  N   UNL     1      -0.617  -5.797   2.616  0.00  0.00    -0.070 NA
ATOM     35  N   UNL     1      -0.555  -4.509   3.147  0.00  0.00    -0.179 N 
ATOM     36  N   UNL     1      -0.098  -4.573   4.439  0.00  0.00    -0.183 NA
ATOM     37  H   UNL     1      -0.798  -3.696   2.676  0.00  0.00    +0.191 HD
BRANCH  36  38
ATOM     38  C   UNL     1      -1.089  -4.031   5.379  0.00  0.00    +0.035 C 
ATOM     39  C   UNL     1      -0.589  -4.220   6.812  0.00  0.00    +0.029 C 
ATOM     40  C   UNL     1      -1.294  -2.541   5.101  0.00  0.00    +0.029 C 
ATOM     41  C   UNL     1      -2.417  -4.770   5.200  0.00  0.00    +0.029 C 
ENDBRANCH  36  38
ENDBRANCH   1  32
TORSDOF 7
