REMARK  Name = ZINC09092430
REMARK  8 active torsions:
REMARK  status: ('A' for Active; 'I' for Inactive)
REMARK    1  A    between atoms: C_1  and  C_2
REMARK    2  A    between atoms: C_7  and  N_12
REMARK    3  A    between atoms: C_9  and  C_11
REMARK    4  A    between atoms: C_13  and  C_15
REMARK    5  A    between atoms: C_15  and  S_16
REMARK    6  A    between atoms: S_16  and  C_17
REMARK    7  A    between atoms: C_20  and  C_23
REMARK    8  A    between atoms: N_21  and  N_22
REMARK                            x       y       z     vdW  Elec       q    Type
REMARK                         _______ _______ _______ _____ _____    ______ ____
ROOT
ATOM      1  C   UNL     1       1.250   8.066  -2.547  0.00  0.00    +0.209 A 
ATOM      2  N   UNL     1       1.330   8.667  -1.381  0.00  0.00    -0.121 NA
ATOM      3  N   UNL     1       1.092   9.923  -1.515  0.00  0.00    -0.127 NA
ATOM      4  C   UNL     1       0.837  10.199  -2.772  0.00  0.00    +0.183 A 
ATOM      5  N   UNL     1       0.931   9.018  -3.472  0.00  0.00    -0.224 N 
ENDROOT
BRANCH   4   6
ATOM      6  C   UNL     1       0.512  11.528  -3.331  0.00  0.00    +0.035 A 
ATOM      7  C   UNL     1      -0.570  11.677  -4.201  0.00  0.00    +0.013 A 
ATOM      8  C   UNL     1      -0.869  12.920  -4.719  0.00  0.00    +0.001 A 
ATOM      9  C   UNL     1      -0.099  14.019  -4.378  0.00  0.00    +0.001 A 
ATOM     10  C   UNL     1       0.975  13.879  -3.518  0.00  0.00    +0.016 A 
ATOM     11  C   UNL     1       1.282  12.641  -2.988  0.00  0.00    +0.029 A 
ATOM     12 BR   UNL     1       2.745  12.453  -1.804  0.00  0.00    -0.050 Br
ENDBRANCH   4   6
BRANCH   5  13
ATOM     13  N   UNL     1       0.742   8.836  -4.813  0.00  0.00    -0.295 N 
ATOM     14  H   UNL     1      -0.236   8.711  -5.027  0.00  0.00    +0.163 HD
ATOM     15  H   UNL     1       1.133   9.603  -5.340  0.00  0.00    +0.163 HD
ENDBRANCH   5  13
BRANCH   1  16
ATOM     16  S   UNL     1       1.502   6.350  -2.858  0.00  0.00    -0.075 S 
BRANCH  16  17
ATOM     17  C   UNL     1       1.878   5.779  -1.182  0.00  0.00    +0.173 C 
BRANCH  17  19
ATOM     18  N   UNL     1       2.438   3.646  -0.060  0.00  0.00    -0.312 N 
ATOM     19  C   UNL     1       2.136   4.294  -1.203  0.00  0.00    +0.224 C 
ATOM     20  O   UNL     1       2.072   3.682  -2.248  0.00  0.00    -0.275 OA
ATOM     21  H   UNL     1       2.488   4.135   0.776  0.00  0.00    +0.149 HD
BRANCH  18  27
ATOM     22  C   UNL     1       4.543  -0.061  -0.222  0.00  0.00    +0.008 C 
ATOM     23  C   UNL     1       3.839   0.316   1.084  0.00  0.00    -0.009 C 
ATOM     24  C   UNL     1       2.510  -0.435   1.182  0.00  0.00    +0.003 C 
ATOM     25  C   UNL     1       1.621  -0.055  -0.004  0.00  0.00    +0.002 C 
ATOM     26  C   UNL     1       1.359   1.453   0.017  0.00  0.00    +0.022 C 
ATOM     27  C   UNL     1       2.689   2.203  -0.081  0.00  0.00    +0.076 C 
ATOM     28  C   UNL     1       3.577   1.823   1.105  0.00  0.00    +0.009 C 
ATOM     29  C   UNL     1       4.907   2.573   1.007  0.00  0.00    +0.009 C 
ENDBRANCH  18  27
ENDBRANCH  17  19
ENDBRANCH  16  17
ENDBRANCH   1  16
TORSDOF 6
