REMARK  Name = ZINC01354428
REMARK  7 active torsions:
REMARK  status: ('A' for Active; 'I' for Inactive)
REMARK    1  A    between atoms: C_1  and  C_2
REMARK    2  A    between atoms: C_4  and  C_25
REMARK    3  A    between atoms: C_7  and  C_23
REMARK    4  A    between atoms: C_8  and  S_12
REMARK    5  A    between atoms: S_12  and  C_13
REMARK    6  A    between atoms: C_13  and  C_14
REMARK    7  A    between atoms: C_19  and  C_22
REMARK                            x       y       z     vdW  Elec       q    Type
REMARK                         _______ _______ _______ _____ _____    ______ ____
ROOT
ATOM      1  C   UNL     1      -0.018   1.503   0.010  0.00  0.00    +0.044 C 
ATOM      2  C   UNL     1       0.002  -0.004   0.002  0.00  0.00    -0.048 A 
ATOM      3  C   UNL     1       0.005  -0.683  -1.214  0.00  0.00    +0.007 A 
ATOM      4  C   UNL     1       0.023  -2.044  -1.254  0.00  0.00    -0.041 A 
ATOM      5  C   UNL     1       0.039  -2.774  -0.054  0.00  0.00    +0.005 A 
ATOM      6  C   UNL     1       0.058  -4.181  -0.060  0.00  0.00    +0.031 A 
ATOM      7  C   UNL     1       0.073  -4.840   1.161  0.00  0.00    +0.084 A 
ATOM      8  C   UNL     1       0.069  -4.083   2.359  0.00  0.00    +0.115 A 
ATOM      9  N   UNL     1       0.051  -2.768   2.336  0.00  0.00    -0.239 NA
ATOM     10  C   UNL     1       0.036  -2.086   1.185  0.00  0.00    +0.073 A 
ATOM     11  C   UNL     1       0.022  -0.680   1.184  0.00  0.00    +0.031 A 
ATOM     12  C   UNL     1       0.026  -2.763  -2.579  0.00  0.00    +0.044 C 
ENDROOT
BRANCH   7  13
ATOM     13  C   UNL     1       0.093  -6.271   1.210  0.00  0.00    +0.102 C 
ATOM     14  N   UNL     1       0.108  -7.406   1.249  0.00  0.00    -0.191 NA
ENDBRANCH   7  13
BRANCH   8  15
ATOM     15  S   UNL     1       0.088  -4.921   3.909  0.00  0.00    -0.095 S 
BRANCH  15  16
ATOM     16  C   UNL     1       0.076  -3.580   5.131  0.00  0.00    +0.172 C 
BRANCH  16  17
ATOM     17  C   UNL     1       0.091  -4.167   6.520  0.00  0.00    +0.229 C 
ATOM     18  O   UNL     1       0.108  -5.370   6.670  0.00  0.00    -0.275 OA
ATOM     19  N   UNL     1       0.086  -3.354   7.595  0.00  0.00    -0.267 N 
ATOM     20  C   UNL     1       0.100  -3.896   8.880  0.00  0.00    +0.168 A 
ATOM     21  C   UNL     1       0.126  -5.272   9.201  0.00  0.00    +0.091 A 
ATOM     22  C   UNL     1       0.132  -5.387  10.541  0.00  0.00    +0.136 A 
ATOM     23  O   UNL     1       0.111  -4.153  11.068  0.00  0.00    -0.358 OA
ATOM     24  N   UNL     1       0.097  -3.222  10.001  0.00  0.00    -0.063 NA
ATOM     25  C   UNL     1       0.158  -6.679  11.317  0.00  0.00    +0.089 C 
ATOM     26  H   UNL     1       0.072  -2.391   7.475  0.00  0.00    +0.156 HD
ENDBRANCH  16  17
ENDBRANCH  15  16
ENDBRANCH   8  15
TORSDOF 4
