REMARK  Name = ZINC35264275
REMARK  15 active torsions:
REMARK  status: ('A' for Active; 'I' for Inactive)
REMARK    1  A    between atoms: C_1  and  C_2
REMARK    2  A    between atoms: C_2  and  O_3
REMARK    3  A    between atoms: O_3  and  C_4
REMARK    4  A    between atoms: C_7  and  C_10
REMARK    5  A    between atoms: C_12  and  C_32
REMARK    6  A    between atoms: C_13  and  C_31
REMARK    7  A    between atoms: C_20  and  C_21
REMARK    8  A    between atoms: C_24  and  O_29
REMARK    9  A    between atoms: C_25  and  O_27
REMARK   10  A    between atoms: O_27  and  C_28
REMARK   11  A    between atoms: C_32  and  O_34
REMARK   12  A    between atoms: O_34  and  C_35
REMARK   13  A    between atoms: C_35  and  C_36
REMARK   14  A    between atoms: C_36  and  O_37
REMARK   15  A    between atoms: O_37  and  C_38
REMARK                            x       y       z     vdW  Elec       q    Type
REMARK                         _______ _______ _______ _____ _____    ______ ____
ROOT
ATOM      1  C   UNL     1      -2.650  -5.849   0.088  0.00  0.00    +0.162 C 
ATOM      2  C   UNL     1      -3.027  -6.386   1.449  0.00  0.00    +0.085 C 
ATOM      3  C   UNL     1      -4.076  -7.259   1.529  0.00  0.00    +0.053 C 
ATOM      4  N   UNL     1      -4.738  -7.619   0.437  0.00  0.00    -0.228 NA
ATOM      5  C   UNL     1      -4.470  -7.197  -0.773  0.00  0.00    +0.178 A 
ATOM      6  N   UNL     1      -3.458  -6.316  -1.074  0.00  0.00    -0.275 N 
ATOM      7  C   UNL     1      -3.280  -5.956  -2.352  0.00  0.00    +0.268 A 
ATOM      8  O   UNL     1      -2.396  -5.180  -2.667  0.00  0.00    -0.266 OA
ATOM      9  C   UNL     1      -4.181  -6.527  -3.362  0.00  0.00    +0.081 A 
ATOM     10  C   UNL     1      -4.210  -6.326  -4.705  0.00  0.00    +0.028 C 
ATOM     11  S   UNL     1      -5.227  -7.556  -2.346  0.00  0.00    -0.046 S 
ATOM     12  C   UNL     1      -4.484  -7.817   2.868  0.00  0.00    +0.066 C 
ENDROOT
BRANCH   1  16
ATOM     13  C   UNL     1      -2.907  -1.586   0.238  0.00  0.00    +0.121 A 
ATOM     14  C   UNL     1      -1.685  -2.216   0.427  0.00  0.00    +0.046 A 
ATOM     15  C   UNL     1      -1.605  -3.594   0.378  0.00  0.00    +0.009 A 
ATOM     16  C   UNL     1      -2.741  -4.346   0.141  0.00  0.00    -0.020 A 
ATOM     17  C   UNL     1      -3.960  -3.721  -0.048  0.00  0.00    +0.009 A 
ATOM     18  C   UNL     1      -4.046  -2.343   0.006  0.00  0.00    +0.046 A 
BRANCH  13  19
ATOM     19  O   UNL     1      -2.989  -0.231   0.286  0.00  0.00    -0.492 OA
BRANCH  19  21
ATOM     20  C   UNL     1      -2.064   1.987   0.548  0.00  0.00    +0.048 C 
ATOM     21  C   UNL     1      -1.776   0.484   0.529  0.00  0.00    +0.225 C 
ENDBRANCH  19  21
ENDBRANCH  13  19
ENDBRANCH   1  16
BRANCH  10  22
ATOM     22  C   UNL     1      -5.302  -6.891  -5.508  0.00  0.00    -0.020 A 
ATOM     23  C   UNL     1      -6.513  -7.242  -4.899  0.00  0.00    +0.012 A 
ATOM     24  C   UNL     1      -7.536  -7.771  -5.655  0.00  0.00    +0.050 A 
ATOM     25  C   UNL     1      -7.370  -7.957  -7.021  0.00  0.00    +0.158 A 
ATOM     26  C   UNL     1      -6.167  -7.610  -7.635  0.00  0.00    +0.162 A 
ATOM     27  C   UNL     1      -5.138  -7.074  -6.886  0.00  0.00    +0.057 A 
BRANCH  26  28
ATOM     28  O   UNL     1      -6.009  -7.795  -8.973  0.00  0.00    -0.491 OA
ATOM     29  C   UNL     1      -4.751  -7.418  -9.536  0.00  0.00    +0.277 C 
ENDBRANCH  26  28
BRANCH  25  30
ATOM     30  O   UNL     1      -8.382  -8.480  -7.761  0.00  0.00    -0.503 OA
ATOM     31  H   UNL     1      -8.986  -7.818  -8.124  0.00  0.00    +0.292 HD
ENDBRANCH  25  30
ENDBRANCH  10  22
BRANCH   2  32
ATOM     32  C   UNL     1      -2.320  -6.000   2.599  0.00  0.00    +0.339 C 
ATOM     33  O   UNL     1      -2.719  -6.334   3.701  0.00  0.00    -0.245 OA
BRANCH  32  34
ATOM     34  O   UNL     1      -1.197  -5.258   2.484  0.00  0.00    -0.459 OA
BRANCH  34  35
ATOM     35  C   UNL     1      -0.529  -4.901   3.696  0.00  0.00    +0.260 C 
BRANCH  35  36
ATOM     36  C   UNL     1       0.712  -4.067   3.367  0.00  0.00    +0.200 C 
BRANCH  36  37
ATOM     37  O   UNL     1       0.311  -2.829   2.777  0.00  0.00    -0.380 OA
ATOM     38  C   UNL     1       1.400  -1.971   2.431  0.00  0.00    +0.194 C 
ENDBRANCH  36  37
ENDBRANCH  35  36
ENDBRANCH  34  35
ENDBRANCH  32  34
ENDBRANCH   2  32
TORSDOF 11
