REMARK  Name = ZINC24831547
REMARK  6 active torsions:
REMARK  status: ('A' for Active; 'I' for Inactive)
REMARK    1  A    between atoms: C_1  and  C_2
REMARK    2  A    between atoms: C_2  and  C_4
REMARK    3  A    between atoms: C_2  and  N_11
REMARK    4  A    between atoms: N_11  and  C_12
REMARK    5  A    between atoms: C_12  and  C_13
REMARK    6  A    between atoms: C_26  and  C_28
REMARK                            x       y       z     vdW  Elec       q    Type
REMARK                         _______ _______ _______ _____ _____    ______ ____
ROOT
ATOM      1  C   UNL     1       0.002  -0.004   0.002  0.00  0.00    +0.203 C 
ATOM      2  O   UNL     1       1.061  -0.596  -0.011  0.00  0.00    -0.277 OA
ATOM      3  N   UNL     1      -0.016   1.344   0.009  0.00  0.00    -0.259 N 
ATOM      4  C   UNL     1      -1.231   2.042   0.019  0.00  0.00    +0.058 A 
ATOM      5  C   UNL     1      -2.008   2.078   1.171  0.00  0.00    +0.025 A 
ATOM      6  C   UNL     1      -3.188   2.799   1.180  0.00  0.00    +0.002 A 
ATOM      7  C   UNL     1      -3.594   3.485   0.049  0.00  0.00    +0.002 A 
ATOM      8  C   UNL     1      -2.831   3.442  -1.103  0.00  0.00    +0.025 A 
ATOM      9  C   UNL     1      -1.655   2.711  -1.123  0.00  0.00    +0.055 A 
ATOM     10  N   UNL     1      -0.880   2.625  -2.286  0.00  0.00    -0.284 N 
ATOM     11  C   UNL     1       0.452   2.850  -2.242  0.00  0.00    +0.219 C 
ATOM     12  O   UNL     1       1.121   2.696  -3.242  0.00  0.00    -0.275 OA
ATOM     13  C   UNL     1       1.111   3.290  -0.962  0.00  0.00    +0.128 C 
ATOM     14  C   UNL     1       1.232   2.107   0.002  0.00  0.00    +0.194 C 
ATOM     15  H   UNL     1      -1.355   2.373  -3.246  0.00  0.00    +0.155 HD
ENDROOT
BRANCH  14  16
ATOM     16  C   UNL     1       1.518   2.629   1.411  0.00  0.00    +0.409 C 
ATOM     17  F   UNL     1       1.636   1.550   2.293  0.00  0.00    -0.169 F 
ATOM     18  F   UNL     1       2.711   3.360   1.405  0.00  0.00    -0.169 F 
ATOM     19  F   UNL     1       0.467   3.455   1.824  0.00  0.00    -0.169 F 
ENDBRANCH  14  16
BRANCH   1  20
ATOM     20  C   UNL     1      -1.293  -0.775   0.010  0.00  0.00    +0.016 C 
BRANCH  20  21
ATOM     21  N   UNL     1      -1.005  -2.216  -0.000  0.00  0.00    +0.389 N 
ATOM     22  H   UNL     1      -0.409  -2.463   0.891  0.00  0.00    -0.084 HD
ATOM     23  H   UNL     1      -0.426  -2.453  -0.905  0.00  0.00    -0.084 HD
BRANCH  21  25
ATOM     24  C   UNL     1      -2.758  -3.159  -1.426  0.00  0.00    -0.009 C 
ATOM     25  C   UNL     1      -2.246  -3.001   0.007  0.00  0.00    -0.043 C 
BRANCH  25  26
ATOM     26  C   UNL     1      -1.977  -4.361   0.598  0.00  0.00    -0.062 A 
ATOM     27  C   UNL     1      -0.809  -5.031   0.286  0.00  0.00    +0.003 A 
ATOM     28  C   UNL     1      -0.558  -6.276   0.832  0.00  0.00    +0.020 A 
ATOM     29  C   UNL     1      -1.483  -6.856   1.682  0.00  0.00    +0.041 A 
ATOM     30  C   UNL     1      -2.654  -6.188   1.989  0.00  0.00    +0.020 A 
ATOM     31  C   UNL     1      -2.901  -4.941   1.447  0.00  0.00    +0.003 A 
ATOM     32 CL   UNL     1      -1.173  -8.423   2.362  0.00  0.00    -0.084 Cl
ENDBRANCH  25  26
ENDBRANCH  21  25
ENDBRANCH  20  21
ENDBRANCH   1  20
TORSDOF 5
