REMARK  Name = ZINC12010555
REMARK  4 active torsions:
REMARK  status: ('A' for Active; 'I' for Inactive)
REMARK    1  A    between atoms: C_3  and  C_6
REMARK    2  A    between atoms: C_8  and  N_23
REMARK    3  A    between atoms: C_24  and  C_26
REMARK    4  A    between atoms: C_26  and  C_27
REMARK                            x       y       z     vdW  Elec       q    Type
REMARK                         _______ _______ _______ _____ _____    ______ ____
ROOT
ATOM      1  C   UNL     1      -8.435   0.712   1.581  0.00  0.00    +0.130 A 
ATOM      2  C   UNL     1      -8.321   0.397   0.210  0.00  0.00    +0.077 A 
ATOM      3  C   UNL     1      -7.006   0.455  -0.121  0.00  0.00    +0.132 A 
ATOM      4  N   UNL     1      -6.309   0.787   1.006  0.00  0.00    -0.184 N 
ATOM      5  N   UNL     1      -7.226   0.944   2.052  0.00  0.00    -0.159 NA
ATOM      6  C   UNL     1      -4.939   0.945   1.095  0.00  0.00    +0.234 A 
ATOM      7  N   UNL     1      -4.382   1.284   2.288  0.00  0.00    -0.291 N 
ATOM      8  H   UNL     1      -4.941   1.412   3.071  0.00  0.00    +0.172 HD
ATOM      9  C   UNL     1      -3.046   1.442   2.376  0.00  0.00    +0.256 A 
ATOM     10  O   UNL     1      -2.527   1.743   3.438  0.00  0.00    -0.267 OA
ATOM     11  C   UNL     1      -2.255   1.253   1.220  0.00  0.00    +0.038 A 
ATOM     12  C   UNL     1      -2.865   0.908   0.059  0.00  0.00    +0.053 A 
ATOM     13  N   UNL     1      -4.197   0.766   0.028  0.00  0.00    -0.217 NA
ATOM     14  C   UNL     1      -2.105   0.675  -1.220  0.00  0.00    +0.056 C 
ATOM     15  C   UNL     1      -0.710   1.292  -1.137  0.00  0.00    +0.006 C 
ATOM     16  C   UNL     1      -0.045   0.809   0.157  0.00  0.00    +0.005 C 
ATOM     17  C   UNL     1      -0.768   1.453   1.339  0.00  0.00    +0.042 C 
ENDROOT
BRANCH   1  20
ATOM     18  C   UNL     1     -11.175   1.014   3.993  0.00  0.00    +0.042 A 
ATOM     19  C   UNL     1      -9.803   1.075   3.676  0.00  0.00    +0.051 A 
ATOM     20  C   UNL     1      -9.692   0.771   2.355  0.00  0.00    +0.155 A 
ATOM     21  O   UNL     1     -10.928   0.540   1.873  0.00  0.00    -0.461 OA
ATOM     22  C   UNL     1     -11.827   0.681   2.862  0.00  0.00    +0.196 A 
ENDBRANCH   1  20
BRANCH   3  23
ATOM     23  N   UNL     1      -6.465   0.216  -1.382  0.00  0.00    -0.270 N 
ATOM     24  C   UNL     1      -7.273  -0.105  -2.412  0.00  0.00    +0.220 C 
ATOM     25  O   UNL     1      -8.471  -0.185  -2.241  0.00  0.00    -0.275 OA
ATOM     26  H   UNL     1      -5.507   0.280  -1.519  0.00  0.00    +0.156 HD
BRANCH  24  27
ATOM     27  C   UNL     1      -6.688  -0.363  -3.777  0.00  0.00    +0.122 C 
BRANCH  27  28
ATOM     28  C   UNL     1      -7.790  -0.849  -4.721  0.00  0.00    +0.112 C 
ATOM     29  C   UNL     1      -8.358  -2.165  -4.169  0.00  0.00    +0.103 C 
ATOM     30  S   UNL     1      -8.046  -3.300  -5.567  0.00  0.00    -0.086 S 
ATOM     31  C   UNL     1      -7.271  -2.161  -6.694  0.00  0.00    +0.172 A 
ATOM     32  N   UNL     1      -7.234  -0.952  -6.069  0.00  0.00    -0.283 N 
ATOM     33  C   UNL     1      -6.670   0.083  -6.766  0.00  0.00    +0.258 A 
ATOM     34  O   UNL     1      -6.606   1.192  -6.260  0.00  0.00    -0.267 OA
ATOM     35  C   UNL     1      -6.165  -0.124  -8.056  0.00  0.00    +0.038 A 
ATOM     36  C   UNL     1      -6.242  -1.369  -8.609  0.00  0.00    +0.052 A 
ATOM     37  N   UNL     1      -6.797  -2.354  -7.906  0.00  0.00    -0.228 NA
ATOM     38  C   UNL     1      -5.640  -1.359  -9.997  0.00  0.00    +0.056 C 
ATOM     39  C   UNL     1      -4.796  -0.068 -10.059  0.00  0.00    +0.011 C 
ATOM     40  C   UNL     1      -5.503   0.833  -9.024  0.00  0.00    +0.043 C 
ENDBRANCH  27  28
ENDBRANCH  24  27
ENDBRANCH   3  23
TORSDOF 4
