REMARK  Name = ZINC07163879
REMARK  8 active torsions:
REMARK  status: ('A' for Active; 'I' for Inactive)
REMARK    1  A    between atoms: C_1  and  C_2
REMARK    2  A    between atoms: C_6  and  N_8
REMARK    3  A    between atoms: C_14  and  C_15
REMARK    4  A    between atoms: C_17  and  O_24
REMARK    5  A    between atoms: C_18  and  O_23
REMARK    6  A    between atoms: C_19  and  O_21
REMARK    7  A    between atoms: O_21  and  C_22
REMARK    8  A    between atoms: O_24  and  C_25
REMARK                            x       y       z     vdW  Elec       q    Type
REMARK                         _______ _______ _______ _____ _____    ______ ____
ROOT
ATOM      1  N   UNL     1      -0.998  -0.824  -1.401  0.00  0.00    -0.296 N 
ATOM      2  C   UNL     1      -1.033  -2.169  -1.141  0.00  0.00    +0.156 C 
ATOM      3  N   UNL     1      -0.018  -2.992  -0.931  0.00  0.00    -0.154 NA
ATOM      4  C   UNL     1      -0.187  -4.273  -0.687  0.00  0.00    +0.276 C 
ATOM      5  O   UNL     1       0.758  -5.021  -0.491  0.00  0.00    -0.267 OA
ATOM      6  C   UNL     1      -1.586  -4.759  -0.668  0.00  0.00    +0.079 C 
ATOM      7  C   UNL     1      -2.070  -6.009  -0.452  0.00  0.00    +0.028 C 
ATOM      8  S   UNL     1      -2.459  -3.236  -1.011  0.00  0.00    -0.051 S 
ATOM      9  H   UNL     1      -1.825  -0.331  -1.520  0.00  0.00    +0.154 HD
ENDROOT
BRANCH   1  15
ATOM     10  C   UNL     1       3.763  -0.549  -0.207  0.00  0.00    +0.044 C 
ATOM     11  C   UNL     1       2.554  -0.007  -0.925  0.00  0.00    -0.049 A 
ATOM     12  C   UNL     1       2.660   1.149  -1.679  0.00  0.00    +0.003 A 
ATOM     13  C   UNL     1       1.554   1.650  -2.340  0.00  0.00    +0.002 A 
ATOM     14  C   UNL     1       0.339   0.999  -2.249  0.00  0.00    +0.023 A 
ATOM     15  C   UNL     1       0.230  -0.162  -1.494  0.00  0.00    +0.033 A 
ATOM     16  C   UNL     1       1.343  -0.663  -0.831  0.00  0.00    +0.026 A 
ENDBRANCH   1  15
BRANCH   7  17
ATOM     17  C   UNL     1      -3.501  -6.284  -0.633  0.00  0.00    -0.017 A 
ATOM     18  C   UNL     1      -4.031  -7.522  -0.251  0.00  0.00    +0.057 A 
ATOM     19  C   UNL     1      -5.379  -7.775  -0.417  0.00  0.00    +0.166 A 
ATOM     20  C   UNL     1      -6.208  -6.804  -0.975  0.00  0.00    +0.201 A 
ATOM     21  C   UNL     1      -5.683  -5.573  -1.361  0.00  0.00    +0.166 A 
ATOM     22  C   UNL     1      -4.337  -5.311  -1.193  0.00  0.00    +0.057 A 
BRANCH  21  23
ATOM     23  O   UNL     1      -6.497  -4.629  -1.905  0.00  0.00    -0.491 OA
ATOM     24  C   UNL     1      -5.892  -3.389  -2.279  0.00  0.00    +0.277 C 
ENDBRANCH  21  23
BRANCH  20  25
ATOM     25  O   UNL     1      -7.533  -7.059  -1.142  0.00  0.00    -0.501 OA
ATOM     26  H   UNL     1      -7.752  -7.455  -1.996  0.00  0.00    +0.292 HD
ENDBRANCH  20  25
BRANCH  19  27
ATOM     27  O   UNL     1      -5.897  -8.975  -0.041  0.00  0.00    -0.491 OA
ATOM     28  C   UNL     1      -4.990  -9.924   0.525  0.00  0.00    +0.277 C 
ENDBRANCH  19  27
ENDBRANCH   7  17
TORSDOF 5
