REMARK  Name = ZINC66967187
REMARK  10 active torsions:
REMARK  status: ('A' for Active; 'I' for Inactive)
REMARK    1  A    between atoms: C_1  and  C_2
REMARK    2  A    between atoms: C_2  and  C_3
REMARK    3  A    between atoms: C_3  and  C_4
REMARK    4  A    between atoms: C_4  and  N_5
REMARK    5  A    between atoms: C_11  and  N_14
REMARK    6  A    between atoms: N_14  and  C_15
REMARK    7  A    between atoms: C_15  and  C_17
REMARK    8  A    between atoms: C_15  and  C_18
REMARK    9  A    between atoms: C_23  and  C_27
REMARK   10  A    between atoms: C_24  and  C_26
REMARK                            x       y       z     vdW  Elec       q    Type
REMARK                         _______ _______ _______ _____ _____    ______ ____
ROOT
ATOM      1  N   UNL     1       2.386  -6.643  -3.788  0.00  0.00    -0.333 N 
ATOM      2  H   UNL     1       2.540  -6.538  -2.836  0.00  0.00    +0.147 HD
ENDROOT
BRANCH   1   9
ATOM      3  N   UNL     1       1.427  -2.501  -2.474  0.00  0.00    +0.385 N 
ATOM      4  C   UNL     1       0.601  -2.244  -3.676  0.00  0.00    -0.042 C 
ATOM      5  C   UNL     1       0.880  -3.394  -4.617  0.00  0.00    -0.061 A 
ATOM      6  C   UNL     1       0.662  -3.547  -5.973  0.00  0.00    +0.002 A 
ATOM      7  C   UNL     1       1.016  -4.724  -6.606  0.00  0.00    +0.002 A 
ATOM      8  C   UNL     1       1.588  -5.753  -5.884  0.00  0.00    +0.023 A 
ATOM      9  C   UNL     1       1.808  -5.604  -4.521  0.00  0.00    +0.029 A 
ATOM     10  C   UNL     1       1.452  -4.421  -3.888  0.00  0.00    -0.042 A 
ATOM     11  C   UNL     1       1.566  -3.975  -2.448  0.00  0.00    -0.040 C 
ATOM     12  H   UNL     1       2.330  -2.061  -2.562  0.00  0.00    -0.081 HD
BRANCH   3  13
ATOM     13  C   UNL     1       0.739  -2.027  -1.265  0.00  0.00    -0.078 C 
BRANCH  13  14
ATOM     14  C   UNL     1       0.718  -0.497  -1.257  0.00  0.00    -0.019 C 
BRANCH  14  16
ATOM     15  C   UNL     1      -0.019   1.526   0.010  0.00  0.00    +0.004 C 
ATOM     16  C   UNL     1       0.002  -0.004   0.002  0.00  0.00    -0.005 C 
ENDBRANCH  14  16
ENDBRANCH  13  14
ENDBRANCH   3  13
ENDBRANCH   1   9
BRANCH   1  17
ATOM     17  C   UNL     1       2.761  -7.892  -4.457  0.00  0.00    +0.154 C 
ATOM     18  C   UNL     1       4.155  -7.744  -5.069  0.00  0.00    +0.038 C 
BRANCH  17  19
ATOM     19  C   UNL     1       2.769  -9.016  -3.454  0.00  0.00    +0.239 C 
ATOM     20  O   UNL     1       2.489  -8.797  -2.294  0.00  0.00    -0.273 OA
ATOM     21  N   UNL     1       3.087 -10.266  -3.845  0.00  0.00    -0.263 N 
ATOM     22  C   UNL     1       3.094 -11.303  -2.920  0.00  0.00    +0.165 A 
ATOM     23  N   UNL     1       2.816 -11.255  -1.635  0.00  0.00    -0.230 NA
ATOM     24  C   UNL     1       2.869 -12.339  -0.884  0.00  0.00    +0.050 A 
ATOM     25  C   UNL     1       3.221 -13.496  -1.496  0.00  0.00    +0.011 A 
ATOM     26  S   UNL     1       3.455 -12.928  -3.173  0.00  0.00    -0.057 S 
ATOM     27  C   UNL     1       3.371 -14.881  -0.921  0.00  0.00    +0.053 C 
ATOM     28  C   UNL     1       2.551 -12.293   0.589  0.00  0.00    +0.066 C 
ATOM     29  H   UNL     1       3.310 -10.442  -4.772  0.00  0.00    +0.157 HD
ENDBRANCH  17  19
ENDBRANCH   1  17
TORSDOF 6
