REMARK  Name = ZINC20580217
REMARK  7 active torsions:
REMARK  status: ('A' for Active; 'I' for Inactive)
REMARK    1  A    between atoms: C_1  and  C_2
REMARK    2  A    between atoms: C_5  and  N_9
REMARK    3  A    between atoms: N_9  and  S_10
REMARK    4  A    between atoms: S_10  and  C_13
REMARK    5  A    between atoms: C_15  and  C_20
REMARK    6  A    between atoms: C_18  and  C_19
REMARK    7  A    between atoms: C_22  and  C_25
REMARK                            x       y       z     vdW  Elec       q    Type
REMARK                         _______ _______ _______ _____ _____    ______ ____
ROOT
ATOM      1  S   UNL     1       3.943  -0.759   0.038  0.00  0.00    +0.073 S 
ATOM      2  O   UNL     1       3.740  -2.165   0.088  0.00  0.00    -0.150 OA
ATOM      3  O   UNL     1       4.466  -0.106  -1.111  0.00  0.00    -0.150 OA
ENDROOT
BRANCH   1   4
ATOM      4  C   UNL     1       2.383  -0.013   0.375  0.00  0.00    +0.112 A 
ATOM      5  C   UNL     1       1.278  -0.804   0.613  0.00  0.00    +0.040 A 
ATOM      6  C   UNL     1       0.043  -0.212   0.880  0.00  0.00    +0.022 A 
ATOM      7  C   UNL     1      -0.065   1.180   0.905  0.00  0.00    +0.012 A 
ATOM      8  C   UNL     1       1.047   1.960   0.666  0.00  0.00    +0.006 A 
ATOM      9  C   UNL     1       2.269   1.365   0.402  0.00  0.00    -0.024 A 
ATOM     10  C   UNL     1       3.480   2.224   0.142  0.00  0.00    +0.046 C 
BRANCH   6  11
ATOM     11  C   UNL     1      -1.145  -1.054   1.135  0.00  0.00    +0.168 A 
ATOM     12  C   UNL     1      -2.413  -0.623   1.414  0.00  0.00    +0.075 A 
ATOM     13  C   UNL     1      -3.150  -1.815   1.566  0.00  0.00    +0.081 A 
ATOM     14  N   UNL     1      -2.312  -2.796   1.384  0.00  0.00    -0.083 NA
ATOM     15  O   UNL     1      -1.196  -2.398   1.144  0.00  0.00    -0.354 OA
ATOM     16  C   UNL     1      -4.619  -1.933   1.882  0.00  0.00    +0.069 C 
ENDBRANCH   6  11
ENDBRANCH   1   4
BRANCH   1  17
ATOM     17  N   UNL     1       4.950  -0.381   1.297  0.00  0.00    -0.215 N 
ATOM     18  H   UNL     1       5.876   0.183   1.110  0.00  0.00    +0.174 HD
BRANCH  17  23
ATOM     19  C   UNL     1       3.622  -1.990   6.571  0.00  0.00    +0.044 C 
ATOM     20  C   UNL     1       3.975  -1.562   5.170  0.00  0.00    -0.049 A 
ATOM     21  C   UNL     1       3.668  -2.383   4.100  0.00  0.00    +0.005 A 
ATOM     22  C   UNL     1       3.990  -1.994   2.814  0.00  0.00    +0.026 A 
ATOM     23  C   UNL     1       4.623  -0.777   2.596  0.00  0.00    +0.062 A 
ATOM     24  C   UNL     1       4.935   0.043   3.674  0.00  0.00    +0.040 A 
ATOM     25  C   UNL     1       4.605  -0.349   4.957  0.00  0.00    +0.020 A 
ATOM     26 BR   UNL     1       5.803   1.698   3.384  0.00  0.00    -0.048 Br
ENDBRANCH  17  23
ENDBRANCH   1  17
TORSDOF 4
