REMARK  Name = ZINC38827439
REMARK  6 active torsions:
REMARK  status: ('A' for Active; 'I' for Inactive)
REMARK    1  A    between atoms: C_1  and  C_2
REMARK    2  A    between atoms: C_2  and  O_3
REMARK    3  A    between atoms: O_3  and  C_4
REMARK    4  A    between atoms: C_9  and  C_10
REMARK    5  A    between atoms: C_14  and  N_17
REMARK    6  A    between atoms: C_18  and  C_20
REMARK                            x       y       z     vdW  Elec       q    Type
REMARK                         _______ _______ _______ _____ _____    ______ ____
ROOT
ATOM      1  C   UNL     1       1.990  -1.397  -3.491  0.00  0.00    +0.100 C 
ATOM      2  C   UNL     1       3.352  -0.841  -2.981  0.00  0.00    +0.096 C 
ATOM      3  S   UNL     1       4.073  -0.347  -4.610  0.00  0.00    -0.121 S 
ATOM      4  C   UNL     1       3.249  -1.641  -5.631  0.00  0.00    +0.202 C 
ATOM      5  N   UNL     1       2.167  -2.127  -4.748  0.00  0.00    -0.282 NA
ATOM      6  H   UNL     1       2.252  -3.118  -4.582  0.00  0.00    +0.125 HD
ENDROOT
BRANCH   1  12
ATOM      7  C   UNL     1       0.617  -1.823  -1.437  0.00  0.00    +0.125 A 
ATOM      8  C   UNL     1       0.083  -2.683  -0.487  0.00  0.00    +0.046 A 
ATOM      9  C   UNL     1       0.351  -4.036  -0.554  0.00  0.00    +0.004 A 
ATOM     10  C   UNL     1       1.151  -4.535  -1.567  0.00  0.00    +0.001 A 
ATOM     11  C   UNL     1       1.684  -3.680  -2.514  0.00  0.00    +0.009 A 
ATOM     12  C   UNL     1       1.414  -2.327  -2.455  0.00  0.00    +0.012 A 
BRANCH   7  13
ATOM     13  O   UNL     1       0.354  -0.492  -1.374  0.00  0.00    -0.492 OA
BRANCH  13  15
ATOM     14  C   UNL     1      -0.658   1.472  -0.393  0.00  0.00    +0.048 C 
ATOM     15  C   UNL     1      -0.475  -0.044  -0.299  0.00  0.00    +0.225 C 
ENDBRANCH  13  15
ENDBRANCH   7  13
ENDBRANCH   1  12
BRANCH   4  16
ATOM     16  N   UNL     1       4.184  -2.723  -5.950  0.00  0.00    -0.286 N 
ATOM     17  C   UNL     1       5.122  -2.545  -6.901  0.00  0.00    +0.262 C 
ATOM     18  O   UNL     1       5.192  -1.485  -7.495  0.00  0.00    -0.269 OA
ATOM     19  H   UNL     1       4.129  -3.567  -5.476  0.00  0.00    +0.151 HD
BRANCH  17  20
ATOM     20  C   UNL     1       6.062  -3.630  -7.220  0.00  0.00    +0.103 A 
ATOM     21  H   UNL     1       5.489  -5.168  -5.910  0.00  0.00    +0.166 HD
ATOM     22  C   UNL     1       7.046  -3.571  -8.155  0.00  0.00    +0.040 A 
ATOM     23  C   UNL     1       7.721  -4.815  -8.150  0.00  0.00    +0.000 A 
ATOM     24  C   UNL     1       8.799  -5.328  -8.883  0.00  0.00    +0.010 A 
ATOM     25  C   UNL     1       9.237  -6.599  -8.647  0.00  0.00    +0.001 A 
ATOM     26  C   UNL     1       8.623  -7.392  -7.686  0.00  0.00    +0.002 A 
ATOM     27  C   UNL     1       7.561  -6.911  -6.953  0.00  0.00    +0.026 A 
ATOM     28  C   UNL     1       7.096  -5.617  -7.175  0.00  0.00    +0.047 A 
ATOM     29  N   UNL     1       6.087  -4.871  -6.614  0.00  0.00    -0.351 N 
ENDBRANCH  17  20
ENDBRANCH   4  16
TORSDOF 5
