REMARK  Name = ZINC63135162
REMARK  10 active torsions:
REMARK  status: ('A' for Active; 'I' for Inactive)
REMARK    1  A    between atoms: C_1  and  N_2
REMARK    2  A    between atoms: N_2  and  C_3
REMARK    3  A    between atoms: C_3  and  C_4
REMARK    4  A    between atoms: C_11  and  C_13
REMARK    5  A    between atoms: C_13  and  C_15
REMARK    6  A    between atoms: C_13  and  N_25
REMARK    7  A    between atoms: C_15  and  C_16
REMARK    8  A    between atoms: C_26  and  O_28
REMARK    9  A    between atoms: O_28  and  C_29
REMARK   10  A    between atoms: C_29  and  C_30
REMARK                            x       y       z     vdW  Elec       q    Type
REMARK                         _______ _______ _______ _____ _____    ______ ____
ROOT
ATOM      1  C   UNL     1      -0.006   0.072  -2.621  0.00  0.00    +0.166 C 
ENDROOT
BRANCH   1   4
ATOM      2  C   UNL     1      -0.336   1.279  -0.078  0.00  0.00    +0.132 C 
ATOM      3  N   UNL     1      -0.411  -0.180  -0.194  0.00  0.00    -0.299 N 
ATOM      4  C   UNL     1      -0.256  -0.769  -1.396  0.00  0.00    +0.236 C 
ATOM      5  O   UNL     1      -0.319  -1.976  -1.492  0.00  0.00    -0.274 OA
BRANCH   3   6
ATOM      6  C   UNL     1      -0.654  -0.998   0.997  0.00  0.00    +0.144 C 
BRANCH   6   7
ATOM      7  C   UNL     1      -2.138  -1.188   1.181  0.00  0.00    -0.012 A 
ATOM      8  C   UNL     1      -2.874  -0.284   1.933  0.00  0.00    +0.009 A 
ATOM      9  C   UNL     1      -4.235  -0.498   2.075  0.00  0.00    +0.040 A 
ATOM     10  C   UNL     1      -4.812  -1.600   1.467  0.00  0.00    +0.129 A 
ATOM     11  N   UNL     1      -4.080  -2.439   0.759  0.00  0.00    -0.243 NA
ATOM     12  C   UNL     1      -2.783  -2.262   0.598  0.00  0.00    +0.117 A 
ATOM     13 CL   UNL     1      -6.516  -1.881   1.638  0.00  0.00    -0.062 Cl
ENDBRANCH   6   7
ENDBRANCH   3   6
ENDBRANCH   1   4
BRANCH   1  14
ATOM     14  N   UNL     1       0.126  -0.797  -3.792  0.00  0.00    -0.270 N 
ATOM     15  C   UNL     1      -0.189  -0.331  -5.017  0.00  0.00    +0.401 C 
ATOM     16  O   UNL     1      -0.581   0.811  -5.149  0.00  0.00    -0.226 OA
ATOM     17  H   UNL     1       0.439  -1.709  -3.686  0.00  0.00    +0.153 HD
BRANCH  15  18
ATOM     18  O   UNL     1      -0.068  -1.130  -6.093  0.00  0.00    -0.446 OA
BRANCH  18  19
ATOM     19  C   UNL     1      -0.418  -0.570  -7.360  0.00  0.00    +0.269 C 
BRANCH  19  20
ATOM     20  C   UNL     1      -0.221  -1.604  -8.439  0.00  0.00    -0.010 A 
ATOM     21  C   UNL     1       1.000  -1.711  -9.078  0.00  0.00    +0.007 A 
ATOM     22  C   UNL     1       1.182  -2.659 -10.068  0.00  0.00    +0.000 A 
ATOM     23  C   UNL     1       0.142  -3.501 -10.417  0.00  0.00    +0.000 A 
ATOM     24  C   UNL     1      -1.079  -3.394  -9.777  0.00  0.00    +0.000 A 
ATOM     25  C   UNL     1      -1.259  -2.449  -8.785  0.00  0.00    +0.007 A 
ENDBRANCH  19  20
ENDBRANCH  18  19
ENDBRANCH  15  18
ENDBRANCH   1  14
BRANCH   1  26
ATOM     26  C   UNL     1       1.284   0.874  -2.434  0.00  0.00    +0.065 C 
BRANCH  26  27
ATOM     27  C   UNL     1       2.424  -0.068  -2.144  0.00  0.00    -0.039 C 
ATOM     28  C   UNL     1       3.291  -0.594  -3.038  0.00  0.00    -0.001 A 
ATOM     29  C   UNL     1       3.426  -0.454  -4.493  0.00  0.00    +0.010 A 
ATOM     30  C   UNL     1       4.417  -1.122  -5.127  0.00  0.00    +0.001 A 
ATOM     31  C   UNL     1       5.314  -1.943  -4.431  0.00  0.00    +0.002 A 
ATOM     32  C   UNL     1       5.254  -2.122  -3.095  0.00  0.00    +0.026 A 
ATOM     33  C   UNL     1       4.252  -1.467  -2.327  0.00  0.00    +0.043 A 
ATOM     34  N   UNL     1       3.989  -1.480  -1.043  0.00  0.00    -0.380 N 
ATOM     35  C   UNL     1       2.833  -0.611  -0.793  0.00  0.00    +0.144 C 
ATOM     36  H   UNL     1       4.479  -1.978  -0.369  0.00  0.00    +0.160 HD
ENDBRANCH  26  27
ENDBRANCH   1  26
TORSDOF 9
