REMARK  Name = ZINC41724293
REMARK  7 active torsions:
REMARK  status: ('A' for Active; 'I' for Inactive)
REMARK    1  A    between atoms: C_1  and  C_2
REMARK    2  A    between atoms: C_5  and  C_29
REMARK    3  A    between atoms: N_8  and  C_10
REMARK    4  A    between atoms: C_10  and  C_11
REMARK    5  A    between atoms: C_11  and  N_12
REMARK    6  A    between atoms: C_13  and  C_15
REMARK    7  A    between atoms: N_17  and  C_18
REMARK                            x       y       z     vdW  Elec       q    Type
REMARK                         _______ _______ _______ _____ _____    ______ ____
ROOT
ATOM      1  N   UNL     1       4.731   0.020   3.593  0.00  0.00    -0.309 N 
ATOM      2  C   UNL     1       5.621  -0.991   3.536  0.00  0.00    +0.299 C 
ATOM      3  O   UNL     1       5.867  -1.523   2.474  0.00  0.00    -0.265 OA
ATOM      4  H   UNL     1       4.534   0.446   4.442  0.00  0.00    +0.149 HD
ENDROOT
BRANCH   2   5
ATOM      5  C   UNL     1       6.303  -1.456   4.780  0.00  0.00    +0.303 C 
ATOM      6  O   UNL     1       6.056  -0.924   5.843  0.00  0.00    -0.265 OA
ATOM      7  N   UNL     1       7.192  -2.468   4.723  0.00  0.00    -0.273 N 
ATOM      8  H   UNL     1       7.335  -2.941   3.889  0.00  0.00    +0.155 HD
BRANCH   7   9
ATOM      9  C   UNL     1       7.909  -2.835   5.868  0.00  0.00    +0.111 A 
ATOM     10  C   UNL     1       9.122  -2.220   6.156  0.00  0.00    +0.185 A 
ATOM     11  C   UNL     1       9.830  -2.584   7.290  0.00  0.00    +0.198 A 
ATOM     12  C   UNL     1       9.329  -3.561   8.136  0.00  0.00    +0.199 A 
ATOM     13  C   UNL     1       8.120  -4.175   7.851  0.00  0.00    +0.198 A 
ATOM     14  C   UNL     1       7.406  -3.810   6.721  0.00  0.00    +0.185 A 
ATOM     15  F   UNL     1       6.225  -4.405   6.447  0.00  0.00    -0.200 F 
ATOM     16  F   UNL     1       7.634  -5.127   8.678  0.00  0.00    -0.199 F 
ATOM     17  F   UNL     1      10.021  -3.915   9.241  0.00  0.00    -0.199 F 
ATOM     18  F   UNL     1      11.009  -1.987   7.570  0.00  0.00    -0.199 F 
ATOM     19  F   UNL     1       9.611  -1.268   5.331  0.00  0.00    -0.200 F 
ENDBRANCH   7   9
ENDBRANCH   2   5
BRANCH   1  20
ATOM     20  C   UNL     1       4.062   0.477   2.373  0.00  0.00    +0.086 C 
BRANCH  20  21
ATOM     21  C   UNL     1       3.111   1.626   2.712  0.00  0.00    -0.060 C 
BRANCH  21  27
ATOM     22  C   UNL     1       3.792   3.649  -1.694  0.00  0.00    +0.005 C 
ATOM     23  C   UNL     1       2.753   3.056  -0.740  0.00  0.00    -0.031 C 
ATOM     24  C   UNL     1       1.674   4.101  -0.445  0.00  0.00    +0.003 C 
ATOM     25  C   UNL     1       0.683   3.526   0.571  0.00  0.00    -0.031 C 
ATOM     26  C   UNL     1       1.441   3.104   1.832  0.00  0.00    -0.076 C 
ATOM     27  N   UNL     1       2.440   2.084   1.488  0.00  0.00    +0.381 N 
ATOM     28  C   UNL     1       3.435   2.650   0.569  0.00  0.00    -0.076 C 
ATOM     29  C   UNL     1      -0.356   4.590   0.931  0.00  0.00    +0.005 C 
ATOM     30  H   UNL     1       1.982   1.302   1.045  0.00  0.00    -0.082 HD
ENDBRANCH  21  27
ENDBRANCH  20  21
ENDBRANCH   1  20
TORSDOF 5
