REMARK  Name = ZINC37174550
REMARK  6 active torsions:
REMARK  status: ('A' for Active; 'I' for Inactive)
REMARK    1  A    between atoms: C_1  and  N_2
REMARK    2  A    between atoms: N_2  and  C_3
REMARK    3  A    between atoms: N_2  and  C_9
REMARK    4  A    between atoms: C_9  and  C_11
REMARK    5  A    between atoms: C_9  and  C_13
REMARK    6  A    between atoms: C_11  and  N_12
REMARK                            x       y       z     vdW  Elec       q    Type
REMARK                         _______ _______ _______ _____ _____    ______ ____
ROOT
ATOM      1  C   UNL     1       0.703  -0.405  -1.324  0.00  0.00    +0.070 C 
ENDROOT
BRANCH   1   2
ATOM      2  C   UNL     1      -0.314   0.048  -2.340  0.00  0.00    -0.027 A 
ATOM      3  C   UNL     1       0.098   0.440  -3.601  0.00  0.00    +0.054 A 
ATOM      4  C   UNL     1      -0.834   0.856  -4.537  0.00  0.00    +0.168 A 
ATOM      5  C   UNL     1      -2.187   0.879  -4.205  0.00  0.00    +0.180 A 
ATOM      6  C   UNL     1      -2.592   0.484  -2.940  0.00  0.00    +0.064 A 
ATOM      7  C   UNL     1      -1.656   0.064  -2.012  0.00  0.00    +0.024 A 
ATOM      8 BR   UNL     1      -4.428   0.513  -2.485  0.00  0.00    -0.046 Br
ATOM      9  O   UNL     1      -2.893   1.322  -5.286  0.00  0.00    -0.451 OA
ATOM     10  C   UNL     1      -1.927   1.957  -6.143  0.00  0.00    +0.466 C 
ATOM     11  O   UNL     1      -0.694   1.285  -5.825  0.00  0.00    -0.453 OA
ENDBRANCH   1   2
BRANCH   1  13
ATOM     12  C   UNL     1      -0.150   1.573  -0.218  0.00  0.00    +0.105 C 
ATOM     13  N   UNL     1       0.419   0.232  -0.031  0.00  0.00    -0.297 NA
BRANCH  13  14
ATOM     14  C   UNL     1       1.626   0.284   0.806  0.00  0.00    +0.067 C 
ATOM     15  C   UNL     1       1.213   0.614   2.240  0.00  0.00    +0.030 C 
ATOM     16  C   UNL     1       2.365   1.356   2.975  0.00  0.00    +0.071 C 
ATOM     17  S   UNL     1       2.955   2.442   1.603  0.00  0.00    -0.159 S 
ATOM     18  C   UNL     1       2.604   1.309   0.200  0.00  0.00    +0.088 C 
ENDBRANCH  13  14
ENDBRANCH   1  13
BRANCH   1  19
ATOM     19  C   UNL     1       0.629  -1.925  -1.171  0.00  0.00    -0.063 C 
BRANCH  19  20
ATOM     20  N   UNL     1       1.570  -2.359  -0.129  0.00  0.00    +0.379 N 
ATOM     21  H   UNL     1       1.637  -3.365  -0.135  0.00  0.00    -0.090 HD
ATOM     22  H   UNL     1       2.479  -1.960  -0.310  0.00  0.00    -0.090 HD
ATOM     23  H   UNL     1       1.239  -2.049   0.772  0.00  0.00    -0.090 HD
ENDBRANCH  19  20
ENDBRANCH   1  19
TORSDOF 5
