REMARK  Name = ZINC32095577
REMARK  5 active torsions:
REMARK  status: ('A' for Active; 'I' for Inactive)
REMARK    1  A    between atoms: C_2  and  C_3
REMARK    2  A    between atoms: C_3  and  N_4
REMARK    3  A    between atoms: C_15  and  O_30
REMARK    4  A    between atoms: N_21  and  C_22
REMARK    5  A    between atoms: C_22  and  C_23
REMARK                            x       y       z     vdW  Elec       q    Type
REMARK                         _______ _______ _______ _____ _____    ______ ____
ROOT
ATOM      1  N   UNL     1       1.367  -1.676   1.111  0.00  0.00    -0.266 N 
ATOM      2  C   UNL     1       1.854  -1.351   2.366  0.00  0.00    +0.041 A 
ATOM      3  C   UNL     1       2.375  -0.142   2.829  0.00  0.00    +0.024 A 
ATOM      4  C   UNL     1       2.794  -0.097   4.149  0.00  0.00    +0.002 A 
ATOM      5  C   UNL     1       2.706  -1.194   4.982  0.00  0.00    +0.000 A 
ATOM      6  C   UNL     1       2.189  -2.404   4.533  0.00  0.00    +0.007 A 
ATOM      7  C   UNL     1       1.770  -2.457   3.221  0.00  0.00    -0.006 A 
ATOM      8  C   UNL     1       1.173  -3.564   2.414  0.00  0.00    +0.112 C 
ATOM      9  C   UNL     1       0.939  -2.954   1.050  0.00  0.00    +0.236 C 
ATOM     10  O   UNL     1       0.460  -3.509   0.084  0.00  0.00    -0.274 OA
ATOM     11  C   UNL     1       2.126  -4.754   2.311  0.00  0.00    +0.121 C 
ATOM     12  C   UNL     1       2.046  -5.628   3.530  0.00  0.00    +0.191 C 
ATOM     13  N   UNL     1       0.960  -5.798   4.222  0.00  0.00    -0.198 NA
ATOM     14  C   UNL     1      -0.172  -5.121   3.873  0.00  0.00    +0.159 A 
ATOM     15  C   UNL     1      -0.126  -4.035   3.005  0.00  0.00    +0.036 A 
ATOM     16  C   UNL     1      -1.416  -3.564   2.848  0.00  0.00    +0.141 A 
ATOM     17  N   UNL     1      -2.219  -4.299   3.582  0.00  0.00    -0.177 NA
ATOM     18  N   UNL     1      -1.460  -5.278   4.244  0.00  0.00    -0.242 N 
ENDROOT
BRANCH  12  19
ATOM     19  O   UNL     1       3.162  -6.272   3.927  0.00  0.00    -0.495 OA
ATOM     20  H   UNL     1       3.042  -6.817   4.717  0.00  0.00    +0.293 HD
ENDBRANCH  12  19
BRANCH   1  21
ATOM     21  C   UNL     1       1.317  -0.740  -0.015  0.00  0.00    +0.140 C 
BRANCH  21  23
ATOM     22  C   UNL     1      -0.016   1.306   0.009  0.00  0.00    +0.005 C 
ATOM     23  C   UNL     1       0.002  -0.004   0.002  0.00  0.00    -0.015 C 
ENDBRANCH  21  23
ENDBRANCH   1  21
BRANCH  18  24
ATOM     24  C   UNL     1      -1.974  -6.289   5.171  0.00  0.00    +0.182 C 
BRANCH  24  25
ATOM     25  C   UNL     1      -1.947  -5.743   6.575  0.00  0.00    -0.008 A 
ATOM     26  C   UNL     1      -0.868  -6.005   7.398  0.00  0.00    +0.007 A 
ATOM     27  C   UNL     1      -0.843  -5.504   8.686  0.00  0.00    +0.000 A 
ATOM     28  C   UNL     1      -1.897  -4.740   9.152  0.00  0.00    +0.001 A 
ATOM     29  C   UNL     1      -2.976  -4.478   8.330  0.00  0.00    +0.020 A 
ATOM     30  C   UNL     1      -2.999  -4.974   7.038  0.00  0.00    +0.046 A 
ATOM     31 CL   UNL     1      -4.352  -4.638   6.003  0.00  0.00    -0.083 Cl
ENDBRANCH  24  25
ENDBRANCH  18  24
TORSDOF 5
