REMARK  Name = ZINC11898513
REMARK  9 active torsions:
REMARK  status: ('A' for Active; 'I' for Inactive)
REMARK    1  A    between atoms: C_1  and  C_2
REMARK    2  A    between atoms: C_4  and  N_32
REMARK    3  A    between atoms: C_7  and  N_8
REMARK    4  A    between atoms: C_9  and  C_11
REMARK    5  A    between atoms: N_13  and  C_14
REMARK    6  A    between atoms: C_14  and  C_15
REMARK    7  A    between atoms: C_15  and  C_17
REMARK    8  A    between atoms: C_15  and  N_61
REMARK    9  A    between atoms: N_21  and  C_22
REMARK                            x       y       z     vdW  Elec       q    Type
REMARK                         _______ _______ _______ _____ _____    ______ ____
ROOT
ATOM      1  C   UNL     1      -7.720   8.298  -0.528  0.00  0.00    +0.095 C 
ENDROOT
BRANCH   1   4
ATOM      2  C   UNL     1      -9.249   7.673  -2.320  0.00  0.00    +0.299 C 
ATOM      3  O   UNL     1      -9.392   6.595  -1.782  0.00  0.00    -0.265 OA
ATOM      4  N   UNL     1      -8.434   8.597  -1.772  0.00  0.00    -0.309 N 
ATOM      5  H   UNL     1      -8.319   9.459  -2.202  0.00  0.00    +0.149 HD
BRANCH   2   7
ATOM      6  N   UNL     1     -10.791   7.055  -4.136  0.00  0.00    -0.278 N 
ATOM      7  C   UNL     1      -9.976   7.978  -3.588  0.00  0.00    +0.303 C 
ATOM      8  O   UNL     1      -9.833   9.056  -4.126  0.00  0.00    -0.265 OA
ATOM      9  H   UNL     1     -10.966   6.223  -3.668  0.00  0.00    +0.155 HD
BRANCH   6  16
ATOM     10  C   UNL     1     -13.173   5.638  -4.782  0.00  0.00    +0.046 C 
ATOM     11  C   UNL     1     -12.549   6.626  -5.733  0.00  0.00    -0.027 A 
ATOM     12  C   UNL     1     -13.134   6.867  -6.961  0.00  0.00    +0.038 A 
ATOM     13  C   UNL     1     -12.563   7.773  -7.835  0.00  0.00    +0.127 A 
ATOM     14  C   UNL     1     -11.401   8.438  -7.486  0.00  0.00    +0.034 A 
ATOM     15  C   UNL     1     -10.814   8.206  -6.258  0.00  0.00    +0.026 A 
ATOM     16  C   UNL     1     -11.386   7.296  -5.377  0.00  0.00    +0.037 A 
BRANCH  13  17
ATOM     17  N   UNL     1     -13.192   8.028  -9.150  0.00  0.00    +0.056 N 
ATOM     18  O   UNL     1     -14.213   7.441  -9.461  0.00  0.00    -0.126 OA
ATOM     19  O   UNL     1     -12.693   8.830  -9.919  0.00  0.00    -0.126 OA
ENDBRANCH  13  17
ENDBRANCH   6  16
ENDBRANCH   2   7
ENDBRANCH   1   4
BRANCH   1  20
ATOM     20  C   UNL     1      -6.968   9.545  -0.060  0.00  0.00    -0.003 C 
BRANCH  20  30
ATOM     21  C   UNL     1      -5.308   8.958  -1.726  0.00  0.00    -0.073 C 
ATOM     22  C   UNL     1      -4.737   9.435  -3.061  0.00  0.00    +0.017 C 
ATOM     23  C   UNL     1      -4.074  10.777  -2.887  0.00  0.00    -0.048 A 
ATOM     24  C   UNL     1      -3.201  11.216  -3.871  0.00  0.00    +0.004 A 
ATOM     25  C   UNL     1      -2.579  12.443  -3.755  0.00  0.00    +0.000 A 
ATOM     26  C   UNL     1      -2.827  13.238  -2.652  0.00  0.00    +0.000 A 
ATOM     27  C   UNL     1      -3.695  12.801  -1.671  0.00  0.00    +0.002 A 
ATOM     28  C   UNL     1      -4.319  11.568  -1.785  0.00  0.00    -0.061 A 
ATOM     29  C   UNL     1      -5.254  11.133  -0.687  0.00  0.00    -0.042 C 
ATOM     30  N   UNL     1      -6.130  10.053  -1.170  0.00  0.00    +0.389 N 
ATOM     31  H   UNL     1      -6.741  10.421  -1.908  0.00  0.00    -0.080 HD
ENDBRANCH  20  30
BRANCH  20  32
ATOM     32  C   UNL     1      -7.958  10.611   0.333  0.00  0.00    +0.006 A 
ATOM     33  C   UNL     1      -8.122  11.802  -0.279  0.00  0.00    +0.021 A 
ATOM     34  C   UNL     1      -9.146  12.489   0.404  0.00  0.00    +0.019 A 
ATOM     35  C   UNL     1      -9.567  11.692   1.407  0.00  0.00    +0.085 A 
ATOM     36  N   UNL     1      -8.846  10.536   1.365  0.00  0.00    -0.355 N 
ATOM     37  C   UNL     1      -8.997   9.402   2.280  0.00  0.00    +0.148 C 
ENDBRANCH  20  32
ENDBRANCH   1  20
TORSDOF 7
