REMARK  Name = ZINC04879683
REMARK  8 active torsions:
REMARK  status: ('A' for Active; 'I' for Inactive)
REMARK    1  A    between atoms: C_1  and  C_2
REMARK    2  A    between atoms: C_6  and  C_8
REMARK    3  A    between atoms: C_8  and  N_9
REMARK    4  A    between atoms: C_13  and  C_14
REMARK    5  A    between atoms: C_14  and  N_51
REMARK    6  A    between atoms: C_15  and  C_16
REMARK    7  A    between atoms: C_15  and  N_51
REMARK    8  A    between atoms: C_24  and  N_51
REMARK                            x       y       z     vdW  Elec       q    Type
REMARK                         _______ _______ _______ _____ _____    ______ ____
ROOT
ATOM      1  C   UNL     1      -2.731  -0.613   1.228  0.00  0.00    -0.024 C 
ENDROOT
BRANCH   1   6
ATOM      2  N   UNL     1      -2.325   1.093   3.090  0.00  0.00    -0.348 N 
ATOM      3  C   UNL     1      -1.283   1.838   3.556  0.00  0.00    +0.086 A 
ATOM      4  C   UNL     1      -0.196   1.556   2.808  0.00  0.00    +0.019 A 
ATOM      5  C   UNL     1      -0.585   0.610   1.839  0.00  0.00    +0.021 A 
ATOM      6  C   UNL     1      -1.893   0.345   2.035  0.00  0.00    +0.003 A 
BRANCH   2   7
ATOM      7  C   UNL     1      -3.687   1.099   3.630  0.00  0.00    +0.156 C 
BRANCH   7  13
ATOM      8  C   UNL     1      -3.112  -0.534   8.325  0.00  0.00    +0.044 C 
ATOM      9  C   UNL     1      -3.550  -0.775   6.904  0.00  0.00    -0.050 A 
ATOM     10  C   UNL     1      -4.080  -2.000   6.543  0.00  0.00    +0.003 A 
ATOM     11  C   UNL     1      -4.483  -2.222   5.239  0.00  0.00    +0.001 A 
ATOM     12  C   UNL     1      -4.360  -1.217   4.298  0.00  0.00    +0.005 A 
ATOM     13  C   UNL     1      -3.826   0.006   4.657  0.00  0.00    -0.028 A 
ATOM     14  C   UNL     1      -3.424   0.228   5.962  0.00  0.00    +0.008 A 
ENDBRANCH   7  13
ENDBRANCH   2   7
ENDBRANCH   1   6
BRANCH   1  15
ATOM     15  N   UNL     1      -3.430   0.144   0.168  0.00  0.00    +0.388 N 
ATOM     16  H   UNL     1      -3.869   0.973   0.585  0.00  0.00    -0.080 HD
BRANCH  15  17
ATOM     17  C   UNL     1      -2.464   0.578  -0.863  0.00  0.00    -0.068 C 
ATOM     18  C   UNL     1      -1.937   2.009  -0.745  0.00  0.00    -0.017 C 
ATOM     19  C   UNL     1      -2.939   1.651  -1.844  0.00  0.00    -0.017 C 
ENDBRANCH  15  17
BRANCH  15  20
ATOM     20  C   UNL     1      -4.479  -0.698  -0.445  0.00  0.00    -0.036 C 
BRANCH  20  21
ATOM     21  C   UNL     1      -5.410   0.187  -1.234  0.00  0.00    +0.006 A 
ATOM     22  C   UNL     1      -6.392   0.913  -0.583  0.00  0.00    +0.127 A 
ATOM     23  C   UNL     1      -7.244   1.729  -1.308  0.00  0.00    +0.039 A 
ATOM     24  C   UNL     1      -7.120   1.811  -2.682  0.00  0.00    +0.006 A 
ATOM     25  C   UNL     1      -6.142   1.083  -3.333  0.00  0.00    +0.039 A 
ATOM     26  C   UNL     1      -5.286   0.270  -2.610  0.00  0.00    +0.127 A 
ATOM     27  F   UNL     1      -4.331  -0.442  -3.247  0.00  0.00    -0.205 F 
ATOM     28  F   UNL     1      -6.518   0.828   0.759  0.00  0.00    -0.205 F 
ENDBRANCH  20  21
ENDBRANCH  15  20
ENDBRANCH   1  15
TORSDOF 7
