REMARK  Name = ZINC59301757
REMARK  4 active torsions:
REMARK  status: ('A' for Active; 'I' for Inactive)
REMARK    1  A    between atoms: C_6  and  C_7
REMARK    2  A    between atoms: C_7  and  C_10
REMARK    3  A    between atoms: N_12  and  C_13
REMARK    4  A    between atoms: C_15  and  C_21
REMARK                            x       y       z     vdW  Elec       q    Type
REMARK                         _______ _______ _______ _____ _____    ______ ____
ROOT
ATOM      1  C   UNL     1      -1.559   0.399   1.308  0.00  0.00    +0.228 C 
ATOM      2  O   UNL     1      -1.627   0.121   2.487  0.00  0.00    -0.274 OA
ATOM      3  N   UNL     1      -2.418   1.291   0.776  0.00  0.00    -0.280 N 
ATOM      4  H   UNL     1      -2.407   1.464  -0.179  0.00  0.00    +0.155 HD
ENDROOT
BRANCH   3   5
ATOM      5  C   UNL     1      -3.328   1.966   1.601  0.00  0.00    +0.099 A 
ATOM      6  C   UNL     1      -3.342   3.334   1.641  0.00  0.00    +0.042 A 
ATOM      7  C   UNL     1      -4.263   3.985   2.474  0.00  0.00    +0.073 A 
ATOM      8  C   UNL     1      -5.123   3.262   3.227  0.00  0.00    +0.098 A 
ATOM      9  N   UNL     1      -5.111   1.903   3.188  0.00  0.00    -0.327 N 
ATOM     10  H   UNL     1      -5.736   1.402   3.735  0.00  0.00    +0.168 HD
ATOM     11  C   UNL     1      -4.245   1.244   2.395  0.00  0.00    +0.270 A 
ATOM     12  O   UNL     1      -4.248   0.024   2.368  0.00  0.00    -0.266 OA
BRANCH   7  13
ATOM     13  C   UNL     1      -4.292   5.490   2.532  0.00  0.00    +0.419 C 
ATOM     14  F   UNL     1      -5.286   5.903   3.426  0.00  0.00    -0.166 F 
ATOM     15  F   UNL     1      -3.050   5.965   2.965  0.00  0.00    -0.166 F 
ATOM     16  F   UNL     1      -4.569   6.001   1.260  0.00  0.00    -0.166 F 
ENDBRANCH   7  13
ENDBRANCH   3   5
BRANCH   1  17
ATOM     17  C   UNL     1      -0.514  -0.252   0.439  0.00  0.00    +0.072 C 
ATOM     18  C   UNL     1       0.715  -0.841   1.134  0.00  0.00    +0.022 C 
ATOM     19  C   UNL     1       0.841   0.448   0.320  0.00  0.00    +0.022 C 
BRANCH  17  25
ATOM     20  C   UNL     1      -2.189  -1.727  -0.692  0.00  0.00    +0.006 A 
ATOM     21  C   UNL     1      -2.669  -2.386  -1.808  0.00  0.00    +0.020 A 
ATOM     22  C   UNL     1      -1.995  -2.286  -3.013  0.00  0.00    +0.041 A 
ATOM     23  C   UNL     1      -0.842  -1.528  -3.099  0.00  0.00    +0.020 A 
ATOM     24  C   UNL     1      -0.363  -0.870  -1.981  0.00  0.00    +0.006 A 
ATOM     25  C   UNL     1      -1.036  -0.970  -0.778  0.00  0.00    -0.032 A 
ATOM     26 CL   UNL     1      -2.597  -3.113  -4.415  0.00  0.00    -0.084 Cl
ENDBRANCH  17  25
ENDBRANCH   1  17
TORSDOF 4
