REMARK  Name = ZINC49937864
REMARK  2 active torsions:
REMARK  status: ('A' for Active; 'I' for Inactive)
REMARK    1  A    between atoms: C_5  and  C_7
REMARK    2  A    between atoms: C_25  and  C_27
REMARK                            x       y       z     vdW  Elec       q    Type
REMARK                         _______ _______ _______ _____ _____    ______ ____
ROOT
ATOM      1  C   UNL     1       1.229  -2.186  -0.022  0.00  0.00    +0.216 C 
ATOM      2  C   UNL     1       1.219  -2.688  -1.465  0.00  0.00    +0.113 C 
ATOM      3  C   UNL     1      -0.056  -2.131  -2.078  0.00  0.00    +0.065 C 
ATOM      4  C   UNL     1      -1.280  -2.250  -1.276  0.00  0.00    +0.040 A 
ATOM      5  C   UNL     1      -2.543  -2.102  -1.847  0.00  0.00    +0.033 A 
ATOM      6  C   UNL     1      -3.667  -2.214  -1.053  0.00  0.00    +0.042 A 
ATOM      7  C   UNL     1      -3.538  -2.472   0.303  0.00  0.00    +0.023 A 
ATOM      8  C   UNL     1      -2.291  -2.623   0.877  0.00  0.00    +0.048 A 
ATOM      9  C   UNL     1      -1.148  -2.519   0.099  0.00  0.00    +0.130 A 
ATOM     10  O   UNL     1       0.074  -2.683   0.659  0.00  0.00    -0.483 OA
ATOM     11 CL   UNL     1      -5.245  -2.031  -1.754  0.00  0.00    -0.084 Cl
ATOM     12  N   UNL     1      -0.015  -1.531  -3.220  0.00  0.00    -0.215 NA
ATOM     13  C   UNL     1       1.124  -1.252  -3.902  0.00  0.00    +0.249 A 
ATOM     14  N   UNL     1       1.292  -0.675  -5.087  0.00  0.00    -0.198 NA
ATOM     15  C   UNL     1       2.587  -0.567  -5.360  0.00  0.00    +0.247 A 
ATOM     16  N   UNL     1       3.283  -1.074  -4.374  0.00  0.00    -0.156 NA
ATOM     17  N   UNL     1       2.362  -1.543  -3.429  0.00  0.00    -0.221 N 
ATOM     18  C   UNL     1       2.526  -2.249  -2.150  0.00  0.00    +0.160 C 
ENDROOT
BRANCH   1  23
ATOM     19  C   UNL     1      -0.009   1.379  -0.140  0.00  0.00    +0.000 A 
ATOM     20  C   UNL     1       1.171   2.086   0.002  0.00  0.00    +0.001 A 
ATOM     21  C   UNL     1       2.369   1.411   0.136  0.00  0.00    +0.020 A 
ATOM     22  C   UNL     1       2.389   0.028   0.129  0.00  0.00    +0.048 A 
ATOM     23  C   UNL     1       1.208  -0.679  -0.013  0.00  0.00    +0.012 A 
ATOM     24  C   UNL     1       0.010  -0.003  -0.148  0.00  0.00    +0.009 A 
ATOM     25 CL   UNL     1       3.894  -0.821   0.297  0.00  0.00    -0.083 Cl
ENDBRANCH   1  23
BRANCH  18  26
ATOM     26  C   UNL     1       3.369  -3.474  -2.390  0.00  0.00    +0.015 A 
ATOM     27  C   UNL     1       4.609  -3.762  -1.924  0.00  0.00    +0.013 A 
ATOM     28  C   UNL     1       5.196  -4.962  -2.278  0.00  0.00    +0.008 A 
ATOM     29  C   UNL     1       4.515  -5.816  -3.081  0.00  0.00    +0.045 A 
ATOM     30  S   UNL     1       2.991  -4.927  -3.356  0.00  0.00    -0.099 S 
ENDBRANCH  18  26
TORSDOF 2
