REMARK  Name = ZINC33960792
REMARK  11 active torsions:
REMARK  status: ('A' for Active; 'I' for Inactive)
REMARK    1  A    between atoms: C_1  and  C_2
REMARK    2  A    between atoms: C_5  and  C_23
REMARK    3  A    between atoms: C_6  and  C_7
REMARK    4  A    between atoms: C_6  and  C_8
REMARK    5  A    between atoms: N_12  and  N_13
REMARK    6  A    between atoms: N_13  and  C_14
REMARK    7  A    between atoms: C_17  and  N_20
REMARK    8  A    between atoms: N_25  and  C_26
REMARK    9  A    between atoms: C_29  and  C_32
REMARK   10  A    between atoms: C_32  and  O_34
REMARK   11  A    between atoms: O_34  and  C_35
REMARK                            x       y       z     vdW  Elec       q    Type
REMARK                         _______ _______ _______ _____ _____    ______ ____
ROOT
ATOM      1  C   UNL     1      -0.033   1.526   0.018  0.00  0.00    +0.018 C 
ATOM      2  C   UNL     1      -0.011  -0.004   0.009  0.00  0.00    +0.022 C 
ATOM      3  C   UNL     1       0.716  -0.674  -1.198  0.00  0.00    +0.015 C 
ATOM      4  C   UNL     1       0.990  -2.119  -0.718  0.00  0.00    +0.026 C 
ATOM      5  C   UNL     1       0.397  -2.159   0.725  0.00  0.00    +0.117 C 
ATOM      6  C   UNL     1       0.723  -0.701   1.210  0.00  0.00    -0.003 C 
ATOM      7  C   UNL     1       0.084  -0.361   2.558  0.00  0.00    +0.013 C 
ATOM      8  C   UNL     1       2.229  -0.429   1.206  0.00  0.00    +0.013 C 
ATOM      9  C   UNL     1      -1.118  -2.041   0.513  0.00  0.00    +0.195 C 
ATOM     10  O   UNL     1      -1.944  -2.914   0.689  0.00  0.00    -0.290 OA
ATOM     11  C   UNL     1      -1.377  -0.700   0.086  0.00  0.00    +0.109 C 
ATOM     12  N   UNL     1      -2.538  -0.173  -0.204  0.00  0.00    -0.183 NA
ENDROOT
BRANCH   5  13
ATOM     13  C   UNL     1       0.874  -3.283   1.607  0.00  0.00    +0.232 C 
ATOM     14  O   UNL     1       1.462  -3.036   2.639  0.00  0.00    -0.274 OA
ATOM     15  N   UNL     1       0.648  -4.563   1.251  0.00  0.00    -0.285 N 
ATOM     16  H   UNL     1       0.120  -4.760   0.461  0.00  0.00    +0.155 HD
BRANCH  15  17
ATOM     17  C   UNL     1       1.172  -5.603   2.017  0.00  0.00    +0.033 A 
ATOM     18  C   UNL     1       1.257  -5.473   3.399  0.00  0.00    +0.024 A 
ATOM     19  C   UNL     1       1.773  -6.498   4.159  0.00  0.00    +0.017 A 
ATOM     20  C   UNL     1       2.213  -7.671   3.539  0.00  0.00    +0.059 A 
ATOM     21  C   UNL     1       2.126  -7.799   2.149  0.00  0.00    +0.017 A 
ATOM     22  C   UNL     1       1.603  -6.772   1.397  0.00  0.00    +0.024 A 
BRANCH  20  23
ATOM     23  C   UNL     1       2.768  -8.772   4.349  0.00  0.00    +0.339 C 
ATOM     24  O   UNL     1       2.843  -8.659   5.556  0.00  0.00    -0.245 OA
BRANCH  23  25
ATOM     25  O   UNL     1       3.191  -9.902   3.750  0.00  0.00    -0.464 OA
ATOM     26  C   UNL     1       3.717 -10.927   4.596  0.00  0.00    +0.280 C 
ENDBRANCH  23  25
ENDBRANCH  20  23
ENDBRANCH  15  17
ENDBRANCH   5  13
BRANCH  12  27
ATOM     27  N   UNL     1      -3.612  -0.879  -0.093  0.00  0.00    -0.237 N 
ATOM     28  H   UNL     1      -3.558  -1.800   0.206  0.00  0.00    +0.174 HD
BRANCH  27  29
ATOM     29  C   UNL     1      -4.851  -0.317  -0.402  0.00  0.00    +0.048 A 
ATOM     30  C   UNL     1      -4.929   1.001  -0.836  0.00  0.00    +0.027 A 
ATOM     31  C   UNL     1      -6.157   1.554  -1.141  0.00  0.00    +0.034 A 
ATOM     32  C   UNL     1      -7.309   0.798  -1.016  0.00  0.00    +0.126 A 
ATOM     33  C   UNL     1      -7.235  -0.514  -0.585  0.00  0.00    +0.034 A 
ATOM     34  C   UNL     1      -6.010  -1.076  -0.283  0.00  0.00    +0.027 A 
BRANCH  32  35
ATOM     35  N   UNL     1      -8.623   1.394  -1.345  0.00  0.00    +0.056 N 
ATOM     36  O   UNL     1      -8.689   2.541  -1.721  0.00  0.00    -0.126 OA
ATOM     37  O   UNL     1      -9.630   0.734  -1.236  0.00  0.00    -0.126 OA
ENDBRANCH  32  35
ENDBRANCH  27  29
ENDBRANCH  12  27
TORSDOF 7
