REMARK  Name = ZINC59484173
REMARK  8 active torsions:
REMARK  status: ('A' for Active; 'I' for Inactive)
REMARK    1  A    between atoms: C_1  and  C_2
REMARK    2  A    between atoms: C_2  and  C_36
REMARK    3  A    between atoms: C_6  and  C_17
REMARK    4  A    between atoms: C_11  and  C_15
REMARK    5  A    between atoms: C_11  and  C_16
REMARK    6  A    between atoms: C_21  and  O_23
REMARK    7  A    between atoms: O_23  and  S_24
REMARK    8  A    between atoms: S_24  and  C_27
REMARK                            x       y       z     vdW  Elec       q    Type
REMARK                         _______ _______ _______ _____ _____    ______ ____
ROOT
ATOM      1  C   UNL     1      -0.019   1.526   0.010  0.00  0.00    +0.011 C 
ATOM      2  C   UNL     1       0.002  -0.004   0.002  0.00  0.00    -0.023 C 
ATOM      3  C   UNL     1       0.739  -0.501  -1.244  0.00  0.00    +0.058 C 
ATOM      4  C   UNL     1       2.166  -0.011  -1.216  0.00  0.00    +0.016 C 
ATOM      5  C   UNL     1       2.811   0.185  -0.047  0.00  0.00    +0.024 C 
ATOM      6  C   UNL     1       4.235   0.675  -0.031  0.00  0.00    +0.089 C 
ATOM      7  C   UNL     1       4.902   0.467  -1.366  0.00  0.00    +0.024 C 
ATOM      8  C   UNL     1       4.166   0.257  -2.476  0.00  0.00    +0.016 C 
ATOM      9  N   UNL     1       2.800   0.231  -2.403  0.00  0.00    -0.320 N 
ATOM     10  C   UNL     1       4.823   0.043  -3.817  0.00  0.00    +0.058 C 
ATOM     11  C   UNL     1       6.145   0.813  -3.869  0.00  0.00    -0.023 C 
ATOM     12  C   UNL     1       7.038   0.323  -2.725  0.00  0.00    +0.086 C 
ATOM     13  C   UNL     1       6.307   0.500  -1.422  0.00  0.00    +0.162 C 
ATOM     14  O   UNL     1       6.942   0.675  -0.401  0.00  0.00    -0.292 OA
ATOM     15  C   UNL     1       5.874   2.310  -3.704  0.00  0.00    +0.011 C 
ATOM     16  C   UNL     1       6.837   0.556  -5.209  0.00  0.00    +0.011 C 
ATOM     17  C   UNL     1       2.173  -0.054   1.183  0.00  0.00    +0.162 C 
ATOM     18  O   UNL     1       2.789   0.114   2.217  0.00  0.00    -0.292 OA
ATOM     19  C   UNL     1       0.743  -0.516   1.242  0.00  0.00    +0.086 C 
ATOM     20  C   UNL     1      -1.432  -0.537   0.003  0.00  0.00    +0.011 C 
ATOM     21  H   UNL     1       2.275   0.387  -3.203  0.00  0.00    +0.152 HD
ENDROOT
BRANCH   6  22
ATOM     22  C   UNL     1       4.248   2.144   0.302  0.00  0.00    -0.032 A 
ATOM     23  C   UNL     1       3.584   3.043  -0.511  0.00  0.00    +0.005 A 
ATOM     24  C   UNL     1       3.594   4.392  -0.208  0.00  0.00    +0.004 A 
ATOM     25  C   UNL     1       4.268   4.845   0.910  0.00  0.00    +0.048 A 
ATOM     26  C   UNL     1       4.935   3.945   1.728  0.00  0.00    +0.157 A 
ATOM     27  C   UNL     1       4.919   2.591   1.424  0.00  0.00    +0.053 A 
BRANCH  26  28
ATOM     28  O   UNL     1       5.599   4.388   2.828  0.00  0.00    -0.342 OA
BRANCH  28  29
ATOM     29  S   UNL     1       4.749   4.427   4.090  0.00  0.00    +0.151 S 
ATOM     30  O   UNL     1       5.519   5.099   5.077  0.00  0.00    -0.131 OA
ATOM     31  O   UNL     1       3.459   4.873   3.697  0.00  0.00    -0.131 OA
BRANCH  29  32
ATOM     32  C   UNL     1       4.561   2.765   4.643  0.00  0.00    +0.128 A 
ATOM     33  C   UNL     1       3.500   2.002   4.192  0.00  0.00    +0.030 A 
ATOM     34  C   UNL     1       3.352   0.698   4.626  0.00  0.00    +0.002 A 
ATOM     35  C   UNL     1       4.266   0.156   5.511  0.00  0.00    +0.000 A 
ATOM     36  C   UNL     1       5.328   0.919   5.961  0.00  0.00    +0.002 A 
ATOM     37  C   UNL     1       5.478   2.221   5.524  0.00  0.00    +0.030 A 
ENDBRANCH  29  32
ENDBRANCH  28  29
ENDBRANCH  26  28
ENDBRANCH   6  22
TORSDOF 4
