REMARK  Name = ZINC00844848
REMARK  9 active torsions:
REMARK  status: ('A' for Active; 'I' for Inactive)
REMARK    1  A    between atoms: C_1  and  C_2
REMARK    2  A    between atoms: C_3  and  C_22
REMARK    3  A    between atoms: C_4  and  C_10
REMARK    4  A    between atoms: C_19  and  O_20
REMARK    5  A    between atoms: O_20  and  C_21
REMARK    6  A    between atoms: C_22  and  O_24
REMARK    7  A    between atoms: O_24  and  C_25
REMARK    8  A    between atoms: C_25  and  C_26
REMARK    9  A    between atoms: C_25  and  C_27
REMARK                            x       y       z     vdW  Elec       q    Type
REMARK                         _______ _______ _______ _____ _____    ______ ____
ROOT
ATOM      1  C   UNL     1      -0.397   4.373   0.597  0.00  0.00    +0.061 C 
ATOM      2  C   UNL     1      -1.575   3.479   0.308  0.00  0.00    +0.019 C 
ATOM      3  C   UNL     1      -1.363   2.189  -0.031  0.00  0.00    +0.078 C 
ATOM      4  C   UNL     1      -2.576   1.327  -0.318  0.00  0.00    +0.145 C 
ATOM      5  N   UNL     1      -3.895   1.968  -0.193  0.00  0.00    -0.315 N 
ATOM      6  C   UNL     1      -3.945   3.269   0.155  0.00  0.00    +0.135 C 
ATOM      7  S   UNL     1      -5.472   4.030   0.299  0.00  0.00    -0.019 S 
ATOM      8  N   UNL     1      -2.840   3.986   0.393  0.00  0.00    -0.300 N 
ATOM      9  H   UNL     1      -4.709   1.468  -0.361  0.00  0.00    +0.149 HD
ATOM     10  H   UNL     1      -2.943   4.919   0.640  0.00  0.00    +0.154 HD
ENDROOT
BRANCH   4  11
ATOM     11  C   UNL     1      -2.544   0.151   0.624  0.00  0.00    +0.027 A 
ATOM     12  C   UNL     1      -2.259  -1.136   0.139  0.00  0.00    -0.009 A 
ATOM     13  C   UNL     1      -1.998  -1.360  -1.224  0.00  0.00    +0.009 A 
ATOM     14  C   UNL     1      -1.725  -2.620  -1.659  0.00  0.00    +0.001 A 
ATOM     15  C   UNL     1      -1.699  -3.695  -0.773  0.00  0.00    +0.001 A 
ATOM     16  C   UNL     1      -1.946  -3.516   0.553  0.00  0.00    +0.008 A 
ATOM     17  C   UNL     1      -2.233  -2.230   1.040  0.00  0.00    -0.017 A 
ATOM     18  C   UNL     1      -2.493  -2.008   2.404  0.00  0.00    +0.012 A 
ATOM     19  C   UNL     1      -2.766  -0.750   2.842  0.00  0.00    +0.046 A 
ATOM     20  C   UNL     1      -2.787   0.332   1.956  0.00  0.00    +0.126 A 
BRANCH  20  21
ATOM     21  O   UNL     1      -3.057   1.578   2.425  0.00  0.00    -0.495 OA
ATOM     22  C   UNL     1      -3.302   1.705   3.827  0.00  0.00    +0.277 C 
ENDBRANCH  20  21
ENDBRANCH   4  11
BRANCH   3  23
ATOM     23  C   UNL     1      -0.054   1.662  -0.120  0.00  0.00    +0.339 C 
ATOM     24  O   UNL     1       0.908   2.394   0.023  0.00  0.00    -0.245 OA
BRANCH  23  25
ATOM     25  O   UNL     1       0.130   0.349  -0.370  0.00  0.00    -0.459 OA
BRANCH  25  26
ATOM     26  C   UNL     1       1.479  -0.114  -0.453  0.00  0.00    +0.171 C 
ATOM     27  C   UNL     1       1.548  -1.572   0.004  0.00  0.00    +0.052 C 
ATOM     28  C   UNL     1       1.966  -0.009  -1.899  0.00  0.00    +0.052 C 
ENDBRANCH  25  26
ENDBRANCH  23  25
ENDBRANCH   3  23
TORSDOF 5
