REMARK  Name = ZINC67205002
REMARK  10 active torsions:
REMARK  status: ('A' for Active; 'I' for Inactive)
REMARK    1  A    between atoms: C_1  and  C_2
REMARK    2  A    between atoms: C_2  and  O_3
REMARK    3  A    between atoms: O_3  and  C_4
REMARK    4  A    between atoms: C_4  and  C_6
REMARK    5  A    between atoms: C_7  and  C_21
REMARK    6  A    between atoms: C_12  and  C_14
REMARK    7  A    between atoms: C_21  and  N_22
REMARK    8  A    between atoms: N_25  and  C_28
REMARK    9  A    between atoms: C_30  and  C_35
REMARK   10  A    between atoms: C_33  and  C_34
REMARK                            x       y       z     vdW  Elec       q    Type
REMARK                         _______ _______ _______ _____ _____    ______ ____
ROOT
ATOM      1  C   UNL     1       1.282  -2.223  -2.544  0.00  0.00    +0.079 C 
ATOM      2  C   UNL     1       1.462  -3.561  -2.562  0.00  0.00    +0.038 C 
ATOM      3  N   UNL     1       2.155  -4.165  -3.571  0.00  0.00    -0.271 N 
ATOM      4  C   UNL     1       2.700  -3.502  -4.599  0.00  0.00    +0.304 C 
ATOM      5  O   UNL     1       3.300  -4.128  -5.451  0.00  0.00    -0.252 OA
ATOM      6  N   UNL     1       2.605  -2.163  -4.720  0.00  0.00    -0.288 N 
ATOM      7  C   UNL     1       1.870  -1.416  -3.684  0.00  0.00    +0.145 C 
ATOM      8  H   UNL     1       2.259  -5.129  -3.542  0.00  0.00    +0.156 HD
ATOM      9  H   UNL     1       3.007  -1.702  -5.472  0.00  0.00    +0.151 HD
ENDROOT
BRANCH   7  10
ATOM     10  C   UNL     1       0.745  -0.669  -4.354  0.00  0.00    -0.004 A 
ATOM     11  C   UNL     1       0.090  -1.229  -5.434  0.00  0.00    +0.007 A 
ATOM     12  C   UNL     1      -0.942  -0.544  -6.048  0.00  0.00    +0.000 A 
ATOM     13  C   UNL     1      -1.319   0.702  -5.582  0.00  0.00    +0.001 A 
ATOM     14  C   UNL     1      -0.664   1.263  -4.501  0.00  0.00    +0.020 A 
ATOM     15  C   UNL     1       0.365   0.575  -3.883  0.00  0.00    +0.046 A 
ATOM     16 CL   UNL     1       1.183   1.276  -2.521  0.00  0.00    -0.083 Cl
ENDBRANCH   7  10
BRANCH   1  17
ATOM     17  C   UNL     1       0.563  -1.595  -1.499  0.00  0.00    +0.339 C 
ATOM     18  O   UNL     1      -0.602  -1.284  -1.663  0.00  0.00    -0.245 OA
BRANCH  17  19
ATOM     19  O   UNL     1       1.170  -1.342  -0.321  0.00  0.00    -0.462 OA
BRANCH  19  21
ATOM     20  C   UNL     1       1.236  -0.502   1.944  0.00  0.00    +0.048 C 
ATOM     21  C   UNL     1       0.384  -0.706   0.689  0.00  0.00    +0.229 C 
ENDBRANCH  19  21
ENDBRANCH  17  19
ENDBRANCH   1  17
BRANCH   2  22
ATOM     22  C   UNL     1       0.889  -4.401  -1.450  0.00  0.00    +0.136 C 
BRANCH  22  23
ATOM     23  N   UNL     1      -0.134  -5.303  -1.995  0.00  0.00    -0.294 NA
ATOM     24  C   UNL     1      -1.288  -4.547  -2.501  0.00  0.00    +0.103 C 
ATOM     25  C   UNL     1      -2.245  -5.502  -3.221  0.00  0.00    +0.120 C 
ATOM     26  N   UNL     1      -2.578  -6.606  -2.307  0.00  0.00    -0.327 N 
ATOM     27  C   UNL     1      -1.474  -7.325  -1.653  0.00  0.00    +0.120 C 
ATOM     28  C   UNL     1      -0.546  -6.297  -0.995  0.00  0.00    +0.103 C 
BRANCH  26  29
ATOM     29  C   UNL     1      -3.907  -6.962  -2.067  0.00  0.00    +0.033 A 
ATOM     30  C   UNL     1      -4.526  -7.917  -2.864  0.00  0.00    +0.026 A 
ATOM     31  C   UNL     1      -5.840  -8.267  -2.623  0.00  0.00    -0.049 A 
ATOM     32  C   UNL     1      -6.540  -7.668  -1.591  0.00  0.00    +0.004 A 
ATOM     33  C   UNL     1      -5.926  -6.717  -0.797  0.00  0.00    +0.005 A 
ATOM     34  C   UNL     1      -4.610  -6.366  -1.028  0.00  0.00    -0.029 A 
ATOM     35  C   UNL     1      -3.940  -5.334  -0.158  0.00  0.00    +0.045 C 
ATOM     36  C   UNL     1      -6.513  -9.303  -3.486  0.00  0.00    +0.044 C 
ENDBRANCH  26  29
ENDBRANCH  22  23
ENDBRANCH   2  22
TORSDOF 7
