REMARK  Name = ZINC13570083
REMARK  8 active torsions:
REMARK  status: ('A' for Active; 'I' for Inactive)
REMARK    1  A    between atoms: C_1  and  C_2
REMARK    2  A    between atoms: C_2  and  C_4
REMARK    3  A    between atoms: C_2  and  S_17
REMARK    4  A    between atoms: N_6  and  C_7
REMARK    5  A    between atoms: C_10  and  S_13
REMARK    6  A    between atoms: S_13  and  N_16
REMARK    7  A    between atoms: S_17  and  C_18
REMARK    8  A    between atoms: C_24  and  C_26
REMARK                            x       y       z     vdW  Elec       q    Type
REMARK                         _______ _______ _______ _____ _____    ______ ____
ROOT
ATOM      1  C   UNL     1      -0.020   1.532  -0.003  0.00  0.00    +0.029 C 
ATOM      2  C   UNL     1       0.003   0.002   0.000  0.00  0.00    +0.137 C 
ENDROOT
BRANCH   2   3
ATOM      3  C   UNL     1       0.707  -0.492  -1.237  0.00  0.00    +0.230 C 
ATOM      4  O   UNL     1       0.066  -0.791  -2.222  0.00  0.00    -0.274 OA
ATOM      5  N   UNL     1       2.051  -0.601  -1.250  0.00  0.00    -0.285 N 
ATOM      6  H   UNL     1       2.569  -0.298  -0.487  0.00  0.00    +0.155 HD
BRANCH   5   7
ATOM      7  C   UNL     1       2.698  -1.150  -2.362  0.00  0.00    +0.034 A 
ATOM      8  C   UNL     1       3.837  -1.925  -2.191  0.00  0.00    +0.025 A 
ATOM      9  C   UNL     1       4.474  -2.466  -3.291  0.00  0.00    +0.030 A 
ATOM     10  C   UNL     1       3.978  -2.236  -4.561  0.00  0.00    +0.105 A 
ATOM     11  C   UNL     1       2.844  -1.464  -4.735  0.00  0.00    +0.030 A 
ATOM     12  C   UNL     1       2.199  -0.925  -3.638  0.00  0.00    +0.025 A 
BRANCH  10  13
ATOM     13  S   UNL     1       4.793  -2.927  -5.962  0.00  0.00    +0.056 S 
ATOM     14  O   UNL     1       4.447  -2.115  -7.075  0.00  0.00    -0.153 OA
ATOM     15  O   UNL     1       6.141  -3.156  -5.576  0.00  0.00    -0.153 OA
BRANCH  13  16
ATOM     16  N   UNL     1       4.120  -4.416  -6.235  0.00  0.00    -0.204 NA
ATOM     17  H   UNL     1       3.410  -4.740  -5.658  0.00  0.00    +0.144 HD
ATOM     18  H   UNL     1       4.435  -4.963  -6.971  0.00  0.00    +0.144 HD
ENDBRANCH  13  16
ENDBRANCH  10  13
ENDBRANCH   5   7
ENDBRANCH   2   3
BRANCH   2  19
ATOM     19  S   UNL     1      -1.698  -0.627   0.019  0.00  0.00    -0.075 S 
BRANCH  19  20
ATOM     20  C   UNL     1      -2.332  -0.095   1.575  0.00  0.00    +0.170 A 
ATOM     21  N   UNL     1      -3.612  -0.413   1.917  0.00  0.00    -0.302 N 
ATOM     22  H   UNL     1      -4.163  -0.927   1.306  0.00  0.00    +0.171 HD
ATOM     23  C   UNL     1      -4.114  -0.015   3.105  0.00  0.00    +0.253 A 
ATOM     24  O   UNL     1      -5.259  -0.296   3.420  0.00  0.00    -0.268 OA
ATOM     25  C   UNL     1      -3.298   0.728   3.970  0.00  0.00    +0.098 A 
ATOM     26  C   UNL     1      -2.002   1.025   3.573  0.00  0.00    +0.079 A 
ATOM     27  N   UNL     1      -1.558   0.597   2.384  0.00  0.00    -0.223 NA
BRANCH  26  28
ATOM     28  C   UNL     1      -1.112   1.807   4.462  0.00  0.00    +0.001 A 
ATOM     29  C   UNL     1      -1.571   2.243   5.705  0.00  0.00    +0.010 A 
ATOM     30  C   UNL     1      -0.737   2.971   6.529  0.00  0.00    +0.001 A 
ATOM     31  C   UNL     1       0.552   3.269   6.125  0.00  0.00    +0.000 A 
ATOM     32  C   UNL     1       1.013   2.840   4.893  0.00  0.00    +0.001 A 
ATOM     33  C   UNL     1       0.190   2.106   4.062  0.00  0.00    +0.010 A 
ENDBRANCH  26  28
ENDBRANCH  19  20
ENDBRANCH   2  19
TORSDOF 7
