REMARK  Name = ZINC23517036
REMARK  7 active torsions:
REMARK  status: ('A' for Active; 'I' for Inactive)
REMARK    1  A    between atoms: C_7  and  C_11
REMARK    2  A    between atoms: C_14  and  S_23
REMARK    3  A    between atoms: N_15  and  C_16
REMARK    4  A    between atoms: C_16  and  C_17
REMARK    5  A    between atoms: S_23  and  C_24
REMARK    6  A    between atoms: C_24  and  C_25
REMARK    7  A    between atoms: N_27  and  C_28
REMARK                            x       y       z     vdW  Elec       q    Type
REMARK                         _______ _______ _______ _____ _____    ______ ____
ROOT
ATOM      1  C   UNL     1      -2.379   0.544   1.551  0.00  0.00    +0.167 A 
ATOM      2  N   UNL     1      -3.679   0.580   1.367  0.00  0.00    -0.128 NA
ATOM      3  N   UNL     1      -4.023   1.721   0.885  0.00  0.00    -0.122 NA
ATOM      4  C   UNL     1      -2.966   2.485   0.736  0.00  0.00    +0.192 A 
ATOM      5  N   UNL     1      -1.881   1.762   1.149  0.00  0.00    -0.300 N 
ENDROOT
BRANCH   1  12
ATOM      6  C   UNL     1      -2.251  -4.014   0.513  0.00  0.00    +0.001 A 
ATOM      7  C   UNL     1      -1.345  -4.715   1.296  0.00  0.00    +0.002 A 
ATOM      8  C   UNL     1      -0.593  -4.066   2.251  0.00  0.00    +0.026 A 
ATOM      9  C   UNL     1      -0.751  -2.697   2.442  0.00  0.00    +0.047 A 
ATOM     10  C   UNL     1      -1.672  -1.994   1.648  0.00  0.00    +0.010 A 
ATOM     11  C   UNL     1      -2.417  -2.668   0.682  0.00  0.00    +0.011 A 
ATOM     12  C   UNL     1      -1.600  -0.590   2.087  0.00  0.00    +0.044 A 
ATOM     13  C   UNL     1      -0.680  -0.542   3.086  0.00  0.00    +0.095 A 
ATOM     14  N   UNL     1      -0.171  -1.790   3.303  0.00  0.00    -0.360 N 
ATOM     15  H   UNL     1       0.586  -2.125   4.027  0.00  0.00    +0.165 HD
ENDBRANCH   1  12
BRANCH   5  16
ATOM     16  C   UNL     1      -0.482   2.195   1.166  0.00  0.00    +0.157 C 
BRANCH  16  17
ATOM     17  C   UNL     1       0.213   1.726  -0.115  0.00  0.00    +0.138 C 
ATOM     18  C   UNL     1       1.681   2.222  -0.142  0.00  0.00    +0.035 C 
ATOM     19  C   UNL     1       2.330   1.167  -1.080  0.00  0.00    +0.031 C 
ATOM     20  C   UNL     1       1.540  -0.112  -0.731  0.00  0.00    +0.160 C 
ATOM     21  O   UNL     1       0.300   0.293  -0.138  0.00  0.00    -0.375 OA
ENDBRANCH  16  17
ENDBRANCH   5  16
BRANCH   4  22
ATOM     22  S   UNL     1      -2.948   4.135   0.117  0.00  0.00    -0.077 S 
BRANCH  22  23
ATOM     23  C   UNL     1      -4.715   4.371  -0.200  0.00  0.00    +0.173 C 
BRANCH  23  24
ATOM     24  C   UNL     1      -4.946   5.754  -0.751  0.00  0.00    +0.228 C 
ATOM     25  O   UNL     1      -4.008   6.507  -0.913  0.00  0.00    -0.275 OA
ATOM     26  N   UNL     1      -6.194   6.155  -1.063  0.00  0.00    -0.283 N 
ATOM     27  H   UNL     1      -7.053   5.510  -0.830  0.00  0.00    +0.155 HD
BRANCH  26  28
ATOM     28  C   UNL     1      -6.396   7.391  -1.682  0.00  0.00    +0.062 A 
ATOM     29  C   UNL     1      -5.400   7.956  -2.417  0.00  0.00    +0.025 A 
ATOM     30  C   UNL     1      -5.570   9.187  -3.047  0.00  0.00    +0.004 A 
ATOM     31  C   UNL     1      -6.732   9.877  -2.956  0.00  0.00    +0.031 A 
ATOM     32  C   UNL     1      -7.817   9.352  -2.206  0.00  0.00    +0.102 A 
ATOM     33  C   UNL     1      -7.647   8.059  -1.549  0.00  0.00    +0.121 A 
ATOM     34  N   UNL     1      -8.736   7.692  -0.879  0.00  0.00    -0.189 NA
ATOM     35  S   UNL     1      -9.787   8.835  -1.091  0.00  0.00    +0.117 S 
ATOM     36  N   UNL     1      -9.027   9.865  -1.994  0.00  0.00    -0.191 NA
ENDBRANCH  26  28
ENDBRANCH  23  24
ENDBRANCH  22  23
ENDBRANCH   4  22
TORSDOF 7
