REMARK  Name = ZINC27229522
REMARK  3 active torsions:
REMARK  status: ('A' for Active; 'I' for Inactive)
REMARK    1  A    between atoms: C_4  and  N_7
REMARK    2  A    between atoms: C_18  and  C_19
REMARK    3  A    between atoms: C_23  and  O_25
REMARK                            x       y       z     vdW  Elec       q    Type
REMARK                         _______ _______ _______ _____ _____    ______ ____
ROOT
ATOM      1  N   UNL     1      -3.005   4.091  -2.058  0.00  0.00    -0.327 N 
ATOM      2  C   UNL     1      -1.656   4.607  -1.790  0.00  0.00    +0.124 C 
ATOM      3  C   UNL     1      -0.622   3.705  -2.472  0.00  0.00    +0.125 C 
ATOM      4  N   UNL     1      -0.855   2.319  -2.040  0.00  0.00    -0.308 N 
ATOM      5  C   UNL     1      -2.215   1.772  -2.157  0.00  0.00    +0.125 C 
ATOM      6  C   UNL     1      -3.188   2.752  -1.481  0.00  0.00    +0.124 C 
ATOM      7  C   UNL     1       0.170   1.555  -1.548  0.00  0.00    +0.154 C 
ATOM      8  N   UNL     1       1.441   1.889  -1.391  0.00  0.00    -0.154 NA
ATOM      9  C   UNL     1       2.335   1.056  -0.907  0.00  0.00    +0.276 C 
ATOM     10  O   UNL     1       3.504   1.375  -0.766  0.00  0.00    -0.267 OA
ATOM     11  C   UNL     1       1.843  -0.296  -0.543  0.00  0.00    +0.079 C 
ATOM     12  C   UNL     1       2.515  -1.355  -0.029  0.00  0.00    +0.028 C 
ATOM     13  S   UNL     1       0.115  -0.134  -0.972  0.00  0.00    -0.052 S 
ENDROOT
BRANCH   1  17
ATOM     14  C   UNL     1      -5.916   6.723  -0.668  0.00  0.00    +0.000 A 
ATOM     15  C   UNL     1      -6.290   5.545  -1.287  0.00  0.00    +0.002 A 
ATOM     16  C   UNL     1      -5.328   4.670  -1.749  0.00  0.00    +0.023 A 
ATOM     17  C   UNL     1      -3.982   4.974  -1.592  0.00  0.00    +0.030 A 
ATOM     18  C   UNL     1      -3.608   6.156  -0.966  0.00  0.00    +0.023 A 
ATOM     19  C   UNL     1      -4.577   7.030  -0.510  0.00  0.00    +0.002 A 
ENDBRANCH   1  17
BRANCH  12  20
ATOM     20  C   UNL     1       1.852  -2.663   0.082  0.00  0.00    -0.020 A 
ATOM     21  C   UNL     1       2.477  -3.711   0.767  0.00  0.00    +0.008 A 
ATOM     22  C   UNL     1       1.849  -4.934   0.872  0.00  0.00    +0.004 A 
ATOM     23  C   UNL     1       0.608  -5.132   0.294  0.00  0.00    +0.045 A 
ATOM     24  C   UNL     1      -0.018  -4.100  -0.393  0.00  0.00    +0.117 A 
ATOM     25  C   UNL     1       0.598  -2.866  -0.502  0.00  0.00    +0.053 A 
BRANCH  24  26
ATOM     26  O   UNL     1      -1.237  -4.303  -0.959  0.00  0.00    -0.507 OA
ATOM     27  H   UNL     1      -1.733  -3.485  -1.503  0.00  0.00    +0.292 HD
ENDBRANCH  24  26
ENDBRANCH  12  20
TORSDOF 3
