REMARK  Name = ZINC13395528
REMARK  3 active torsions:
REMARK  status: ('A' for Active; 'I' for Inactive)
REMARK    1  A    between atoms: C_4  and  C_7
REMARK    2  A    between atoms: C_8  and  C_9
REMARK    3  A    between atoms: N_23  and  C_26
REMARK                            x       y       z     vdW  Elec       q    Type
REMARK                         _______ _______ _______ _____ _____    ______ ____
ROOT
ATOM      1  C   UNL     1       5.033  -2.743  -0.063  0.00  0.00    +0.093 C 
ATOM      2  C   UNL     1       5.146  -3.646   1.152  0.00  0.00    +0.110 C 
ATOM      3  C   UNL     1       4.467  -4.934   0.549  0.00  0.00    +0.107 C 
ATOM      4  C   UNL     1       5.176  -5.061  -0.746  0.00  0.00    +0.080 C 
ATOM      5  N   UNL     1       5.106  -3.648  -1.257  0.00  0.00    -0.282 NA
ATOM      6  C   UNL     1       3.871  -3.397  -2.054  0.00  0.00    +0.155 C 
ATOM      7  S   UNL     1       3.749  -4.985  -2.982  0.00  0.00    -0.144 S 
ATOM      8  C   UNL     1       4.467  -6.085  -1.668  0.00  0.00    +0.090 C 
ATOM      9  C   UNL     1       4.185  -5.703   1.732  0.00  0.00    +0.232 C 
ATOM     10  O   UNL     1       4.197  -6.910   1.846  0.00  0.00    -0.274 OA
ATOM     11  N   UNL     1       3.899  -4.775   2.703  0.00  0.00    -0.210 N 
ATOM     12  C   UNL     1       4.241  -3.485   2.333  0.00  0.00    +0.232 C 
ATOM     13  O   UNL     1       3.896  -2.445   2.851  0.00  0.00    -0.274 OA
ENDROOT
BRANCH  11  14
ATOM     14  C   UNL     1       3.320  -5.097   3.939  0.00  0.00    +0.044 A 
ATOM     15  C   UNL     1       3.009  -6.416   4.238  0.00  0.00    +0.025 A 
ATOM     16  C   UNL     1       2.438  -6.731   5.456  0.00  0.00    +0.022 A 
ATOM     17  C   UNL     1       2.178  -5.732   6.378  0.00  0.00    +0.041 A 
ATOM     18  C   UNL     1       2.487  -4.416   6.082  0.00  0.00    +0.022 A 
ATOM     19  C   UNL     1       3.063  -4.098   4.868  0.00  0.00    +0.025 A 
ATOM     20 CL   UNL     1       1.461  -6.131   7.908  0.00  0.00    -0.084 Cl
ENDBRANCH  11  14
BRANCH   1  22
ATOM     21  C   UNL     1       3.687  -0.695  -0.208  0.00  0.00    +0.005 C 
ATOM     22  C   UNL     1       3.716  -2.010  -0.046  0.00  0.00    -0.007 C 
BRANCH  21  26
ATOM     23  C   UNL     1      -0.025   1.369  -0.160  0.00  0.00    +0.000 A 
ATOM     24  C   UNL     1       1.152   2.072  -0.344  0.00  0.00    +0.001 A 
ATOM     25  C   UNL     1       2.361   1.408  -0.361  0.00  0.00    +0.008 A 
ATOM     26  C   UNL     1       2.395   0.023  -0.191  0.00  0.00    -0.025 A 
ATOM     27  C   UNL     1       1.205  -0.680  -0.004  0.00  0.00    +0.008 A 
ATOM     28  C   UNL     1       0.002  -0.004   0.010  0.00  0.00    +0.001 A 
ENDBRANCH  21  26
ENDBRANCH   1  22
TORSDOF 3
