REMARK  Name = ZINC39409607
REMARK  5 active torsions:
REMARK  status: ('A' for Active; 'I' for Inactive)
REMARK    1  A    between atoms: C_4  and  C_7
REMARK    2  A    between atoms: C_11  and  S_19
REMARK    3  A    between atoms: N_12  and  C_13
REMARK    4  A    between atoms: S_19  and  C_20
REMARK    5  A    between atoms: C_20  and  C_21
REMARK                            x       y       z     vdW  Elec       q    Type
REMARK                         _______ _______ _______ _____ _____    ______ ____
ROOT
ATOM      1  C   UNL     1       3.638  -0.674  -0.096  0.00  0.00    +0.208 C 
ATOM      2  N   UNL     1       4.643   0.006  -0.931  0.00  0.00    -0.242 N 
ATOM      3  N   UNL     1       5.060  -0.934  -1.882  0.00  0.00    -0.162 NA
ATOM      4  C   UNL     1       4.451  -2.061  -1.731  0.00  0.00    +0.176 C 
ATOM      5  N   UNL     1       3.556  -2.029  -0.668  0.00  0.00    -0.282 N 
ATOM      6  H   UNL     1       4.954   0.920  -0.840  0.00  0.00    +0.170 HD
ENDROOT
BRANCH   1  10
ATOM      7  C   UNL     1      -0.137   1.304  -0.381  0.00  0.00    +0.000 A 
ATOM      8  C   UNL     1       0.546   0.949  -1.530  0.00  0.00    +0.000 A 
ATOM      9  C   UNL     1       1.768   0.309  -1.437  0.00  0.00    +0.007 A 
ATOM     10  C   UNL     1       2.307   0.024  -0.197  0.00  0.00    -0.008 A 
ATOM     11  C   UNL     1       1.624   0.380   0.952  0.00  0.00    +0.007 A 
ATOM     12  C   UNL     1       0.402   1.019   0.859  0.00  0.00    +0.000 A 
ENDBRANCH   1  10
BRANCH   5  13
ATOM     13  C   UNL     1       2.698  -3.124  -0.207  0.00  0.00    +0.077 C 
ATOM     14  C   UNL     1       3.568  -4.311   0.212  0.00  0.00    +0.022 C 
ATOM     15  C   UNL     1       2.672  -5.454   0.693  0.00  0.00    +0.002 C 
ATOM     16  C   UNL     1       1.738  -5.882  -0.440  0.00  0.00    +0.000 C 
ATOM     17  C   UNL     1       0.868  -4.695  -0.860  0.00  0.00    +0.002 C 
ATOM     18  C   UNL     1       1.764  -3.551  -1.341  0.00  0.00    +0.022 C 
ENDBRANCH   5  13
BRANCH   4  19
ATOM     19  S   UNL     1       4.723  -3.474  -2.749  0.00  0.00    -0.081 S 
BRANCH  19  20
ATOM     20  C   UNL     1       5.977  -2.923  -3.938  0.00  0.00    +0.151 C 
BRANCH  20  21
ATOM     21  C   UNL     1       6.306  -4.052  -4.880  0.00  0.00    +0.118 A 
ATOM     22  N   UNL     1       5.698  -4.282  -6.008  0.00  0.00    -0.232 NA
ATOM     23  C   UNL     1       6.242  -5.374  -6.605  0.00  0.00    +0.089 A 
ATOM     24  C   UNL     1       5.983  -6.048  -7.801  0.00  0.00    +0.030 A 
ATOM     25  C   UNL     1       6.722  -7.147  -8.137  0.00  0.00    +0.002 A 
ATOM     26  C   UNL     1       7.732  -7.603  -7.302  0.00  0.00    +0.002 A 
ATOM     27  C   UNL     1       8.005  -6.954  -6.117  0.00  0.00    +0.028 A 
ATOM     28  C   UNL     1       7.265  -5.836  -5.759  0.00  0.00    +0.066 A 
ATOM     29  N   UNL     1       7.284  -4.975  -4.679  0.00  0.00    -0.341 N 
ATOM     30  H   UNL     1       7.883  -5.022  -3.917  0.00  0.00    +0.167 HD
ENDBRANCH  20  21
ENDBRANCH  19  20
ENDBRANCH   4  19
TORSDOF 5
