REMARK  Name = ZINC16569829
REMARK  7 active torsions:
REMARK  status: ('A' for Active; 'I' for Inactive)
REMARK    1  A    between atoms: C_1  and  C_2
REMARK    2  A    between atoms: C_2  and  C_3
REMARK    3  A    between atoms: C_8  and  N_9
REMARK    4  A    between atoms: N_12  and  C_13
REMARK    5  A    between atoms: N_12  and  C_36
REMARK    6  A    between atoms: C_13  and  C_14
REMARK    7  A    between atoms: C_28  and  C_30
REMARK                            x       y       z     vdW  Elec       q    Type
REMARK                         _______ _______ _______ _____ _____    ______ ____
ROOT
ATOM      1  C   UNL     1      -0.291   1.450   3.257  0.00  0.00    +0.238 C 
ATOM      2  O   UNL     1       0.703   2.101   3.013  0.00  0.00    -0.273 OA
ATOM      3  N   UNL     1      -0.453   0.900   4.477  0.00  0.00    -0.255 N 
ATOM      4  C   UNL     1       0.469   1.173   5.496  0.00  0.00    +0.061 A 
ATOM      5  C   UNL     1       1.791   1.460   5.192  0.00  0.00    +0.025 A 
ATOM      6  C   UNL     1       2.688   1.737   6.207  0.00  0.00    +0.002 A 
ATOM      7  C   UNL     1       2.276   1.732   7.527  0.00  0.00    +0.002 A 
ATOM      8  C   UNL     1       0.959   1.444   7.842  0.00  0.00    +0.028 A 
ATOM      9  C   UNL     1       0.059   1.161   6.834  0.00  0.00    +0.068 A 
ATOM     10  N   UNL     1      -1.279   0.839   7.105  0.00  0.00    -0.316 N 
ATOM     11  C   UNL     1      -1.995   0.972   8.247  0.00  0.00    +0.092 A 
ATOM     12  C   UNL     1      -3.250   0.528   8.011  0.00  0.00    +0.020 A 
ATOM     13  C   UNL     1      -3.306   0.102   6.665  0.00  0.00    +0.025 A 
ATOM     14  C   UNL     1      -2.094   0.299   6.134  0.00  0.00    +0.049 A 
ATOM     15  C   UNL     1      -1.602   0.017   4.739  0.00  0.00    +0.159 C 
ENDROOT
BRANCH  15  16
ATOM     16  C   UNL     1      -1.174  -1.424   4.634  0.00  0.00    -0.021 A 
ATOM     17  C   UNL     1       0.052  -1.818   5.135  0.00  0.00    +0.006 A 
ATOM     18  C   UNL     1       0.444  -3.141   5.043  0.00  0.00    +0.000 A 
ATOM     19  C   UNL     1      -0.388  -4.067   4.442  0.00  0.00    +0.000 A 
ATOM     20  C   UNL     1      -1.612  -3.672   3.937  0.00  0.00    +0.000 A 
ATOM     21  C   UNL     1      -2.005  -2.350   4.032  0.00  0.00    +0.006 A 
ENDBRANCH  15  16
BRANCH   1  22
ATOM     22  C   UNL     1      -1.344   1.256   2.197  0.00  0.00    +0.205 C 
BRANCH  22  26
ATOM     23  N   UNL     1      -0.819   3.653  -0.539  0.00  0.00    -0.269 N 
ATOM     24  C   UNL     1      -1.160   3.136   0.658  0.00  0.00    +0.307 C 
ATOM     25  O   UNL     1      -1.717   3.832   1.485  0.00  0.00    -0.252 OA
ATOM     26  N   UNL     1      -0.884   1.847   0.938  0.00  0.00    -0.274 N 
ATOM     27  H   UNL     1      -0.398   3.091  -1.208  0.00  0.00    +0.156 HD
BRANCH  23  33
ATOM     28  C   UNL     1      -0.373   5.647  -1.827  0.00  0.00    -0.026 A 
ATOM     29  C   UNL     1      -0.625   6.977  -2.099  0.00  0.00    +0.005 A 
ATOM     30  C   UNL     1      -1.575   7.666  -1.367  0.00  0.00    +0.000 A 
ATOM     31  C   UNL     1      -2.274   7.025  -0.360  0.00  0.00    +0.002 A 
ATOM     32  C   UNL     1      -2.029   5.694  -0.086  0.00  0.00    +0.023 A 
ATOM     33  C   UNL     1      -1.073   5.001  -0.817  0.00  0.00    +0.038 A 
BRANCH  28  35
ATOM     34  C   UNL     1      -0.022   4.154  -3.776  0.00  0.00    +0.009 C 
ATOM     35  C   UNL     1       0.662   4.897  -2.627  0.00  0.00    +0.033 C 
ENDBRANCH  28  35
ENDBRANCH  23  33
BRANCH  26  36
ATOM     36  C   UNL     1      -0.124   1.036  -0.016  0.00  0.00    +0.078 C 
ATOM     37  C   UNL     1       0.405  -0.316   0.468  0.00  0.00    +0.024 C 
ATOM     38  C   UNL     1      -0.768  -0.260  -0.513  0.00  0.00    +0.024 C 
ENDBRANCH  26  36
ENDBRANCH  22  26
ENDBRANCH   1  22
TORSDOF 6
