REMARK  Name = ZINC39443786
REMARK  7 active torsions:
REMARK  status: ('A' for Active; 'I' for Inactive)
REMARK    1  A    between atoms: C_1  and  C_2
REMARK    2  A    between atoms: C_7  and  C_12
REMARK    3  A    between atoms: C_12  and  C_30
REMARK    4  A    between atoms: C_13  and  C_14
REMARK    5  A    between atoms: C_19  and  O_20
REMARK    6  A    between atoms: O_20  and  C_21
REMARK    7  A    between atoms: C_21  and  C_22
REMARK                            x       y       z     vdW  Elec       q    Type
REMARK                         _______ _______ _______ _____ _____    ______ ____
ROOT
ATOM      1  C   UNL     1      -1.019  -5.644   1.413  0.00  0.00    +0.072 C 
ATOM      2  C   UNL     1      -1.020  -6.294   2.595  0.00  0.00    +0.030 C 
ENDROOT
BRANCH   1   9
ATOM      3  C   UNL     1       0.086  -0.694  -3.395  0.00  0.00    +0.044 C 
ATOM      4  C   UNL     1       0.267  -1.949  -2.581  0.00  0.00    -0.048 A 
ATOM      5  C   UNL     1       0.824  -3.082  -3.202  0.00  0.00    +0.005 A 
ATOM      6  C   UNL     1       1.021  -4.245  -2.549  0.00  0.00    +0.027 A 
ATOM      7  C   UNL     1       0.645  -4.354  -1.133  0.00  0.00    +0.060 A 
ATOM      8  N   UNL     1       0.716  -5.327  -0.271  0.00  0.00    -0.359 N 
ATOM      9  C   UNL     1       0.180  -4.828   1.002  0.00  0.00    +0.216 C 
ATOM     10  N   UNL     1      -0.215  -3.433   0.766  0.00  0.00    -0.359 N 
ATOM     11  C   UNL     1       0.055  -3.155  -0.476  0.00  0.00    +0.061 A 
ATOM     12  C   UNL     1      -0.107  -1.940  -1.286  0.00  0.00    +0.030 A 
ATOM     13  H   UNL     1       1.061  -6.218  -0.439  0.00  0.00    +0.162 HD
ATOM     14  H   UNL     1      -0.605  -2.830   1.418  0.00  0.00    +0.162 HD
ENDBRANCH   1   9
BRANCH   2  15
ATOM     15  C   UNL     1      -2.240  -6.965   3.065  0.00  0.00    +0.018 A 
ATOM     16  C   UNL     1      -3.498  -6.432   2.760  0.00  0.00    +0.011 A 
ATOM     17  C   UNL     1      -4.637  -7.067   3.204  0.00  0.00    +0.001 A 
ATOM     18  C   UNL     1      -4.545  -8.230   3.951  0.00  0.00    +0.004 A 
ATOM     19  C   UNL     1      -3.309  -8.767   4.259  0.00  0.00    +0.046 A 
ATOM     20  C   UNL     1      -2.152  -8.147   3.817  0.00  0.00    +0.128 A 
BRANCH  20  21
ATOM     21  O   UNL     1      -0.938  -8.677   4.114  0.00  0.00    -0.487 OA
BRANCH  21  22
ATOM     22  C   UNL     1      -0.927  -9.881   4.882  0.00  0.00    +0.266 C 
BRANCH  22  23
ATOM     23  C   UNL     1       0.497 -10.317   5.112  0.00  0.00    +0.008 A 
ATOM     24  C   UNL     1       1.540  -9.566   4.604  0.00  0.00    +0.010 A 
ATOM     25  C   UNL     1       2.847  -9.965   4.814  0.00  0.00    +0.020 A 
ATOM     26  C   UNL     1       3.111 -11.117   5.534  0.00  0.00    +0.042 A 
ATOM     27  C   UNL     1       2.068 -11.869   6.043  0.00  0.00    +0.040 A 
ATOM     28  C   UNL     1       0.761 -11.466   5.836  0.00  0.00    +0.049 A 
ATOM     29 CL   UNL     1      -0.549 -12.406   6.480  0.00  0.00    -0.083 Cl
ATOM     30 CL   UNL     1       4.752 -11.618   5.798  0.00  0.00    -0.083 Cl
ENDBRANCH  22  23
ENDBRANCH  21  22
ENDBRANCH  20  21
ENDBRANCH   2  15
BRANCH   1  31
ATOM     31  C   UNL     1      -2.158  -5.729   0.548  0.00  0.00    +0.099 C 
ATOM     32  N   UNL     1      -3.061  -5.797  -0.138  0.00  0.00    -0.191 NA
ENDBRANCH   1  31
TORSDOF 6
