REMARK  Name = ZINC13322126
REMARK  5 active torsions:
REMARK  status: ('A' for Active; 'I' for Inactive)
REMARK    1  A    between atoms: C_9  and  C_12
REMARK    2  A    between atoms: C_10  and  O_11
REMARK    3  A    between atoms: N_14  and  N_15
REMARK    4  A    between atoms: C_16  and  C_17
REMARK    5  A    between atoms: C_20  and  C_23
REMARK                            x       y       z     vdW  Elec       q    Type
REMARK                         _______ _______ _______ _____ _____    ______ ____
ROOT
ATOM      1  C   UNL     1       1.089   7.427   0.028  0.00  0.00    +0.267 C 
ATOM      2  O   UNL     1       0.033   8.031   0.041  0.00  0.00    -0.268 OA
ATOM      3  N   UNL     1       2.253   8.106   0.020  0.00  0.00    -0.203 N 
ATOM      4  H   UNL     1       3.095   7.624   0.010  0.00  0.00    +0.178 HD
ENDROOT
BRANCH   1  13
ATOM      5  C   UNL     1      -0.013   1.076   0.008  0.00  0.00    +0.001 A 
ATOM      6  C   UNL     1      -1.234   1.745   0.017  0.00  0.00    +0.001 A 
ATOM      7  C   UNL     1      -1.286   3.106   0.030  0.00  0.00    +0.012 A 
ATOM      8  C   UNL     1      -0.093   3.848   0.023  0.00  0.00    +0.024 A 
ATOM      9  C   UNL     1       1.150   3.167   0.008  0.00  0.00    -0.014 A 
ATOM     10  C   UNL     1       1.163   1.763   0.000  0.00  0.00    +0.008 A 
ATOM     11  C   UNL     1       2.350   3.904  -0.000  0.00  0.00    +0.009 A 
ATOM     12  C   UNL     1       2.318   5.260   0.006  0.00  0.00    +0.017 A 
ATOM     13  C   UNL     1       1.095   5.955   0.021  0.00  0.00    +0.080 A 
ATOM     14  C   UNL     1      -0.112   5.257   0.029  0.00  0.00    +0.137 A 
BRANCH  14  15
ATOM     15  O   UNL     1      -1.289   5.926   0.043  0.00  0.00    -0.505 OA
ATOM     16  H   UNL     1      -1.623   6.116   0.931  0.00  0.00    +0.292 HD
ENDBRANCH  14  15
ENDBRANCH   1  13
BRANCH   3  17
ATOM     17  N   UNL     1       2.248   9.507   0.027  0.00  0.00    -0.187 NA
ATOM     18  C   UNL     1       3.369  10.160   0.019  0.00  0.00    +0.138 C 
BRANCH  18  19
ATOM     19  C   UNL     1       3.364  11.635   0.026  0.00  0.00    -0.005 A 
ATOM     20  C   UNL     1       2.153  12.332   0.035  0.00  0.00    +0.010 A 
ATOM     21  C   UNL     1       2.155  13.711   0.046  0.00  0.00    +0.013 A 
ATOM     22  C   UNL     1       3.353  14.404   0.039  0.00  0.00    +0.055 A 
ATOM     23  C   UNL     1       4.556  13.721   0.025  0.00  0.00    +0.013 A 
ATOM     24  C   UNL     1       4.569  12.341   0.018  0.00  0.00    +0.010 A 
BRANCH  22  25
ATOM     25  C   UNL     1       3.347  15.911   0.045  0.00  0.00    +0.417 C 
ATOM     26  F   UNL     1       3.333  16.384  -1.271  0.00  0.00    -0.166 F 
ATOM     27  F   UNL     1       2.209  16.370   0.718  0.00  0.00    -0.166 F 
ATOM     28  F   UNL     1       4.493  16.379   0.696  0.00  0.00    -0.166 F 
ENDBRANCH  22  25
ENDBRANCH  18  19
ENDBRANCH   3  17
TORSDOF 5
