REMARK  Name = ZINC02753937
REMARK  5 active torsions:
REMARK  status: ('A' for Active; 'I' for Inactive)
REMARK    1  A    between atoms: C_1  and  C_2
REMARK    2  A    between atoms: C_4  and  C_22
REMARK    3  A    between atoms: N_5  and  C_7
REMARK    4  A    between atoms: C_7  and  C_8
REMARK    5  A    between atoms: C_11  and  C_13
REMARK                            x       y       z     vdW  Elec       q    Type
REMARK                         _______ _______ _______ _____ _____    ______ ____
ROOT
ATOM      1  C   UNL     1       1.456   6.650   2.348  0.00  0.00    +0.127 A 
ATOM      2  C   UNL     1       2.591   7.051   1.734  0.00  0.00    +0.047 A 
ATOM      3  C   UNL     1       2.708   6.303   0.552  0.00  0.00    +0.055 A 
ATOM      4  C   UNL     1       1.625   5.472   0.505  0.00  0.00    +0.190 A 
ATOM      5  O   UNL     1       0.875   5.702   1.602  0.00  0.00    -0.453 OA
ENDROOT
BRANCH   4   6
ATOM      6  C   UNL     1       1.328   4.504  -0.556  0.00  0.00    +0.282 C 
ATOM      7  O   UNL     1       2.139   4.300  -1.439  0.00  0.00    -0.267 OA
ATOM      8  N   UNL     1       0.155   3.840  -0.552  0.00  0.00    -0.295 N 
ATOM      9  C   UNL     1      -0.142   2.922  -1.669  0.00  0.00    +0.108 C 
ATOM     10  C   UNL     1      -0.783   1.608  -1.186  0.00  0.00    +0.019 C 
ATOM     11  C   UNL     1      -0.111   1.139   0.080  0.00  0.00    +0.002 C 
ATOM     12  C   UNL     1      -0.861   1.693   1.287  0.00  0.00    +0.002 C 
ATOM     13  C   UNL     1      -0.455   3.049   1.683  0.00  0.00    +0.019 C 
ATOM     14  C   UNL     1      -0.760   4.056   0.546  0.00  0.00    +0.108 C 
ENDBRANCH   4   6
BRANCH   1  15
ATOM     15  C   UNL     1       0.929   7.186   3.655  0.00  0.00    +0.218 C 
BRANCH  15  20
ATOM     16  C   UNL     1      -3.204   9.874   2.712  0.00  0.00    +0.068 C 
ATOM     17  C   UNL     1      -1.774   9.482   2.982  0.00  0.00    +0.074 A 
ATOM     18  C   UNL     1      -0.685  10.357   3.066  0.00  0.00    +0.061 A 
ATOM     19  C   UNL     1       0.421   9.621   3.325  0.00  0.00    +0.051 A 
ATOM     20  N   UNL     1       0.046   8.325   3.394  0.00  0.00    -0.260 N 
ATOM     21  N   UNL     1      -1.336   8.264   3.178  0.00  0.00    -0.175 NA
ATOM     22  C   UNL     1       1.820  10.152   3.503  0.00  0.00    +0.066 C 
ATOM     23 BR   UNL     1      -0.749  12.235   2.861  0.00  0.00    -0.047 Br
ENDBRANCH  15  20
ENDBRANCH   1  15
TORSDOF 3
