REMARK  Name = ZINC16161855
REMARK  11 active torsions:
REMARK  status: ('A' for Active; 'I' for Inactive)
REMARK    1  A    between atoms: C_1  and  C_2
REMARK    2  A    between atoms: C_2  and  C_3
REMARK    3  A    between atoms: C_6  and  N_9
REMARK    4  A    between atoms: N_9  and  C_10
REMARK    5  A    between atoms: C_16  and  C_17
REMARK    6  A    between atoms: C_20  and  O_26
REMARK    7  A    between atoms: C_22  and  O_23
REMARK    8  A    between atoms: O_23  and  C_24
REMARK    9  A    between atoms: C_24  and  C_25
REMARK   10  A    between atoms: O_26  and  C_27
REMARK   11  A    between atoms: C_27  and  C_28
REMARK                            x       y       z     vdW  Elec       q    Type
REMARK                         _______ _______ _______ _____ _____    ______ ____
ROOT
ATOM      1  C   UNL     1      -3.528   3.194   7.229  0.00  0.00    +0.224 C 
ATOM      2  N   UNL     1      -4.314   3.706   6.095  0.00  0.00    -0.284 N 
ATOM      3  C   UNL     1      -3.856   3.494   4.874  0.00  0.00    +0.252 C 
ATOM      4  O   UNL     1      -4.474   3.900   3.907  0.00  0.00    -0.270 OA
ATOM      5  C   UNL     1      -2.593   2.761   4.694  0.00  0.00    +0.074 C 
ATOM      6  C   UNL     1      -1.957   2.441   3.541  0.00  0.00    +0.031 C 
ATOM      7  S   UNL     1      -2.110   2.394   6.375  0.00  0.00    -0.078 S 
ATOM      8  H   UNL     1      -5.145   4.186   6.239  0.00  0.00    +0.152 HD
ENDROOT
BRANCH   6   9
ATOM      9  C   UNL     1      -0.616   1.845   3.583  0.00  0.00    +0.019 A 
ATOM     10  C   UNL     1       0.162   1.944   4.744  0.00  0.00    +0.030 A 
ATOM     11  C   UNL     1       1.421   1.388   4.777  0.00  0.00    +0.060 A 
ATOM     12  C   UNL     1       1.923   0.724   3.662  0.00  0.00    +0.138 A 
ATOM     13  C   UNL     1       1.159   0.615   2.509  0.00  0.00    +0.093 A 
ATOM     14  C   UNL     1      -0.108   1.168   2.462  0.00  0.00    +0.131 A 
ATOM     15 BR   UNL     1       2.472   1.529   6.342  0.00  0.00    -0.046 Br
BRANCH  14  16
ATOM     16  O   UNL     1      -0.856   1.062   1.334  0.00  0.00    -0.492 OA
BRANCH  16  17
ATOM     17  C   UNL     1      -0.273   0.366   0.231  0.00  0.00    +0.226 C 
ATOM     18  C   UNL     1      -1.257   0.349  -0.940  0.00  0.00    +0.048 C 
ENDBRANCH  16  17
ENDBRANCH  14  16
BRANCH  12  19
ATOM     19  O   UNL     1       3.166   0.178   3.703  0.00  0.00    -0.491 OA
BRANCH  19  20
ATOM     20  C   UNL     1       3.621  -0.490   2.525  0.00  0.00    +0.226 C 
ATOM     21  C   UNL     1       5.031  -1.035   2.759  0.00  0.00    +0.048 C 
ENDBRANCH  19  20
ENDBRANCH  12  19
ENDBRANCH   6   9
BRANCH   1  22
ATOM     22  N   UNL     1      -4.295   2.209   7.996  0.00  0.00    -0.317 N 
ATOM     23  H   UNL     1      -5.098   1.818   7.617  0.00  0.00    +0.149 HD
BRANCH  22  27
ATOM     24  C   UNL     1      -3.030   1.091  11.802  0.00  0.00    -0.048 A 
ATOM     25  C   UNL     1      -4.175   0.532  11.263  0.00  0.00    +0.005 A 
ATOM     26  C   UNL     1      -4.597   0.901  10.001  0.00  0.00    +0.023 A 
ATOM     27  C   UNL     1      -3.871   1.834   9.273  0.00  0.00    +0.029 A 
ATOM     28  C   UNL     1      -2.719   2.390   9.815  0.00  0.00    +0.023 A 
ATOM     29  C   UNL     1      -2.305   2.021  11.080  0.00  0.00    +0.005 A 
BRANCH  24  31
ATOM     30  C   UNL     1      -1.628  -0.513  13.070  0.00  0.00    +0.009 C 
ATOM     31  C   UNL     1      -2.572   0.686  13.179  0.00  0.00    +0.032 C 
ENDBRANCH  24  31
ENDBRANCH  22  27
ENDBRANCH   1  22
TORSDOF 8
