REMARK  Name = ZINC21532223
REMARK  10 active torsions:
REMARK  status: ('A' for Active; 'I' for Inactive)
REMARK    1  A    between atoms: C_6  and  O_7
REMARK    2  A    between atoms: O_7  and  C_8
REMARK    3  A    between atoms: C_8  and  C_9
REMARK    4  A    between atoms: C_12  and  S_15
REMARK    5  A    between atoms: N_13  and  N_14
REMARK    6  A    between atoms: S_15  and  C_16
REMARK    7  A    between atoms: C_16  and  C_17
REMARK    8  A    between atoms: C_17  and  C_18
REMARK    9  A    between atoms: N_20  and  C_21
REMARK   10  A    between atoms: C_22  and  C_30
REMARK                            x       y       z     vdW  Elec       q    Type
REMARK                         _______ _______ _______ _____ _____    ______ ____
ROOT
ATOM      1  S   UNL     1      -3.409  10.354  -5.297  0.00  0.00    -0.084 S 
ENDROOT
BRANCH   1   5
ATOM      2  C   UNL     1      -4.186  10.429  -9.119  0.00  0.00    +0.189 A 
ATOM      3  N   UNL     1      -3.883   9.178  -8.918  0.00  0.00    -0.128 NA
ATOM      4  N   UNL     1      -3.592   8.988  -7.680  0.00  0.00    -0.121 NA
ATOM      5  C   UNL     1      -3.703  10.116  -7.018  0.00  0.00    +0.208 A 
ATOM      6  N   UNL     1      -4.082  11.072  -7.917  0.00  0.00    -0.225 N 
BRANCH   6   7
ATOM      7  N   UNL     1      -4.310  12.395  -7.667  0.00  0.00    -0.295 N 
ATOM      8  H   UNL     1      -4.191  12.791  -6.647  0.00  0.00    +0.163 HD
ATOM      9  H   UNL     1      -4.614  13.065  -8.484  0.00  0.00    +0.163 HD
ENDBRANCH   6   7
BRANCH   2  10
ATOM     10  C   UNL     1      -4.579  11.052 -10.434  0.00  0.00    +0.306 C 
BRANCH  10  11
ATOM     11  O   UNL     1      -3.409  11.521 -11.107  0.00  0.00    -0.484 OA
BRANCH  11  17
ATOM     12  C   UNL     1      -4.865  12.236 -12.847  0.00  0.00    +0.048 A 
ATOM     13  C   UNL     1      -5.047  12.844 -14.074  0.00  0.00    +0.042 A 
ATOM     14  C   UNL     1      -3.955  13.321 -14.780  0.00  0.00    +0.124 A 
ATOM     15  C   UNL     1      -2.680  13.194 -14.255  0.00  0.00    +0.042 A 
ATOM     16  C   UNL     1      -2.496  12.592 -13.025  0.00  0.00    +0.048 A 
ATOM     17  C   UNL     1      -3.589  12.114 -12.317  0.00  0.00    +0.121 A 
ATOM     18  F   UNL     1      -4.134  13.911 -15.982  0.00  0.00    -0.205 F 
ENDBRANCH  11  17
ENDBRANCH  10  11
ENDBRANCH   2  10
ENDBRANCH   1   5
BRANCH   1  19
ATOM     19  C   UNL     1      -2.960   8.667  -4.819  0.00  0.00    +0.086 C 
BRANCH  19  20
ATOM     20  C   UNL     1      -2.653   8.627  -3.320  0.00  0.00    +0.107 C 
BRANCH  20  21
ATOM     21  C   UNL     1      -2.279   7.222  -2.922  0.00  0.00    +0.218 C 
ATOM     22  O   UNL     1      -2.260   6.341  -3.755  0.00  0.00    -0.275 OA
ATOM     23  N   UNL     1      -1.965   6.946  -1.641  0.00  0.00    -0.279 N 
ATOM     24  H   UNL     1      -1.982   7.746  -0.886  0.00  0.00    +0.155 HD
BRANCH  23  25
ATOM     25  C   UNL     1      -1.621   5.653  -1.274  0.00  0.00    +0.090 A 
ATOM     26  C   UNL     1      -1.271   5.177  -0.019  0.00  0.00    +0.084 A 
ATOM     27  C   UNL     1      -0.951   3.765   0.100  0.00  0.00    -0.018 A 
ATOM     28  C   UNL     1      -1.032   3.059  -1.049  0.00  0.00    -0.004 A 
ATOM     29  S   UNL     1      -1.524   4.240  -2.273  0.00  0.00    -0.077 S 
ATOM     30  C   UNL     1      -0.761   1.597  -1.232  0.00  0.00    +0.043 C 
ATOM     31  C   UNL     1      -0.013   1.086   0.008  0.00  0.00    +0.005 C 
ATOM     32  C   UNL     1      -0.735   1.583   1.264  0.00  0.00    +0.005 C 
ATOM     33  C   UNL     1      -0.551   3.094   1.407  0.00  0.00    +0.037 C 
BRANCH  26  34
ATOM     34  C   UNL     1      -1.226   6.046   1.118  0.00  0.00    +0.102 C 
ATOM     35  N   UNL     1      -1.191   6.736   2.020  0.00  0.00    -0.191 NA
ENDBRANCH  26  34
ENDBRANCH  23  25
ENDBRANCH  20  21
ENDBRANCH  19  20
ENDBRANCH   1  19
TORSDOF 10
