REMARK  Name = ZINC44881416
REMARK  6 active torsions:
REMARK  status: ('A' for Active; 'I' for Inactive)
REMARK    1  A    between atoms: C_5  and  C_7
REMARK    2  A    between atoms: C_7  and  N_8
REMARK    3  A    between atoms: C_11  and  N_15
REMARK    4  A    between atoms: C_17  and  S_18
REMARK    5  A    between atoms: S_18  and  C_19
REMARK    6  A    between atoms: C_19  and  C_20
REMARK                            x       y       z     vdW  Elec       q    Type
REMARK                         _______ _______ _______ _____ _____    ______ ____
ROOT
ATOM      1  N   UNL     1       1.369  -2.680   1.350  0.00  0.00    -0.299 N 
ATOM      2  C   UNL     1       2.551  -2.935   2.007  0.00  0.00    +0.166 A 
ATOM      3  C   UNL     1       2.197  -3.388   3.288  0.00  0.00    +0.148 A 
ATOM      4  C   UNL     1       3.227  -3.725   4.181  0.00  0.00    +0.147 A 
ATOM      5  N   UNL     1       4.486  -3.599   3.773  0.00  0.00    -0.219 NA
ATOM      6  C   UNL     1       4.771  -3.168   2.558  0.00  0.00    +0.225 A 
ATOM      7  N   UNL     1       3.837  -2.841   1.688  0.00  0.00    -0.216 NA
ATOM      8  N   UNL     1       0.842  -3.390   3.355  0.00  0.00    -0.217 NA
ATOM      9  C   UNL     1       0.350  -2.969   2.216  0.00  0.00    +0.172 A 
ENDROOT
BRANCH   4  10
ATOM     10  N   UNL     1       2.938  -4.177   5.458  0.00  0.00    -0.341 N 
ATOM     11  H   UNL     1       2.016  -4.264   5.745  0.00  0.00    +0.144 HD
ATOM     12  H   UNL     1       3.659  -4.407   6.066  0.00  0.00    +0.144 HD
ENDBRANCH   4  10
BRANCH   1  13
ATOM     13  C   UNL     1       1.229  -2.186  -0.022  0.00  0.00    +0.162 C 
BRANCH  13  18
ATOM     14  C   UNL     1      -0.017   1.378   0.010  0.00  0.00    +0.000 A 
ATOM     15  C   UNL     1       1.171   2.086   0.002  0.00  0.00    +0.001 A 
ATOM     16  C   UNL     1       2.377   1.412  -0.013  0.00  0.00    +0.020 A 
ATOM     17  C   UNL     1       2.397   0.029  -0.021  0.00  0.00    +0.046 A 
ATOM     18  C   UNL     1       1.208  -0.679  -0.013  0.00  0.00    -0.009 A 
ATOM     19  C   UNL     1       0.002  -0.004   0.002  0.00  0.00    +0.007 A 
ATOM     20 CL   UNL     1       3.912  -0.818  -0.041  0.00  0.00    -0.083 Cl
ENDBRANCH  13  18
ENDBRANCH   1  13
BRANCH   9  21
ATOM     21  S   UNL     1      -1.367  -2.803   1.853  0.00  0.00    -0.078 S 
BRANCH  21  22
ATOM     22  C   UNL     1      -2.191  -3.332   3.379  0.00  0.00    +0.172 C 
BRANCH  22  23
ATOM     23  C   UNL     1      -3.685  -3.237   3.202  0.00  0.00    +0.221 C 
ATOM     24  O   UNL     1      -4.147  -2.851   2.150  0.00  0.00    -0.275 OA
ATOM     25  N   UNL     1      -4.507  -3.581   4.213  0.00  0.00    -0.329 N 
ATOM     26  H   UNL     1      -4.137  -3.890   5.055  0.00  0.00    +0.145 HD
ATOM     27  H   UNL     1      -5.468  -3.520   4.099  0.00  0.00    +0.145 HD
ENDBRANCH  22  23
ENDBRANCH  21  22
ENDBRANCH   9  21
TORSDOF 6
