REMARK  Name = ZINC13549962
REMARK  7 active torsions:
REMARK  status: ('A' for Active; 'I' for Inactive)
REMARK    1  A    between atoms: C_1  and  C_2
REMARK    2  A    between atoms: N_4  and  C_26
REMARK    3  A    between atoms: C_8  and  C_9
REMARK    4  A    between atoms: C_8  and  N_15
REMARK    5  A    between atoms: N_15  and  N_16
REMARK    6  A    between atoms: C_17  and  C_19
REMARK    7  A    between atoms: C_24  and  O_25
REMARK                            x       y       z     vdW  Elec       q    Type
REMARK                         _______ _______ _______ _____ _____    ______ ____
ROOT
ATOM      1  C   UNL     1      -0.709   1.649   0.318  0.00  0.00    +0.068 C 
ATOM      2  C   UNL     1      -0.660   0.155   0.126  0.00  0.00    +0.071 C 
ATOM      3  N   UNL     1      -1.014  -0.495  -0.943  0.00  0.00    -0.176 NA
ATOM      4  N   UNL     1      -0.830  -1.867  -0.755  0.00  0.00    -0.156 N 
ATOM      5  C   UNL     1      -0.341  -2.096   0.479  0.00  0.00    +0.274 C 
ATOM      6  O   UNL     1      -0.067  -3.183   0.962  0.00  0.00    -0.268 OA
ATOM      7  C   UNL     1      -0.199  -0.831   1.108  0.00  0.00    +0.084 C 
ATOM      8  C   UNL     1       0.280  -0.578   2.398  0.00  0.00    +0.065 C 
ENDROOT
BRANCH   8   9
ATOM      9  C   UNL     1       0.565  -1.699   3.311  0.00  0.00    -0.002 A 
ATOM     10  C   UNL     1      -0.140  -1.823   4.512  0.00  0.00    +0.010 A 
ATOM     11  C   UNL     1       0.132  -2.875   5.361  0.00  0.00    +0.001 A 
ATOM     12  C   UNL     1       1.099  -3.807   5.027  0.00  0.00    +0.000 A 
ATOM     13  C   UNL     1       1.801  -3.691   3.840  0.00  0.00    +0.001 A 
ATOM     14  C   UNL     1       1.536  -2.648   2.977  0.00  0.00    +0.010 A 
ENDBRANCH   8   9
BRANCH   4  15
ATOM     15  C   UNL     1      -1.112  -2.855  -1.706  0.00  0.00    +0.060 A 
ATOM     16  C   UNL     1      -0.894  -4.193  -1.405  0.00  0.00    +0.025 A 
ATOM     17  C   UNL     1      -1.174  -5.165  -2.346  0.00  0.00    +0.002 A 
ATOM     18  C   UNL     1      -1.670  -4.808  -3.586  0.00  0.00    +0.000 A 
ATOM     19  C   UNL     1      -1.888  -3.476  -3.889  0.00  0.00    +0.002 A 
ATOM     20  C   UNL     1      -1.616  -2.500  -2.951  0.00  0.00    +0.025 A 
ENDBRANCH   4  15
BRANCH   8  21
ATOM     21  N   UNL     1       0.484   0.707   2.811  0.00  0.00    -0.263 N 
ATOM     22  H   UNL     1       0.374   1.440   2.185  0.00  0.00    +0.170 HD
BRANCH  21  23
ATOM     23  N   UNL     1       0.851   0.966   4.138  0.00  0.00    -0.232 N 
ATOM     24  C   UNL     1       1.013   2.237   4.556  0.00  0.00    +0.264 C 
ATOM     25  O   UNL     1       0.750   3.161   3.810  0.00  0.00    -0.269 OA
ATOM     26  H   UNL     1       0.990   0.231   4.755  0.00  0.00    +0.173 HD
BRANCH  24  27
ATOM     27  C   UNL     1       1.508   2.508   5.919  0.00  0.00    +0.079 A 
ATOM     28  C   UNL     1       1.918   1.455   6.740  0.00  0.00    +0.017 A 
ATOM     29  C   UNL     1       2.379   1.714   8.012  0.00  0.00    +0.001 A 
ATOM     30  C   UNL     1       2.438   3.016   8.482  0.00  0.00    +0.004 A 
ATOM     31  C   UNL     1       2.036   4.067   7.681  0.00  0.00    +0.046 A 
ATOM     32  C   UNL     1       1.574   3.824   6.396  0.00  0.00    +0.129 A 
BRANCH  32  33
ATOM     33  O   UNL     1       1.184   4.856   5.606  0.00  0.00    -0.506 OA
ATOM     34  H   UNL     1       0.248   5.083   5.690  0.00  0.00    +0.292 HD
ENDBRANCH  32  33
ENDBRANCH  24  27
ENDBRANCH  21  23
ENDBRANCH   8  21
TORSDOF 6
