REMARK  Name = ZINC63270268
REMARK  12 active torsions:
REMARK  status: ('A' for Active; 'I' for Inactive)
REMARK    1  A    between atoms: C_1  and  C_2
REMARK    2  A    between atoms: C_2  and  C_4
REMARK    3  A    between atoms: C_2  and  N_18
REMARK    4  A    between atoms: N_6  and  C_7
REMARK    5  A    between atoms: C_7  and  C_8
REMARK    6  A    between atoms: C_8  and  C_9
REMARK    7  A    between atoms: C_19  and  C_21
REMARK    8  A    between atoms: C_24  and  O_33
REMARK    9  A    between atoms: C_27  and  O_31
REMARK   10  A    between atoms: N_29  and  C_30
REMARK   11  A    between atoms: O_31  and  C_32
REMARK   12  A    between atoms: O_33  and  C_34
REMARK                            x       y       z     vdW  Elec       q    Type
REMARK                         _______ _______ _______ _____ _____    ______ ____
ROOT
ATOM      1  C   UNL     1      -0.307   0.637  -0.435  0.00  0.00    +0.038 C 
ATOM      2  C   UNL     1      -0.185  -0.867  -0.181  0.00  0.00    +0.156 C 
ENDROOT
BRANCH   2   3
ATOM      3  C   UNL     1       0.528  -1.516  -1.339  0.00  0.00    +0.233 C 
ATOM      4  O   UNL     1       1.570  -2.109  -1.154  0.00  0.00    -0.274 OA
ATOM      5  N   UNL     1       0.009  -1.436  -2.580  0.00  0.00    -0.313 N 
ATOM      6  H   UNL     1      -0.824  -0.961  -2.728  0.00  0.00    +0.149 HD
BRANCH   5   7
ATOM      7  C   UNL     1       0.702  -2.067  -3.706  0.00  0.00    +0.108 C 
BRANCH   7   8
ATOM      8  C   UNL     1      -0.093  -1.830  -4.992  0.00  0.00    +0.052 C 
BRANCH   8   9
ATOM      9  C   UNL     1       0.620  -2.479  -6.150  0.00  0.00    -0.040 C 
ATOM     10  C   UNL     1       0.385  -3.707  -6.665  0.00  0.00    -0.001 A 
ATOM     11  C   UNL     1      -0.569  -4.766  -6.314  0.00  0.00    +0.010 A 
ATOM     12  C   UNL     1      -0.567  -5.914  -7.029  0.00  0.00    +0.001 A 
ATOM     13  C   UNL     1       0.321  -6.117  -8.095  0.00  0.00    +0.002 A 
ATOM     14  C   UNL     1       1.225  -5.191  -8.477  0.00  0.00    +0.026 A 
ATOM     15  C   UNL     1       1.311  -3.946  -7.795  0.00  0.00    +0.043 A 
ATOM     16  N   UNL     1       2.089  -2.906  -7.971  0.00  0.00    -0.380 N 
ATOM     17  C   UNL     1       1.740  -1.886  -6.976  0.00  0.00    +0.144 C 
ATOM     18  H   UNL     1       2.778  -2.823  -8.649  0.00  0.00    +0.160 HD
ENDBRANCH   8   9
ENDBRANCH   7   8
ENDBRANCH   5   7
ENDBRANCH   2   3
BRANCH   2  19
ATOM     19  N   UNL     1       0.576  -1.093   1.050  0.00  0.00    -0.299 N 
ATOM     20  C   UNL     1      -0.050  -1.074   2.243  0.00  0.00    +0.261 C 
ATOM     21  O   UNL     1      -1.227  -0.769   2.307  0.00  0.00    -0.269 OA
ATOM     22  H   UNL     1       1.531  -1.258   1.007  0.00  0.00    +0.150 HD
BRANCH  20  23
ATOM     23  C   UNL     1       0.687  -1.420   3.466  0.00  0.00    +0.105 A 
ATOM     24  C   UNL     1       2.015  -1.700   3.534  0.00  0.00    +0.044 A 
ATOM     25  C   UNL     1       2.329  -1.980   4.884  0.00  0.00    +0.046 A 
ATOM     26  C   UNL     1       3.521  -2.329   5.544  0.00  0.00    +0.129 A 
ATOM     27  C   UNL     1       3.509  -2.546   6.906  0.00  0.00    +0.050 A 
ATOM     28  C   UNL     1       2.329  -2.423   7.628  0.00  0.00    +0.051 A 
ATOM     29  C   UNL     1       1.150  -2.082   6.996  0.00  0.00    +0.144 A 
ATOM     30  C   UNL     1       1.136  -1.857   5.619  0.00  0.00    +0.095 A 
ATOM     31  N   UNL     1       0.142  -1.507   4.733  0.00  0.00    -0.336 N 
ATOM     32  C   UNL     1      -1.263  -1.270   5.077  0.00  0.00    +0.149 C 
BRANCH  29  33
ATOM     33  O   UNL     1       0.001  -1.966   7.716  0.00  0.00    -0.493 OA
ATOM     34  C   UNL     1       0.089  -2.210   9.122  0.00  0.00    +0.277 C 
ENDBRANCH  29  33
BRANCH  26  35
ATOM     35  O   UNL     1       4.679  -2.451   4.844  0.00  0.00    -0.494 OA
ATOM     36  C   UNL     1       5.850  -2.807   5.582  0.00  0.00    +0.277 C 
ENDBRANCH  26  35
ENDBRANCH  20  23
ENDBRANCH   2  19
TORSDOF 8
