REMARK  Name = ZINC03840742
REMARK  12 active torsions:
REMARK  status: ('A' for Active; 'I' for Inactive)
REMARK    1  A    between atoms: C_1  and  C_2
REMARK    2  A    between atoms: C_10  and  C_12
REMARK    3  A    between atoms: C_12  and  C_13
REMARK    4  A    between atoms: C_13  and  C_14
REMARK    5  A    between atoms: C_13  and  C_15
REMARK    6  A    between atoms: C_13  and  C_16
REMARK    7  A    between atoms: C_18  and  C_39
REMARK    8  A    between atoms: C_21  and  O_38
REMARK    9  A    between atoms: C_23  and  C_27
REMARK   10  A    between atoms: C_27  and  C_29
REMARK   11  A    between atoms: C_27  and  C_30
REMARK   12  A    between atoms: C_37  and  N_79
REMARK                            x       y       z     vdW  Elec       q    Type
REMARK                         _______ _______ _______ _____ _____    ______ ____
ROOT
ATOM      1  C   UNL     1       2.809   2.620  -1.800  0.00  0.00    +0.014 C 
ATOM      2  C   UNL     1       1.494   2.139  -1.181  0.00  0.00    +0.042 C 
ATOM      3  C   UNL     1       1.200   0.724  -1.655  0.00  0.00    +0.057 A 
ATOM      4  C   UNL     1      -0.066   0.370  -1.995  0.00  0.00    +0.015 A 
ATOM      5  S   UNL     1       0.117  -1.333  -2.455  0.00  0.00    -0.057 S 
ATOM      6  C   UNL     1       1.828  -1.447  -2.169  0.00  0.00    +0.165 A 
ATOM      7  N   UNL     1       2.121  -0.230  -1.761  0.00  0.00    -0.229 NA
ATOM      8  N   UNL     1       2.670  -2.541  -2.330  0.00  0.00    -0.265 N 
ATOM      9  C   UNL     1       2.172  -3.716  -2.764  0.00  0.00    +0.219 C 
ATOM     10  O   UNL     1       0.989  -3.818  -3.014  0.00  0.00    -0.275 OA
ATOM     11  C   UNL     1      -1.285   1.223  -1.981  0.00  0.00    +0.051 C 
ATOM     12  C   UNL     1      -0.993   2.501  -1.169  0.00  0.00    -0.022 C 
ATOM     13  C   UNL     1       0.355   3.073  -1.612  0.00  0.00    +0.033 C 
ATOM     14  C   UNL     1       0.597   4.431  -0.944  0.00  0.00    +0.123 C 
ATOM     15  C   UNL     1      -0.530   5.402  -1.290  0.00  0.00    +0.029 C 
ATOM     16  C   UNL     1      -1.852   4.827  -0.773  0.00  0.00    +0.007 C 
ATOM     17  C   UNL     1      -2.117   3.496  -1.474  0.00  0.00    +0.008 C 
ATOM     18  C   UNL     1      -0.962   2.191   0.330  0.00  0.00    +0.012 C 
ATOM     19  H   UNL     1       3.615  -2.459  -2.130  0.00  0.00    +0.157 HD
ENDROOT
BRANCH  15  20
ATOM     20  C   UNL     1      -0.606   5.578  -2.808  0.00  0.00    +0.078 C 
ATOM     21  C   UNL     1       0.669   6.262  -3.307  0.00  0.00    +0.017 C 
BRANCH  20  22
ATOM     22  C   UNL     1      -1.801   6.428  -3.156  0.00  0.00    +0.219 C 
ATOM     23  O   UNL     1      -2.246   7.210  -2.343  0.00  0.00    -0.275 OA
ATOM     24  N   UNL     1      -2.374   6.320  -4.371  0.00  0.00    -0.305 N 
ATOM     25  C   UNL     1      -1.913   5.311  -5.336  0.00  0.00    +0.089 C 
ATOM     26  C   UNL     1      -3.136   4.524  -5.833  0.00  0.00    -0.060 C 
ATOM     27  C   UNL     1      -4.633   6.353  -5.289  0.00  0.00    -0.060 C 
ATOM     28  C   UNL     1      -3.475   7.211  -4.768  0.00  0.00    +0.089 C 
ATOM     29  C   UNL     1      -5.249   4.747  -6.993  0.00  0.00    -0.096 C 
ATOM     30  N   UNL     1      -4.127   5.480  -6.371  0.00  0.00    +0.380 N 
ATOM     31  H   UNL     1      -3.673   6.063  -7.084  0.00  0.00    -0.082 HD
ENDBRANCH  20  22
ENDBRANCH  15  20
BRANCH  14  32
ATOM     32  O   UNL     1       1.838   4.969  -1.403  0.00  0.00    -0.391 OA
ATOM     33  H   UNL     1       2.058   5.830  -1.021  0.00  0.00    +0.210 HD
ENDBRANCH  14  32
BRANCH   9  34
ATOM     34  C   UNL     1       3.084  -4.903  -2.939  0.00  0.00    +0.102 C 
BRANCH  34  35
ATOM     35  C   UNL     1       2.273  -6.101  -3.438  0.00  0.00    -0.029 C 
ATOM     36  C   UNL     1       1.625  -5.754  -4.779  0.00  0.00    +0.011 C 
ATOM     37  C   UNL     1       3.200  -7.305  -3.615  0.00  0.00    +0.011 C 
ATOM     38  C   UNL     1       1.185  -6.440  -2.418  0.00  0.00    +0.011 C 
ENDBRANCH  34  35
ENDBRANCH   9  34
TORSDOF 5
