REMARK  Name = ZINC39533219
REMARK  12 active torsions:
REMARK  status: ('A' for Active; 'I' for Inactive)
REMARK    1  A    between atoms: C_1  and  C_2
REMARK    2  A    between atoms: C_2  and  C_3
REMARK    3  A    between atoms: C_3  and  C_4
REMARK    4  A    between atoms: C_7  and  C_10
REMARK    5  A    between atoms: C_10  and  C_12
REMARK    6  A    between atoms: C_10  and  N_21
REMARK    7  A    between atoms: C_12  and  N_13
REMARK    8  A    between atoms: N_13  and  C_14
REMARK    9  A    between atoms: C_19  and  O_20
REMARK   10  A    between atoms: C_25  and  S_28
REMARK   11  A    between atoms: S_28  and  O_31
REMARK   12  A    between atoms: O_31  and  C_32
REMARK                            x       y       z     vdW  Elec       q    Type
REMARK                         _______ _______ _______ _____ _____    ______ ____
ROOT
ATOM      1  C   UNL     1       0.830  -6.217   1.262  0.00  0.00    +0.104 C 
ENDROOT
BRANCH   1   2
ATOM      2  N   UNL     1       2.251  -6.554   1.423  0.00  0.00    -0.296 NA
ATOM      3  C   UNL     1       2.481  -7.988   1.198  0.00  0.00    +0.066 C 
ATOM      4  C   UNL     1       3.978  -8.285   1.316  0.00  0.00    -0.064 C 
ATOM      5  N   UNL     1       4.449  -7.901   2.653  0.00  0.00    +0.398 N 
ATOM      6  C   UNL     1       4.235  -6.462   2.854  0.00  0.00    +0.130 C 
ATOM      7  C   UNL     1       2.741  -6.149   2.748  0.00  0.00    +0.095 C 
ATOM      8  H   UNL     1       3.937  -8.418   3.352  0.00  0.00    -0.083 HD
ATOM      9  H   UNL     1       5.433  -8.109   2.735  0.00  0.00    -0.083 HD
BRANCH   6  10
ATOM     10  S   UNL     1       4.838  -5.985   4.497  0.00  0.00    +0.109 S 
ATOM     11  O   UNL     1       4.802  -4.571   4.640  0.00  0.00    -0.138 OA
ATOM     12  O   UNL     1       4.270  -6.828   5.491  0.00  0.00    -0.138 OA
BRANCH  10  13
ATOM     13  O   UNL     1       6.318  -6.337   4.488  0.00  0.00    -0.347 OA
BRANCH  13  14
ATOM     14  C   UNL     1       7.087  -5.477   3.771  0.00  0.00    +0.156 A 
ATOM     15  C   UNL     1       7.310  -5.705   2.420  0.00  0.00    +0.048 A 
ATOM     16  C   UNL     1       8.091  -4.829   1.693  0.00  0.00    +0.004 A 
ATOM     17  C   UNL     1       8.652  -3.725   2.309  0.00  0.00    +0.000 A 
ATOM     18  C   UNL     1       8.432  -3.496   3.655  0.00  0.00    +0.004 A 
ATOM     19  C   UNL     1       7.646  -4.366   4.385  0.00  0.00    +0.048 A 
ENDBRANCH  13  14
ENDBRANCH  10  13
ENDBRANCH   6  10
ENDBRANCH   1   2
BRANCH   1  23
ATOM     20  C   UNL     1       0.300  -2.008   1.756  0.00  0.00    -0.047 A 
ATOM     21  C   UNL     1      -0.625  -2.888   2.286  0.00  0.00    +0.004 A 
ATOM     22  C   UNL     1      -0.454  -4.250   2.126  0.00  0.00    +0.005 A 
ATOM     23  C   UNL     1       0.642  -4.732   1.435  0.00  0.00    -0.029 A 
ATOM     24  C   UNL     1       1.567  -3.852   0.905  0.00  0.00    +0.005 A 
ATOM     25  C   UNL     1       1.394  -2.490   1.061  0.00  0.00    +0.004 A 
BRANCH  20  26
ATOM     26  C   UNL     1       0.113  -0.522   1.930  0.00  0.00    +0.035 C 
BRANCH  26  28
ATOM     27  C   UNL     1      -0.897   1.537   0.940  0.00  0.00    +0.004 C 
ATOM     28  C   UNL     1      -0.708   0.029   0.763  0.00  0.00    +0.001 C 
ENDBRANCH  26  28
ENDBRANCH  20  26
ENDBRANCH   1  23
BRANCH   1  29
ATOM     29  C   UNL     1       0.364  -6.630  -0.136  0.00  0.00    +0.125 C 
BRANCH  29  30
ATOM     30  N   UNL     1      -1.071  -6.368  -0.269  0.00  0.00    -0.339 N 
ATOM     31  H   UNL     1      -1.556  -5.942   0.455  0.00  0.00    +0.146 HD
BRANCH  30  32
ATOM     32  C   UNL     1      -1.744  -6.732  -1.442  0.00  0.00    +0.069 A 
ATOM     33  C   UNL     1      -1.054  -7.347  -2.476  0.00  0.00    +0.026 A 
ATOM     34  C   UNL     1      -1.720  -7.706  -3.633  0.00  0.00    +0.002 A 
ATOM     35  C   UNL     1      -3.073  -7.455  -3.762  0.00  0.00    +0.004 A 
ATOM     36  C   UNL     1      -3.767  -6.842  -2.735  0.00  0.00    +0.047 A 
ATOM     37  C   UNL     1      -3.108  -6.484  -1.570  0.00  0.00    +0.138 A 
BRANCH  37  38
ATOM     38  O   UNL     1      -3.791  -5.886  -0.557  0.00  0.00    -0.505 OA
ATOM     39  H   UNL     1      -3.811  -4.921  -0.612  0.00  0.00    +0.292 HD
ENDBRANCH  37  38
ENDBRANCH  30  32
ENDBRANCH  29  30
ENDBRANCH   1  29
TORSDOF 11
