REMARK  Name = ZINC09543193
REMARK  5 active torsions:
REMARK  status: ('A' for Active; 'I' for Inactive)
REMARK    1  A    between atoms: C_1  and  C_2
REMARK    2  A    between atoms: C_5  and  C_8
REMARK    3  A    between atoms: C_10  and  C_23
REMARK    4  A    between atoms: C_12  and  C_15
REMARK    5  A    between atoms: C_20  and  O_21
REMARK                            x       y       z     vdW  Elec       q    Type
REMARK                         _______ _______ _______ _____ _____    ______ ____
ROOT
ATOM      1  C   UNL     1       1.250  -2.158  -0.021  0.00  0.00    +0.040 C 
ATOM      2  N   UNL     1       0.137  -2.789  -0.013  0.00  0.00    -0.299 NA
ATOM      3  C   UNL     1       0.019  -4.242  -0.030  0.00  0.00    +0.081 C 
ATOM      4  C   UNL     1       2.396  -4.317  -0.434  0.00  0.00    -0.028 C 
ATOM      5  C   UNL     1       2.585  -2.849  -0.044  0.00  0.00    +0.044 C 
ATOM      6  N   UNL     1       1.288  -4.873   0.366  0.00  0.00    +0.401 N 
ATOM      7  H   UNL     1       1.228  -5.885   0.208  0.00  0.00    -0.081 HD
ATOM      8  H   UNL     1       1.462  -4.691   1.361  0.00  0.00    -0.081 HD
ENDROOT
BRANCH   1  13
ATOM      9  C   UNL     1       1.142   3.593   0.010  0.00  0.00    +0.044 C 
ATOM     10  C   UNL     1       1.170   2.086   0.002  0.00  0.00    -0.050 A 
ATOM     11  C   UNL     1      -0.017   1.375   0.010  0.00  0.00    +0.004 A 
ATOM     12  C   UNL     1       0.002  -0.004   0.002  0.00  0.00    +0.010 A 
ATOM     13  C   UNL     1       1.222  -0.682  -0.013  0.00  0.00    -0.004 A 
ATOM     14  C   UNL     1       2.416   0.042  -0.021  0.00  0.00    +0.010 A 
ATOM     15  C   UNL     1       2.383   1.421  -0.013  0.00  0.00    +0.004 A 
ENDBRANCH   1  13
BRANCH   4  16
ATOM     16  C   UNL     1       3.659  -5.087  -0.150  0.00  0.00    -0.018 A 
ATOM     17  C   UNL     1       3.767  -5.836   1.006  0.00  0.00    +0.020 A 
ATOM     18  C   UNL     1       4.927  -6.543   1.268  0.00  0.00    +0.018 A 
ATOM     19  C   UNL     1       5.981  -6.503   0.373  0.00  0.00    +0.019 A 
ATOM     20  C   UNL     1       5.877  -5.756  -0.784  0.00  0.00    +0.047 A 
ATOM     21  C   UNL     1       4.713  -5.051  -1.052  0.00  0.00    +0.119 A 
ATOM     22 BR   UNL     1       5.071  -7.567   2.851  0.00  0.00    -0.050 Br
BRANCH  21  23
ATOM     23  O   UNL     1       4.606  -4.320  -2.193  0.00  0.00    -0.507 OA
ATOM     24  H   UNL     1       4.910  -3.406  -2.104  0.00  0.00    +0.292 HD
ENDBRANCH  21  23
ENDBRANCH   4  16
BRANCH   3  25
ATOM     25  C   UNL     1      -1.062  -4.664   0.931  0.00  0.00    -0.038 A 
ATOM     26  C   UNL     1      -0.984  -5.891   1.563  0.00  0.00    +0.004 A 
ATOM     27  C   UNL     1      -1.973  -6.277   2.448  0.00  0.00    +0.003 A 
ATOM     28  C   UNL     1      -3.046  -5.441   2.695  0.00  0.00    +0.038 A 
ATOM     29  C   UNL     1      -3.127  -4.214   2.058  0.00  0.00    +0.124 A 
ATOM     30  C   UNL     1      -2.133  -3.826   1.176  0.00  0.00    +0.042 A 
ATOM     31  F   UNL     1      -4.176  -3.397   2.298  0.00  0.00    -0.205 F 
ENDBRANCH   3  25
TORSDOF 4
