REMARK  Name = ZINC05759711
REMARK  8 active torsions:
REMARK  status: ('A' for Active; 'I' for Inactive)
REMARK    1  A    between atoms: C_1  and  O_2
REMARK    2  A    between atoms: O_2  and  C_3
REMARK    3  A    between atoms: C_6  and  C_10
REMARK    4  A    between atoms: C_8  and  O_9
REMARK    5  A    between atoms: C_12  and  C_33
REMARK    6  A    between atoms: C_18  and  O_31
REMARK    7  A    between atoms: C_26  and  O_30
REMARK    8  A    between atoms: C_33  and  O_34
REMARK                            x       y       z     vdW  Elec       q    Type
REMARK                         _______ _______ _______ _____ _____    ______ ____
ROOT
ATOM      1  C   UNL     1      -0.018   1.503   0.010  0.00  0.00    +0.246 C 
ATOM      2  C   UNL     1      -0.772   2.017  -1.224  0.00  0.00    +0.244 C 
ATOM      3  O   UNL     1      -0.783   3.448  -1.176  0.00  0.00    -0.475 OA
ATOM      4  C   UNL     1      -1.105   4.019   0.020  0.00  0.00    +0.206 A 
ATOM      5  C   UNL     1      -1.060   3.282   1.196  0.00  0.00    +0.170 A 
ATOM      6  C   UNL     1      -1.386   3.875   2.412  0.00  0.00    +0.095 A 
ATOM      7  C   UNL     1      -1.759   5.205   2.461  0.00  0.00    +0.135 A 
ATOM      8  C   UNL     1      -1.808   5.954   1.278  0.00  0.00    +0.110 A 
ATOM      9  C   UNL     1      -1.480   5.359   0.048  0.00  0.00    +0.188 A 
ATOM     10  O   UNL     1      -1.525   6.067  -1.101  0.00  0.00    -0.451 OA
ATOM     11  C   UNL     1      -1.869   7.370  -1.158  0.00  0.00    +0.143 A 
ATOM     12  C   UNL     1      -1.882   8.031  -2.381  0.00  0.00    +0.047 A 
ATOM     13  C   UNL     1      -2.234   9.364  -2.448  0.00  0.00    +0.007 A 
ATOM     14  C   UNL     1      -2.578  10.064  -1.305  0.00  0.00    +0.046 A 
ATOM     15  C   UNL     1      -2.573   9.430  -0.074  0.00  0.00    +0.131 A 
ATOM     16  C   UNL     1      -2.217   8.078   0.003  0.00  0.00    +0.106 A 
ATOM     17  C   UNL     1      -2.200   7.373   1.299  0.00  0.00    +0.207 A 
ATOM     18  O   UNL     1      -2.497   7.938   2.337  0.00  0.00    -0.286 OA
ATOM     19  O   UNL     1      -0.700   1.970   1.179  0.00  0.00    -0.477 OA
ENDROOT
BRANCH   1  23
ATOM     20  C   UNL     1       0.034  -2.773  -0.011  0.00  0.00    +0.161 A 
ATOM     21  C   UNL     1      -1.097  -2.094   0.413  0.00  0.00    +0.050 A 
ATOM     22  C   UNL     1      -1.108  -0.711   0.424  0.00  0.00    +0.011 A 
ATOM     23  C   UNL     1       0.002  -0.004   0.002  0.00  0.00    -0.000 A 
ATOM     24  C   UNL     1       1.133  -0.676  -0.422  0.00  0.00    +0.056 A 
ATOM     25  C   UNL     1       1.154  -2.062  -0.430  0.00  0.00    +0.159 A 
BRANCH  20  27
ATOM     26  C   UNL     1      -1.136  -4.797   0.427  0.00  0.00    +0.277 C 
ATOM     27  O   UNL     1       0.049  -4.133  -0.017  0.00  0.00    -0.491 OA
ENDBRANCH  20  27
BRANCH  25  28
ATOM     28  O   UNL     1       2.266  -2.724  -0.847  0.00  0.00    -0.503 OA
ATOM     29  H   UNL     1       2.897  -2.916  -0.140  0.00  0.00    +0.292 HD
ENDBRANCH  25  28
ENDBRANCH   1  23
BRANCH  15  30
ATOM     30  O   UNL     1      -2.911  10.113   1.048  0.00  0.00    -0.506 OA
ATOM     31  H   UNL     1      -2.163  10.540   1.489  0.00  0.00    +0.292 HD
ENDBRANCH  15  30
BRANCH   7  32
ATOM     32  O   UNL     1      -2.078   5.781   3.648  0.00  0.00    -0.506 OA
ATOM     33  H   UNL     1      -1.326   6.182   4.105  0.00  0.00    +0.292 HD
ENDBRANCH   7  32
BRANCH   2  34
ATOM     34  C   UNL     1      -0.063   1.547  -2.495  0.00  0.00    +0.204 C 
BRANCH  34  35
ATOM     35  O   UNL     1      -0.831   1.929  -3.638  0.00  0.00    -0.391 OA
ATOM     36  H   UNL     1      -0.441   1.663  -4.481  0.00  0.00    +0.210 HD
ENDBRANCH  34  35
ENDBRANCH   2  34
TORSDOF 7
