REMARK  Name = ZINC57456988
REMARK  6 active torsions:
REMARK  status: ('A' for Active; 'I' for Inactive)
REMARK    1  A    between atoms: C_1  and  C_2
REMARK    2  A    between atoms: N_12  and  C_13
REMARK    3  A    between atoms: C_13  and  C_14
REMARK    4  A    between atoms: N_16  and  C_17
REMARK    5  A    between atoms: C_21  and  S_23
REMARK    6  A    between atoms: S_23  and  N_26
REMARK                            x       y       z     vdW  Elec       q    Type
REMARK                         _______ _______ _______ _____ _____    ______ ____
ROOT
ATOM      1  C   UNL     1      -1.137   0.872   5.350  0.00  0.00    +0.035 A 
ATOM      2  C   UNL     1      -2.146  -0.048   5.097  0.00  0.00    +0.023 A 
ATOM      3  C   UNL     1      -3.167  -0.220   6.010  0.00  0.00    +0.004 A 
ATOM      4  C   UNL     1      -3.187   0.524   7.176  0.00  0.00    +0.029 A 
ATOM      5  C   UNL     1      -2.184   1.442   7.431  0.00  0.00    +0.114 A 
ATOM      6  C   UNL     1      -1.156   1.613   6.524  0.00  0.00    +0.052 A 
ENDROOT
BRANCH   1   9
ATOM      7  C   UNL     1       1.148   1.314   4.857  0.00  0.00    +0.235 C 
ATOM      8  O   UNL     1       1.359   1.482   6.040  0.00  0.00    -0.274 OA
ATOM      9  N   UNL     1      -0.101   1.049   4.426  0.00  0.00    -0.284 N 
ATOM     10  H   UNL     1      -0.281   0.980   3.476  0.00  0.00    +0.155 HD
BRANCH   7  11
ATOM     11  C   UNL     1       2.284   1.400   3.870  0.00  0.00    +0.201 C 
BRANCH  11  22
ATOM     12  C   UNL     1       3.978  -0.711   4.420  0.00  0.00    +0.028 C 
ATOM     13  C   UNL     1       4.379   0.608   5.085  0.00  0.00    +0.071 C 
ATOM     14  C   UNL     1       5.833   0.947   4.733  0.00  0.00    +0.027 C 
ATOM     15  C   UNL     1       6.232   2.229   5.463  0.00  0.00    +0.039 C 
ATOM     16  C   UNL     1       5.218   3.314   5.213  0.00  0.00    -0.026 A 
ATOM     17  C   UNL     1       5.589   4.635   5.407  0.00  0.00    +0.005 A 
ATOM     18  C   UNL     1       4.681   5.653   5.189  0.00  0.00    +0.000 A 
ATOM     19  C   UNL     1       3.394   5.360   4.775  0.00  0.00    +0.002 A 
ATOM     20  C   UNL     1       3.017   4.047   4.579  0.00  0.00    +0.023 A 
ATOM     21  C   UNL     1       3.930   3.020   4.796  0.00  0.00    +0.034 A 
ATOM     22  N   UNL     1       3.529   1.696   4.583  0.00  0.00    -0.318 N 
ENDBRANCH  11  22
ENDBRANCH   7  11
ENDBRANCH   1   9
BRANCH   5  23
ATOM     23  S   UNL     1      -2.214   2.388   8.917  0.00  0.00    +0.100 S 
ATOM     24  O   UNL     1      -1.460   3.565   8.664  0.00  0.00    -0.146 OA
ATOM     25  O   UNL     1      -3.568   2.428   9.346  0.00  0.00    -0.146 OA
BRANCH  23  26
ATOM     26  N   UNL     1      -1.380   1.528  10.061  0.00  0.00    -0.118 NA
ATOM     27  C   UNL     1      -1.249   2.002  11.257  0.00  0.00    +0.117 C 
ATOM     28  C   UNL     1      -0.475   1.214  12.312  0.00  0.00    +0.073 C 
ATOM     29  C   UNL     1       0.805   1.972  12.589  0.00  0.00    +0.008 C 
ATOM     30  C   UNL     1       0.663   3.028  13.686  0.00  0.00    +0.002 C 
ATOM     31  C   UNL     1      -0.628   3.839  13.573  0.00  0.00    +0.019 C 
ATOM     32  C   UNL     1      -0.955   4.248  12.153  0.00  0.00    +0.102 C 
ATOM     33  N   UNL     1      -1.778   3.169  11.568  0.00  0.00    -0.331 N 
ATOM     34  H   UNL     1      -2.723   3.324  11.411  0.00  0.00    +0.147 HD
ENDBRANCH  23  26
ENDBRANCH   5  23
TORSDOF 5
