REMARK  Name = ZINC50043716
REMARK  1 active torsions:
REMARK  status: ('A' for Active; 'I' for Inactive)
REMARK    1  A    between atoms: C_7  and  C_13
REMARK                            x       y       z     vdW  Elec       q    Type
REMARK                         _______ _______ _______ _____ _____    ______ ____
ROOT
ATOM      1  C   UNL     1      -0.039   0.110   0.029  0.00  0.00    +0.130 A 
ATOM      2  C   UNL     1       1.215  -0.373  -0.051  0.00  0.00    +0.114 A 
ATOM      3  N   UNL     1       2.061   0.703   0.035  0.00  0.00    -0.290 N 
ATOM      4  C   UNL     1       1.285   1.811   0.166  0.00  0.00    +0.205 A 
ATOM      5  N   UNL     1       0.033   1.443   0.161  0.00  0.00    -0.244 NA
ATOM      6  C   UNL     1       3.459   0.667  -0.004  0.00  0.00    +0.143 A 
ATOM      7  C   UNL     1       4.143  -0.293   0.732  0.00  0.00    +0.011 A 
ATOM      8  C   UNL     1       5.526  -0.318   0.685  0.00  0.00    +0.025 A 
ATOM      9  C   UNL     1       6.179   0.622  -0.101  0.00  0.00    +0.036 A 
ATOM     10  C   UNL     1       5.434   1.548  -0.806  0.00  0.00    +0.128 A 
ATOM     11  N   UNL     1       4.116   1.544  -0.745  0.00  0.00    -0.236 NA
ATOM     12 BR   UNL     1       8.067   0.636  -0.204  0.00  0.00    -0.049 Br
ENDROOT
BRANCH   7  13
ATOM     13  C   UNL     1       3.389  -1.293   1.570  0.00  0.00    +0.147 C 
ATOM     14 CL   UNL     1       3.190  -2.826   0.643  0.00  0.00    -0.120 Cl
ENDBRANCH   7  13
TORSDOF 1
