REMARK  Name = ZINC20973304
REMARK  9 active torsions:
REMARK  status: ('A' for Active; 'I' for Inactive)
REMARK    1  A    between atoms: C_1  and  C_2
REMARK    2  A    between atoms: C_7  and  N_8
REMARK    3  A    between atoms: C_9  and  C_11
REMARK    4  A    between atoms: C_11  and  O_12
REMARK    5  A    between atoms: O_12  and  C_13
REMARK    6  A    between atoms: C_13  and  C_15
REMARK    7  A    between atoms: C_15  and  C_16
REMARK    8  A    between atoms: C_16  and  C_18
REMARK    9  A    between atoms: C_16  and  N_25
REMARK                            x       y       z     vdW  Elec       q    Type
REMARK                         _______ _______ _______ _____ _____    ______ ____
ROOT
ATOM      1  C   UNL     1      -1.250   1.644   2.368  0.00  0.00    +0.310 C 
ATOM      2  O   UNL     1      -1.199   0.437   2.354  0.00  0.00    -0.251 OA
ENDROOT
BRANCH   1   3
ATOM      3  O   UNL     1      -1.278   2.300   3.539  0.00  0.00    -0.455 OA
BRANCH   3   4
ATOM      4  C   UNL     1      -1.244   1.496   4.747  0.00  0.00    +0.328 C 
BRANCH   4   6
ATOM      5  N   UNL     1      -1.260   1.869   7.192  0.00  0.00    -0.282 N 
ATOM      6  C   UNL     1      -1.282   2.398   5.953  0.00  0.00    +0.255 C 
ATOM      7  O   UNL     1      -1.333   3.601   5.809  0.00  0.00    -0.272 OA
ATOM      8  H   UNL     1      -1.307   0.777   7.325  0.00  0.00    +0.155 HD
BRANCH   5  15
ATOM      9  C   UNL     1      -2.277   0.907   9.670  0.00  0.00    +0.046 C 
ATOM     10  C   UNL     1      -1.662   2.277   9.539  0.00  0.00    -0.028 A 
ATOM     11  C   UNL     1      -1.575   3.104  10.642  0.00  0.00    +0.025 A 
ATOM     12  C   UNL     1      -1.016   4.364  10.521  0.00  0.00    +0.041 A 
ATOM     13  C   UNL     1      -0.537   4.797   9.296  0.00  0.00    +0.022 A 
ATOM     14  C   UNL     1      -0.617   3.971   8.192  0.00  0.00    +0.025 A 
ATOM     15  C   UNL     1      -1.178   2.707   8.310  0.00  0.00    +0.036 A 
ATOM     16 CL   UNL     1      -0.915   5.404  11.907  0.00  0.00    -0.084 Cl
ENDBRANCH   5  15
ENDBRANCH   4   6
ENDBRANCH   3   4
ENDBRANCH   1   3
BRANCH   1  17
ATOM     17  C   UNL     1      -1.282   2.413   1.073  0.00  0.00    +0.147 C 
BRANCH  17  18
ATOM     18  C   UNL     1      -1.241   1.433  -0.102  0.00  0.00    +0.115 C 
BRANCH  18  19
ATOM     19  C   UNL     1      -1.397   2.192  -1.395  0.00  0.00    -0.027 A 
ATOM     20  C   UNL     1      -0.293   2.768  -1.996  0.00  0.00    +0.007 A 
ATOM     21  C   UNL     1      -0.434   3.460  -3.184  0.00  0.00    +0.020 A 
ATOM     22  C   UNL     1      -1.683   3.586  -3.766  0.00  0.00    +0.041 A 
ATOM     23  C   UNL     1      -2.788   3.014  -3.162  0.00  0.00    +0.020 A 
ATOM     24  C   UNL     1      -2.645   2.318  -1.976  0.00  0.00    +0.007 A 
ATOM     25 CL   UNL     1      -1.862   4.461  -5.255  0.00  0.00    -0.084 Cl
ENDBRANCH  18  19
BRANCH  18  26
ATOM     26  N   UNL     1       0.042   0.726  -0.103  0.00  0.00    -0.292 N 
ATOM     27  C   UNL     1       0.166  -0.443  -0.763  0.00  0.00    +0.298 C 
ATOM     28  O   UNL     1      -0.806  -0.954  -1.284  0.00  0.00    -0.253 OA
ATOM     29  N   UNL     1       1.369  -1.046  -0.844  0.00  0.00    -0.313 N 
ATOM     30  H   UNL     1       0.903   1.148   0.434  0.00  0.00    +0.151 HD
ATOM     31  H   UNL     1       1.470  -2.000  -1.383  0.00  0.00    +0.146 HD
ATOM     32  H   UNL     1       2.249  -0.584  -0.373  0.00  0.00    +0.146 HD
ENDBRANCH  18  26
ENDBRANCH  17  18
ENDBRANCH   1  17
TORSDOF 8
