REMARK  Name = ZINC40733481
REMARK  4 active torsions:
REMARK  status: ('A' for Active; 'I' for Inactive)
REMARK    1  A    between atoms: C_1  and  C_2
REMARK    2  A    between atoms: C_2  and  C_3
REMARK    3  A    between atoms: C_11  and  N_24
REMARK    4  A    between atoms: C_12  and  N_16
REMARK                            x       y       z     vdW  Elec       q    Type
REMARK                         _______ _______ _______ _____ _____    ______ ____
ROOT
ATOM      1  C   UNL     1       1.218   0.522  -2.712  0.00  0.00    +0.075 C 
ATOM      2  C   UNL     1       2.086  -0.152  -1.644  0.00  0.00    +0.022 C 
ATOM      3  C   UNL     1       2.064  -1.667  -1.856  0.00  0.00    +0.003 C 
ATOM      4  C   UNL     1       0.630  -2.184  -1.711  0.00  0.00    +0.019 C 
ATOM      5  C   UNL     1      -0.254  -1.533  -2.780  0.00  0.00    +0.107 C 
ATOM      6  N   UNL     1      -0.125  -0.072  -2.678  0.00  0.00    -0.311 N 
ATOM      7  C   UNL     1      -1.252   0.731  -2.550  0.00  0.00    +0.147 A 
ATOM      8  C   UNL     1      -1.958   1.148  -3.680  0.00  0.00    +0.104 A 
ATOM      9  C   UNL     1      -3.082   1.954  -3.494  0.00  0.00    +0.127 A 
ATOM     10  N   UNL     1      -3.437   2.290  -2.256  0.00  0.00    -0.333 N 
ATOM     11  C   UNL     1      -2.743   1.875  -1.216  0.00  0.00    +0.200 A 
ATOM     12  N   UNL     1      -1.678   1.109  -1.347  0.00  0.00    -0.221 NA
ATOM     13  H   UNL     1      -4.217   2.850  -2.118  0.00  0.00    +0.168 HD
ENDROOT
BRANCH   9  14
ATOM     14  N   UNL     1      -3.821   2.398  -4.586  0.00  0.00    -0.284 N 
ATOM     15  C   UNL     1      -4.847   3.320  -4.403  0.00  0.00    +0.124 A 
ATOM     16  C   UNL     1      -5.676   3.650  -5.471  0.00  0.00    +0.045 A 
ATOM     17  C   UNL     1      -6.692   4.568  -5.276  0.00  0.00    +0.025 A 
ATOM     18  C   UNL     1      -6.846   5.128  -4.013  0.00  0.00    +0.059 A 
ATOM     19  C   UNL     1      -5.986   4.754  -2.998  0.00  0.00    +0.132 A 
ATOM     20  N   UNL     1      -5.029   3.872  -3.213  0.00  0.00    -0.239 NA
ATOM     21 CL   UNL     1      -8.105   6.285  -3.714  0.00  0.00    -0.082 Cl
ATOM     22  H   UNL     1      -3.622   2.064  -5.475  0.00  0.00    +0.155 HD
ENDBRANCH   9  14
BRANCH   8  23
ATOM     23  N   UNL     1      -1.547   0.769  -4.968  0.00  0.00    -0.353 N 
ATOM     24  H   UNL     1      -0.723   0.271  -5.087  0.00  0.00    +0.143 HD
ATOM     25  H   UNL     1      -2.087   1.005  -5.738  0.00  0.00    +0.143 HD
ENDBRANCH   8  23
BRANCH   1  27
ATOM     26  C   UNL     1       2.500   2.664  -2.601  0.00  0.00    +0.006 C 
ATOM     27  C   UNL     1       1.123   2.022  -2.424  0.00  0.00    +0.019 C 
ENDBRANCH   1  27
TORSDOF 3
