REMARK  Name = ZINC43510539
REMARK  8 active torsions:
REMARK  status: ('A' for Active; 'I' for Inactive)
REMARK    1  A    between atoms: C_1  and  C_2
REMARK    2  A    between atoms: C_6  and  C_28
REMARK    3  A    between atoms: C_9  and  C_10
REMARK    4  A    between atoms: C_9  and  C_11
REMARK    5  A    between atoms: C_11  and  C_12
REMARK    6  A    between atoms: C_12  and  C_13
REMARK    7  A    between atoms: C_19  and  O_27
REMARK    8  A    between atoms: C_21  and  O_26
REMARK                            x       y       z     vdW  Elec       q    Type
REMARK                         _______ _______ _______ _____ _____    ______ ____
ROOT
ATOM      1  C   UNL     1      -0.106   1.301  -0.010  0.00  0.00    +0.008 C 
ATOM      2  C   UNL     1      -0.187  -0.227   0.064  0.00  0.00    -0.008 C 
ATOM      3  C   UNL     1      -1.639  -0.674   0.069  0.00  0.00    +0.004 C 
ATOM      4  C   UNL     1      -2.331  -0.317   1.381  0.00  0.00    +0.010 C 
ATOM      5  C   UNL     1      -1.611  -0.998   2.546  0.00  0.00    +0.005 C 
ATOM      6  C   UNL     1      -0.153  -0.564   2.574  0.00  0.00    +0.007 C 
ATOM      7  C   UNL     1       0.600  -0.727   1.272  0.00  0.00    -0.026 C 
ATOM      8  C   UNL     1       1.884   0.137   1.349  0.00  0.00    +0.012 C 
ATOM      9  C   UNL     1       0.559  -1.216   3.757  0.00  0.00    +0.038 C 
ATOM     10  C   UNL     1      -0.036  -0.673   5.060  0.00  0.00    +0.146 C 
ATOM     11  C   UNL     1      -1.531  -0.968   5.144  0.00  0.00    +0.177 C 
ATOM     12  C   UNL     1      -2.253  -0.545   3.867  0.00  0.00    +0.126 C 
ATOM     13  C   UNL     1      -3.776  -0.436   3.914  0.00  0.00    +0.199 C 
ATOM     14  O   UNL     1      -2.928   0.714   3.868  0.00  0.00    -0.365 OA
ATOM     15  C   UNL     1      -1.780  -2.511   2.424  0.00  0.00    +0.014 C 
ENDROOT
BRANCH  11  16
ATOM     16  O   UNL     1      -1.743  -2.356   5.405  0.00  0.00    -0.386 OA
ATOM     17  H   UNL     1      -1.351  -2.665   6.233  0.00  0.00    +0.210 HD
ENDBRANCH  11  16
BRANCH  10  18
ATOM     18  O   UNL     1       0.183   0.737   5.134  0.00  0.00    -0.389 OA
ATOM     19  H   UNL     1       1.116   0.992   5.119  0.00  0.00    +0.210 HD
ENDBRANCH  10  18
BRANCH   7  20
ATOM     20  C   UNL     1       1.047  -2.171   1.036  0.00  0.00    +0.012 C 
BRANCH  20  21
ATOM     21  C   UNL     1       2.048  -2.212  -0.121  0.00  0.00    +0.039 C 
BRANCH  21  22
ATOM     22  C   UNL     1       2.390  -3.645  -0.439  0.00  0.00    -0.010 A 
ATOM     23  C   UNL     1       3.436  -4.408   0.129  0.00  0.00    +0.044 A 
ATOM     24  C   UNL     1       3.380  -5.627  -0.437  0.00  0.00    +0.195 A 
ATOM     25  O   UNL     1       2.361  -5.643  -1.312  0.00  0.00    -0.471 OA
ATOM     26  C   UNL     1       1.754  -4.445  -1.314  0.00  0.00    +0.198 A 
ENDBRANCH  21  22
ENDBRANCH  20  21
ENDBRANCH   7  20
TORSDOF 5
