REMARK  Name = ZINC08635763
REMARK  8 active torsions:
REMARK  status: ('A' for Active; 'I' for Inactive)
REMARK    1  A    between atoms: C_1  and  O_2
REMARK    2  A    between atoms: O_2  and  C_3
REMARK    3  A    between atoms: C_3  and  C_5
REMARK    4  A    between atoms: C_11  and  C_13
REMARK    5  A    between atoms: C_21  and  C_23
REMARK    6  A    between atoms: C_23  and  N_24
REMARK    7  A    between atoms: C_26  and  C_29
REMARK    8  A    between atoms: C_33  and  N_35
REMARK                            x       y       z     vdW  Elec       q    Type
REMARK                         _______ _______ _______ _____ _____    ______ ____
ROOT
ATOM      1  C   UNL     1       0.002  -0.004   0.002  0.00  0.00    +0.062 C 
ATOM      2  C   UNL     1      -0.019   1.527   0.010  0.00  0.00    -0.065 C 
ATOM      3  C   UNL     1       2.066   1.617  -1.220  0.00  0.00    -0.078 C 
ATOM      4  C   UNL     1       2.146   0.089  -1.264  0.00  0.00    -0.015 C 
ATOM      5  C   UNL     1       1.460  -0.479  -0.015  0.00  0.00    -0.004 C 
ATOM      6  C   UNL     1       2.170   0.075   1.227  0.00  0.00    -0.010 C 
ATOM      7  C   UNL     1       2.089   1.604   1.202  0.00  0.00    -0.046 C 
ATOM      8  N   UNL     1       1.360   2.062   0.000  0.00  0.00    +0.383 N 
ATOM      9  H   UNL     1       1.319   3.088   0.006  0.00  0.00    -0.081 HD
ENDROOT
BRANCH   1  16
ATOM     10  C   UNL     1      -4.188   1.249   2.450  0.00  0.00    +0.101 C 
ATOM     11  C   UNL     1      -3.288   0.466   3.409  0.00  0.00    +0.033 C 
ATOM     12  C   UNL     1      -2.666  -0.721   2.664  0.00  0.00    +0.108 C 
ATOM     13  N   UNL     1      -1.980  -0.220   1.466  0.00  0.00    -0.301 N 
ATOM     14  C   UNL     1      -2.728   0.625   0.525  0.00  0.00    +0.108 C 
ATOM     15  C   UNL     1      -3.351   1.791   1.290  0.00  0.00    +0.033 C 
ATOM     16  C   UNL     1      -0.688  -0.525   1.236  0.00  0.00    +0.217 C 
ATOM     17  O   UNL     1      -0.080  -1.219   2.023  0.00  0.00    -0.275 OA
BRANCH  10  18
ATOM     18  C   UNL     1      -4.828   2.397   3.187  0.00  0.00    +0.310 C 
ATOM     19  O   UNL     1      -4.589   2.571   4.359  0.00  0.00    -0.251 OA
BRANCH  18  21
ATOM     20  C   UNL     1      -6.243   4.310   3.316  0.00  0.00    +0.280 C 
ATOM     21  O   UNL     1      -5.664   3.226   2.543  0.00  0.00    -0.468 OA
ENDBRANCH  18  21
ENDBRANCH  10  18
ENDBRANCH   1  16
BRANCH   7  22
ATOM     22  C   UNL     1       1.354   2.098   2.449  0.00  0.00    +0.130 C 
BRANCH  22  23
ATOM     23  N   UNL     1       1.381   3.562   2.485  0.00  0.00    -0.253 N 
ATOM     24  C   UNL     1       0.301   4.371   2.573  0.00  0.00    +0.138 A 
ATOM     25  C   UNL     1       0.785   5.647   2.579  0.00  0.00    +0.113 A 
ATOM     26  N   UNL     1       2.122   5.542   2.484  0.00  0.00    -0.130 NA
ATOM     27  N   UNL     1       2.437   4.296   2.431  0.00  0.00    -0.065 NA
BRANCH  25  28
ATOM     28  C   UNL     1      -0.007   6.900   2.665  0.00  0.00    +0.005 A 
ATOM     29  C   UNL     1      -1.397   6.843   2.753  0.00  0.00    +0.010 A 
ATOM     30  C   UNL     1      -2.131   8.009   2.839  0.00  0.00    +0.002 A 
ATOM     31  C   UNL     1      -1.494   9.235   2.827  0.00  0.00    +0.023 A 
ATOM     32  C   UNL     1      -0.109   9.301   2.733  0.00  0.00    +0.025 A 
ATOM     33  C   UNL     1       0.637   8.134   2.652  0.00  0.00    +0.032 A 
BRANCH  32  34
ATOM     34  N   UNL     1       0.532  10.542   2.720  0.00  0.00    -0.358 N 
ATOM     35  H   UNL     1       1.499  10.588   2.654  0.00  0.00    +0.142 HD
ATOM     36  H   UNL     1       0.011  11.358   2.776  0.00  0.00    +0.142 HD
ENDBRANCH  32  34
ENDBRANCH  25  28
ENDBRANCH  22  23
ENDBRANCH   7  22
TORSDOF 7
