REMARK  Name = ZINC21260122
REMARK  8 active torsions:
REMARK  status: ('A' for Active; 'I' for Inactive)
REMARK    1  A    between atoms: C_1  and  C_2
REMARK    2  A    between atoms: C_2  and  O_3
REMARK    3  A    between atoms: O_3  and  C_4
REMARK    4  A    between atoms: C_7  and  C_12
REMARK    5  A    between atoms: C_9  and  O_10
REMARK    6  A    between atoms: O_10  and  C_11
REMARK    7  A    between atoms: C_17  and  C_27
REMARK    8  A    between atoms: C_30  and  O_33
REMARK                            x       y       z     vdW  Elec       q    Type
REMARK                         _______ _______ _______ _____ _____    ______ ____
ROOT
ATOM      1  C   UNL     1      -0.862   1.560  -1.269  0.00  0.00    +0.032 C 
ATOM      2  C   UNL     1      -2.314   1.104  -1.137  0.00  0.00    +0.059 C 
ATOM      3  C   UNL     1      -2.917   1.661   0.142  0.00  0.00    +0.017 C 
ATOM      4  C   UNL     1      -2.153   1.840   1.232  0.00  0.00    +0.036 C 
ATOM      5  C   UNL     1      -2.624   2.361   2.570  0.00  0.00    +0.136 C 
ATOM      6  N   UNL     1      -3.957   2.926   2.557  0.00  0.00    -0.331 N 
ATOM      7  C   UNL     1      -5.071   2.135   2.283  0.00  0.00    +0.049 A 
ATOM      8  C   UNL     1      -6.047   1.902   3.239  0.00  0.00    +0.025 A 
ATOM      9  C   UNL     1      -7.112   1.072   2.935  0.00  0.00    +0.002 A 
ATOM     10  C   UNL     1      -7.203   0.477   1.690  0.00  0.00    +0.002 A 
ATOM     11  C   UNL     1      -6.239   0.721   0.727  0.00  0.00    +0.025 A 
ATOM     12  C   UNL     1      -5.184   1.568   1.022  0.00  0.00    +0.052 A 
ATOM     13  N   UNL     1      -4.244   1.939   0.070  0.00  0.00    -0.316 N 
ATOM     14  C   UNL     1      -0.768   1.536   1.194  0.00  0.00    +0.163 C 
ATOM     15  O   UNL     1      -0.102   1.685   2.200  0.00  0.00    -0.292 OA
ATOM     16  C   UNL     1      -0.096   1.034  -0.049  0.00  0.00    +0.088 C 
ATOM     17  H   UNL     1      -4.102   3.996   2.766  0.00  0.00    +0.147 HD
ATOM     18  H   UNL     1      -4.642   2.498  -0.790  0.00  0.00    +0.152 HD
ENDROOT
BRANCH   1  22
ATOM     19  C   UNL     1       0.841  -0.043  -4.849  0.00  0.00    +0.162 A 
ATOM     20  C   UNL     1       0.323  -0.892  -3.884  0.00  0.00    +0.050 A 
ATOM     21  C   UNL     1      -0.227  -0.371  -2.728  0.00  0.00    +0.008 A 
ATOM     22  C   UNL     1      -0.261   0.997  -2.531  0.00  0.00    -0.040 A 
ATOM     23  C   UNL     1       0.249   1.850  -3.492  0.00  0.00    +0.053 A 
ATOM     24  C   UNL     1       0.806   1.334  -4.651  0.00  0.00    +0.162 A 
BRANCH  24  25
ATOM     25  O   UNL     1       1.313   2.171  -5.595  0.00  0.00    -0.491 OA
ATOM     26  C   UNL     1       1.243   3.572  -5.324  0.00  0.00    +0.277 C 
ENDBRANCH  24  25
BRANCH  19  27
ATOM     27  O   UNL     1       1.381  -0.554  -5.987  0.00  0.00    -0.489 OA
BRANCH  27  29
ATOM     28  C   UNL     1       2.025  -2.361  -7.457  0.00  0.00    +0.048 C 
ATOM     29  C   UNL     1       1.382  -1.977  -6.123  0.00  0.00    +0.226 C 
ENDBRANCH  27  29
ENDBRANCH  19  27
ENDBRANCH   1  22
BRANCH   5  30
ATOM     30  C   UNL     1      -2.599   1.225   3.560  0.00  0.00    -0.023 A 
ATOM     31  C   UNL     1      -3.420   0.129   3.374  0.00  0.00    +0.009 A 
ATOM     32  C   UNL     1      -3.395  -0.916   4.277  0.00  0.00    +0.046 A 
ATOM     33  C   UNL     1      -2.553  -0.859   5.378  0.00  0.00    +0.117 A 
ATOM     34  C   UNL     1      -1.734   0.245   5.566  0.00  0.00    +0.046 A 
ATOM     35  C   UNL     1      -1.759   1.284   4.657  0.00  0.00    +0.009 A 
BRANCH  33  36
ATOM     36  O   UNL     1      -2.530  -1.883   6.271  0.00  0.00    -0.507 OA
ATOM     37  H   UNL     1      -1.862  -1.837   7.144  0.00  0.00    +0.292 HD
ENDBRANCH  33  36
ENDBRANCH   5  30
TORSDOF 6
