REMARK  Name = ZINC02185715
REMARK  6 active torsions:
REMARK  status: ('A' for Active; 'I' for Inactive)
REMARK    1  A    between atoms: C_1  and  C_2
REMARK    2  A    between atoms: C_3  and  C_29
REMARK    3  A    between atoms: C_4  and  C_22
REMARK    4  A    between atoms: C_10  and  C_15
REMARK    5  A    between atoms: C_29  and  O_31
REMARK    6  A    between atoms: O_31  and  C_32
REMARK                            x       y       z     vdW  Elec       q    Type
REMARK                         _______ _______ _______ _____ _____    ______ ____
ROOT
ATOM      1  C   UNL     1       0.198  -4.201   0.789  0.00  0.00    +0.061 C 
ATOM      2  C   UNL     1       0.064  -2.757   0.380  0.00  0.00    +0.016 C 
ATOM      3  C   UNL     1      -1.144  -2.168   0.393  0.00  0.00    +0.065 C 
ATOM      4  C   UNL     1      -1.317  -0.735  -0.016  0.00  0.00    +0.092 C 
ATOM      5  C   UNL     1       0.002  -0.004   0.002  0.00  0.00    +0.024 C 
ATOM      6  C   UNL     1       1.168  -0.685   0.006  0.00  0.00    +0.016 C 
ATOM      7  N   UNL     1       1.173  -2.054  -0.003  0.00  0.00    -0.321 N 
ATOM      8  C   UNL     1       2.491   0.040   0.025  0.00  0.00    +0.059 C 
ATOM      9  C   UNL     1       2.352   1.382  -0.697  0.00  0.00    +0.032 C 
ATOM     10  C   UNL     1       1.259   2.198   0.002  0.00  0.00    +0.088 C 
ATOM     11  C   UNL     1      -0.017   1.402   0.010  0.00  0.00    +0.162 C 
ATOM     12  O   UNL     1      -1.083   1.984   0.018  0.00  0.00    -0.292 OA
ATOM     13  H   UNL     1       2.080  -2.588  -0.322  0.00  0.00    +0.152 HD
ENDROOT
BRANCH   9  14
ATOM     14  C   UNL     1       3.660   2.128  -0.634  0.00  0.00    -0.043 A 
ATOM     15  C   UNL     1       4.202   2.470   0.590  0.00  0.00    +0.005 A 
ATOM     16  C   UNL     1       5.404   3.149   0.648  0.00  0.00    +0.020 A 
ATOM     17  C   UNL     1       6.059   3.497  -0.520  0.00  0.00    +0.041 A 
ATOM     18  C   UNL     1       5.513   3.160  -1.745  0.00  0.00    +0.020 A 
ATOM     19  C   UNL     1       4.313   2.475  -1.802  0.00  0.00    +0.005 A 
ATOM     20 CL   UNL     1       7.565   4.358  -0.448  0.00  0.00    -0.084 Cl
ENDBRANCH   9  14
BRANCH   4  21
ATOM     21  C   UNL     1      -1.892  -0.684  -1.408  0.00  0.00    -0.035 A 
ATOM     22  C   UNL     1      -1.186  -1.224  -2.467  0.00  0.00    +0.006 A 
ATOM     23  C   UNL     1      -1.716  -1.183  -3.743  0.00  0.00    +0.020 A 
ATOM     24  C   UNL     1      -2.947  -0.592  -3.962  0.00  0.00    +0.041 A 
ATOM     25  C   UNL     1      -3.651  -0.047  -2.902  0.00  0.00    +0.020 A 
ATOM     26  C   UNL     1      -3.123  -0.093  -1.626  0.00  0.00    +0.006 A 
ATOM     27 CL   UNL     1      -3.610  -0.534  -5.565  0.00  0.00    -0.084 Cl
ENDBRANCH   4  21
BRANCH   3  28
ATOM     28  C   UNL     1      -2.275  -2.914   0.802  0.00  0.00    +0.338 C 
ATOM     29  O   UNL     1      -2.148  -4.077   1.136  0.00  0.00    -0.245 OA
BRANCH  28  30
ATOM     30  O   UNL     1      -3.494  -2.335   0.820  0.00  0.00    -0.458 OA
BRANCH  30  31
ATOM     31  C   UNL     1      -4.591  -3.147   1.244  0.00  0.00    +0.177 C 
ATOM     32  C   UNL     1      -5.260  -3.810   0.022  0.00  0.00    +0.044 C 
ATOM     33  C   UNL     1      -6.770  -3.800   0.364  0.00  0.00    +0.004 C 
ATOM     34  C   UNL     1      -6.951  -2.436   1.075  0.00  0.00    +0.004 C 
ATOM     35  C   UNL     1      -5.666  -2.274   1.913  0.00  0.00    +0.044 C 
ENDBRANCH  30  31
ENDBRANCH  28  30
ENDBRANCH   3  28
TORSDOF 5
