REMARK  Name = ZINC38909996
REMARK  5 active torsions:
REMARK  status: ('A' for Active; 'I' for Inactive)
REMARK    1  A    between atoms: C_1  and  N_2
REMARK    2  A    between atoms: C_3  and  C_5
REMARK    3  A    between atoms: C_5  and  C_6
REMARK    4  A    between atoms: C_12  and  C_14
REMARK    5  A    between atoms: C_17  and  C_19
REMARK                            x       y       z     vdW  Elec       q    Type
REMARK                         _______ _______ _______ _____ _____    ______ ____
ROOT
ATOM      1  C   UNL     1       1.311  -2.657  -2.266  0.00  0.00    +0.059 A 
ATOM      2  C   UNL     1       2.363  -3.509  -2.194  0.00  0.00    +0.072 A 
ATOM      3  S   UNL     1       2.750  -3.707  -3.926  0.00  0.00    -0.060 S 
ATOM      4  C   UNL     1       1.552  -2.702  -4.548  0.00  0.00    +0.165 A 
ATOM      5  N   UNL     1       0.928  -2.277  -3.471  0.00  0.00    -0.229 NA
ATOM      6  N   UNL     1       1.284  -2.400  -5.877  0.00  0.00    -0.259 N 
ATOM      7  C   UNL     1       2.035  -2.941  -6.857  0.00  0.00    +0.269 C 
ATOM      8  O   UNL     1       2.949  -3.694  -6.577  0.00  0.00    -0.268 OA
ATOM      9  H   UNL     1       0.556  -1.799  -6.101  0.00  0.00    +0.157 HD
ENDROOT
BRANCH   7  10
ATOM     10  C   UNL     1       1.751  -2.619  -8.265  0.00  0.00    +0.134 A 
ATOM     11  C   UNL     1       2.510  -3.171  -9.278  0.00  0.00    +0.080 A 
ATOM     12  S   UNL     1       1.807  -2.512 -10.658  0.00  0.00    -0.073 S 
ATOM     13  C   UNL     1       0.543  -1.537  -9.861  0.00  0.00    +0.125 A 
ATOM     14  N   UNL     1       0.759  -1.800  -8.584  0.00  0.00    -0.233 NA
BRANCH  13  15
ATOM     15  C   UNL     1      -0.480  -0.668 -10.469  0.00  0.00    +0.073 A 
ATOM     16  C   UNL     1      -1.407   0.049  -9.784  0.00  0.00    +0.038 A 
ATOM     17  C   UNL     1      -2.211   0.762 -10.774  0.00  0.00    +0.000 A 
ATOM     18  C   UNL     1      -3.295   1.641 -10.689  0.00  0.00    +0.010 A 
ATOM     19  C   UNL     1      -3.844   2.154 -11.830  0.00  0.00    +0.001 A 
ATOM     20  C   UNL     1      -3.333   1.810 -13.074  0.00  0.00    +0.002 A 
ATOM     21  C   UNL     1      -2.267   0.945 -13.182  0.00  0.00    +0.026 A 
ATOM     22  C   UNL     1      -1.691   0.410 -12.034  0.00  0.00    +0.047 A 
ATOM     23  N   UNL     1      -0.639  -0.453 -11.821  0.00  0.00    -0.353 N 
ATOM     24  H   UNL     1      -0.095  -0.852 -12.517  0.00  0.00    +0.166 HD
ENDBRANCH  13  15
ENDBRANCH   7  10
BRANCH   1  25
ATOM     25  C   UNL     1       0.606  -2.171  -1.026  0.00  0.00    +0.151 C 
BRANCH  25  28
ATOM     26  C   UNL     1      -0.018   1.461   0.010  0.00  0.00    +0.128 C 
ATOM     27  N   UNL     1       0.002  -0.004   0.002  0.00  0.00    -0.318 N 
ATOM     28  C   UNL     1       0.585  -0.664  -1.018  0.00  0.00    +0.219 C 
ATOM     29  O   UNL     1       1.093  -0.046  -1.929  0.00  0.00    -0.275 OA
ATOM     30  H   UNL     1      -0.404  -0.499   0.731  0.00  0.00    +0.148 HD
ENDBRANCH  25  28
ENDBRANCH   1  25
TORSDOF 4
