REMARK  Name = ZINC35592605
REMARK  7 active torsions:
REMARK  status: ('A' for Active; 'I' for Inactive)
REMARK    1  A    between atoms: C_1  and  C_2
REMARK    2  A    between atoms: C_4  and  O_21
REMARK    3  A    between atoms: C_5  and  S_9
REMARK    4  A    between atoms: S_9  and  N_12
REMARK    5  A    between atoms: N_12  and  C_13
REMARK    6  A    between atoms: C_18  and  O_19
REMARK    7  A    between atoms: O_21  and  C_22
REMARK                            x       y       z     vdW  Elec       q    Type
REMARK                         _______ _______ _______ _____ _____    ______ ____
ROOT
ATOM      1  S   UNL     1       0.049  -4.423  -0.093  0.00  0.00    +0.076 S 
ATOM      2  O   UNL     1       0.991  -4.854  -1.067  0.00  0.00    -0.150 OA
ATOM      3  O   UNL     1       0.200  -4.708   1.291  0.00  0.00    -0.150 OA
ENDROOT
BRANCH   1   8
ATOM      4  C   UNL     1      -0.319   1.583  -0.586  0.00  0.00    +0.045 C 
ATOM      5  C   UNL     1      -0.228   0.084  -0.466  0.00  0.00    -0.033 A 
ATOM      6  C   UNL     1      -0.334  -0.707  -1.594  0.00  0.00    +0.052 A 
ATOM      7  C   UNL     1      -0.249  -2.087  -1.482  0.00  0.00    +0.147 A 
ATOM      8  C   UNL     1      -0.058  -2.670  -0.238  0.00  0.00    +0.151 A 
ATOM      9  C   UNL     1       0.047  -1.876   0.887  0.00  0.00    +0.048 A 
ATOM     10  C   UNL     1      -0.032  -0.499   0.773  0.00  0.00    +0.023 A 
ATOM     11 BR   UNL     1       0.120   0.586   2.314  0.00  0.00    -0.050 Br
BRANCH   7  12
ATOM     12  O   UNL     1      -0.354  -2.866  -2.591  0.00  0.00    -0.493 OA
ATOM     13  C   UNL     1      -0.550  -2.198  -3.838  0.00  0.00    +0.277 C 
ENDBRANCH   7  12
ENDBRANCH   1   8
BRANCH   1  14
ATOM     14  N   UNL     1      -1.418  -5.043  -0.547  0.00  0.00    -0.213 N 
ATOM     15  H   UNL     1      -1.476  -5.651  -1.300  0.00  0.00    +0.174 HD
BRANCH  14  16
ATOM     16  C   UNL     1      -2.575  -4.688   0.156  0.00  0.00    +0.091 A 
ATOM     17  C   UNL     1      -2.521  -4.489   1.528  0.00  0.00    +0.048 A 
ATOM     18  C   UNL     1      -3.666  -4.139   2.221  0.00  0.00    +0.043 A 
ATOM     19  C   UNL     1      -4.865  -3.986   1.548  0.00  0.00    +0.024 A 
ATOM     20  C   UNL     1      -4.926  -4.184   0.181  0.00  0.00    +0.049 A 
ATOM     21  C   UNL     1      -3.782  -4.529  -0.520  0.00  0.00    +0.139 A 
ATOM     22 CL   UNL     1      -3.598  -3.890   3.938  0.00  0.00    -0.083 Cl
BRANCH  21  23
ATOM     23  O   UNL     1      -3.840  -4.718  -1.866  0.00  0.00    -0.505 OA
ATOM     24  H   UNL     1      -4.040  -5.628  -2.127  0.00  0.00    +0.292 HD
ENDBRANCH  21  23
ENDBRANCH  14  16
ENDBRANCH   1  14
TORSDOF 5
