REMARK  Name = ZINC62222334
REMARK  6 active torsions:
REMARK  status: ('A' for Active; 'I' for Inactive)
REMARK    1  A    between atoms: C_1  and  C_2
REMARK    2  A    between atoms: C_9  and  C_14
REMARK    3  A    between atoms: C_14  and  C_15
REMARK    4  A    between atoms: C_15  and  N_16
REMARK    5  A    between atoms: C_17  and  C_19
REMARK    6  A    between atoms: C_20  and  C_21
REMARK                            x       y       z     vdW  Elec       q    Type
REMARK                         _______ _______ _______ _____ _____    ______ ____
ROOT
ATOM      1  N   UNL     1      -1.373  -5.850   5.498  0.00  0.00    -0.312 N 
ATOM      2  C   UNL     1      -2.496  -6.486   5.886  0.00  0.00    +0.237 C 
ATOM      3  O   UNL     1      -3.513  -6.382   5.226  0.00  0.00    -0.271 OA
ATOM      4  H   UNL     1      -0.562  -5.933   6.024  0.00  0.00    +0.149 HD
ENDROOT
BRANCH   2   5
ATOM      5  C   UNL     1      -2.491  -7.302   7.099  0.00  0.00    +0.068 C 
ATOM      6  C   UNL     1      -3.618  -7.940   7.488  0.00  0.00    +0.018 C 
BRANCH   6   7
ATOM      7  C   UNL     1      -3.593  -8.825   8.657  0.00  0.00    +0.040 A 
ATOM      8  C   UNL     1      -4.764  -9.392   9.133  0.00  0.00    +0.023 A 
ATOM      9  C   UNL     1      -4.707 -10.241  10.263  0.00  0.00    -0.001 A 
ATOM     10  C   UNL     1      -5.878 -10.830  10.766  0.00  0.00    +0.010 A 
ATOM     11  C   UNL     1      -5.814 -11.648  11.856  0.00  0.00    +0.001 A 
ATOM     12  C   UNL     1      -4.597 -11.905  12.475  0.00  0.00    +0.002 A 
ATOM     13  C   UNL     1      -3.434 -11.339  12.000  0.00  0.00    +0.026 A 
ATOM     14  C   UNL     1      -3.472 -10.501  10.889  0.00  0.00    +0.049 A 
ATOM     15  N   UNL     1      -2.309  -9.934  10.411  0.00  0.00    -0.322 N 
ATOM     16  H   UNL     1      -1.468 -10.124  10.854  0.00  0.00    +0.169 HD
ATOM     17  C   UNL     1      -2.325  -9.126   9.335  0.00  0.00    +0.256 A 
ATOM     18  O   UNL     1      -1.286  -8.640   8.925  0.00  0.00    -0.267 OA
ENDBRANCH   6   7
ENDBRANCH   2   5
BRANCH   1  19
ATOM     19  C   UNL     1      -1.377  -5.032   4.283  0.00  0.00    +0.109 C 
BRANCH  19  20
ATOM     20  C   UNL     1       0.012  -4.425   4.072  0.00  0.00    +0.059 C 
BRANCH  20  29
ATOM     21  C   UNL     1      -0.649   2.119   0.556  0.00  0.00    +0.044 C 
ATOM     22  C   UNL     1      -0.415   0.630   0.529  0.00  0.00    -0.050 A 
ATOM     23  C   UNL     1      -0.193  -0.010  -0.683  0.00  0.00    +0.005 A 
ATOM     24  C   UNL     1       0.023  -1.370  -0.731  0.00  0.00    +0.026 A 
ATOM     25  C   UNL     1       0.019  -2.112   0.447  0.00  0.00    +0.049 A 
ATOM     26  C   UNL     1      -0.206  -1.459   1.673  0.00  0.00    -0.001 A 
ATOM     27  C   UNL     1      -0.418  -0.077   1.698  0.00  0.00    +0.013 A 
ATOM     28  C   UNL     1      -0.208  -2.248   2.907  0.00  0.00    +0.019 A 
ATOM     29  C   UNL     1       0.007  -3.584   2.821  0.00  0.00    +0.019 A 
ATOM     30  C   UNL     1       0.229  -4.190   1.566  0.00  0.00    +0.252 A 
ATOM     31  O   UNL     1       0.421  -5.392   1.512  0.00  0.00    -0.268 OA
ATOM     32  N   UNL     1       0.233  -3.473   0.428  0.00  0.00    -0.322 N 
ATOM     33  H   UNL     1       0.387  -3.921  -0.418  0.00  0.00    +0.169 HD
ENDBRANCH  20  29
ENDBRANCH  19  20
ENDBRANCH   1  19
TORSDOF 5
