REMARK  Name = ZINC23858112
REMARK  9 active torsions:
REMARK  status: ('A' for Active; 'I' for Inactive)
REMARK    1  A    between atoms: C_1  and  C_2
REMARK    2  A    between atoms: C_5  and  N_33
REMARK    3  A    between atoms: C_7  and  N_8
REMARK    4  A    between atoms: C_9  and  C_11
REMARK    5  A    between atoms: N_13  and  C_14
REMARK    6  A    between atoms: C_14  and  C_15
REMARK    7  A    between atoms: C_15  and  C_17
REMARK    8  A    between atoms: C_15  and  N_27
REMARK    9  A    between atoms: N_25  and  C_26
REMARK                            x       y       z     vdW  Elec       q    Type
REMARK                         _______ _______ _______ _____ _____    ______ ____
ROOT
ATOM      1  C   UNL     1      -2.463   7.508  -1.073  0.00  0.00    +0.094 C 
ENDROOT
BRANCH   1   4
ATOM      2  C   UNL     1      -2.644   9.876  -1.617  0.00  0.00    +0.299 C 
ATOM      3  O   UNL     1      -1.516  10.028  -1.198  0.00  0.00    -0.265 OA
ATOM      4  N   UNL     1      -3.210   8.653  -1.599  0.00  0.00    -0.309 N 
ATOM      5  H   UNL     1      -4.233   8.514  -1.979  0.00  0.00    +0.149 HD
BRANCH   2   7
ATOM      6  N   UNL     1      -2.840  12.266  -2.171  0.00  0.00    -0.277 N 
ATOM      7  C   UNL     1      -3.406  11.043  -2.153  0.00  0.00    +0.303 C 
ATOM      8  O   UNL     1      -4.535  10.891  -2.572  0.00  0.00    -0.265 OA
ATOM      9  H   UNL     1      -1.792  12.392  -1.862  0.00  0.00    +0.155 HD
BRANCH   6  16
ATOM     10  C   UNL     1      -2.095  14.827  -1.181  0.00  0.00    +0.045 C 
ATOM     11  C   UNL     1      -3.255  14.644  -2.124  0.00  0.00    -0.029 A 
ATOM     12  C   UNL     1      -3.993  15.737  -2.534  0.00  0.00    +0.007 A 
ATOM     13  C   UNL     1      -5.058  15.570  -3.400  0.00  0.00    +0.033 A 
ATOM     14  C   UNL     1      -5.389  14.307  -3.858  0.00  0.00    +0.128 A 
ATOM     15  C   UNL     1      -4.652  13.210  -3.457  0.00  0.00    +0.056 A 
ATOM     16  C   UNL     1      -3.585  13.375  -2.583  0.00  0.00    +0.039 A 
BRANCH  14  17
ATOM     17  N   UNL     1      -6.530  14.133  -4.785  0.00  0.00    +0.056 N 
ATOM     18  O   UNL     1      -7.177  15.100  -5.143  0.00  0.00    -0.126 OA
ATOM     19  O   UNL     1      -6.822  13.021  -5.189  0.00  0.00    -0.126 OA
ENDBRANCH  14  17
ENDBRANCH   6  16
ENDBRANCH   2   7
ENDBRANCH   1   4
BRANCH   1  20
ATOM     20  C   UNL     1      -3.378   6.282  -1.021  0.00  0.00    -0.020 C 
BRANCH  20  21
ATOM     21  C   UNL     1      -2.595   5.092  -0.529  0.00  0.00    -0.059 A 
ATOM     22  C   UNL     1      -2.281   4.976   0.813  0.00  0.00    +0.004 A 
ATOM     23  C   UNL     1      -1.568   3.887   1.268  0.00  0.00    +0.023 A 
ATOM     24  C   UNL     1      -1.159   2.895   0.378  0.00  0.00    +0.033 A 
ATOM     25  C   UNL     1      -1.476   3.023  -0.969  0.00  0.00    -0.025 A 
ATOM     26  C   UNL     1      -2.191   4.113  -1.419  0.00  0.00    +0.007 A 
ATOM     27  C   UNL     1      -0.907   1.822  -1.699  0.00  0.00    +0.056 C 
ATOM     28  C   UNL     1       0.098   1.244  -0.677  0.00  0.00    +0.109 C 
ATOM     29  N   UNL     1      -0.444   1.712   0.617  0.00  0.00    -0.332 N 
ATOM     30  C   UNL     1       0.633   1.930   1.591  0.00  0.00    +0.129 C 
ENDBRANCH  20  21
BRANCH  20  31
ATOM     31  N   UNL     1      -4.497   6.545  -0.106  0.00  0.00    +0.385 N 
ATOM     32  C   UNL     1      -5.678   7.014  -0.841  0.00  0.00    -0.078 C 
ATOM     33  C   UNL     1      -6.863   7.137   0.121  0.00  0.00    -0.019 C 
ATOM     34  C   UNL     1      -6.507   8.124   1.236  0.00  0.00    -0.004 C 
ATOM     35  C   UNL     1      -5.245   7.638   1.954  0.00  0.00    -0.019 C 
ATOM     36  C   UNL     1      -4.108   7.500   0.940  0.00  0.00    -0.078 C 
ATOM     37  H   UNL     1      -4.762   5.598   0.387  0.00  0.00    -0.081 HD
ENDBRANCH  20  31
ENDBRANCH   1  20
TORSDOF 7
