REMARK  Name = ZINC39371152
REMARK  5 active torsions:
REMARK  status: ('A' for Active; 'I' for Inactive)
REMARK    1  A    between atoms: C_1  and  C_2
REMARK    2  A    between atoms: C_9  and  C_20
REMARK    3  A    between atoms: C_11  and  C_14
REMARK    4  A    between atoms: C_23  and  C_26
REMARK    5  A    between atoms: C_31  and  C_33
REMARK                            x       y       z     vdW  Elec       q    Type
REMARK                         _______ _______ _______ _____ _____    ______ ____
ROOT
ATOM      1  C   UNL     1      -0.741   1.446   0.038  0.00  0.00    +0.044 C 
ATOM      2  C   UNL     1      -0.524  -0.046   0.022  0.00  0.00    -0.050 A 
ATOM      3  C   UNL     1      -0.516  -0.721  -1.196  0.00  0.00    +0.005 A 
ATOM      4  C   UNL     1      -0.326  -2.068  -1.270  0.00  0.00    +0.024 A 
ATOM      5  C   UNL     1      -0.130  -2.814  -0.094  0.00  0.00    +0.041 A 
ATOM      6  N   UNL     1       0.058  -4.136  -0.168  0.00  0.00    -0.284 N 
ATOM      7  C   UNL     1       0.247  -4.906   0.886  0.00  0.00    +0.230 C 
ATOM      8  O   UNL     1       0.412  -6.103   0.743  0.00  0.00    -0.274 OA
ATOM      9  C   UNL     1       0.262  -4.302   2.272  0.00  0.00    +0.152 C 
ATOM     10  C   UNL     1       0.051  -2.804   2.381  0.00  0.00    -0.014 C 
ATOM     11  C   UNL     1      -0.139  -2.101   1.188  0.00  0.00    +0.001 A 
ATOM     12  C   UNL     1      -0.336  -0.705   1.198  0.00  0.00    +0.013 A 
ATOM     13  H   UNL     1       0.053  -4.552  -1.045  0.00  0.00    +0.155 HD
ENDROOT
BRANCH   9  14
ATOM     14  C   UNL     1       1.590  -4.629   2.905  0.00  0.00    +0.056 C 
ATOM     15  N   UNL     1       2.474  -3.778   3.230  0.00  0.00    -0.184 NA
ATOM     16  N   UNL     1       3.621  -4.325   3.801  0.00  0.00    -0.178 N 
ATOM     17  C   UNL     1       3.466  -5.788   3.862  0.00  0.00    +0.173 C 
ATOM     18  C   UNL     1       2.068  -6.021   3.254  0.00  0.00    +0.086 C 
ATOM     19  C   UNL     1       4.695  -3.630   4.227  0.00  0.00    +0.273 C 
ATOM     20  O   UNL     1       5.645  -4.216   4.711  0.00  0.00    -0.268 OA
BRANCH  17  21
ATOM     21  C   UNL     1       3.510  -6.268   5.290  0.00  0.00    +0.128 A 
ATOM     22  C   UNL     1       4.106  -7.393   5.724  0.00  0.00    +0.046 A 
ATOM     23  C   UNL     1       3.904  -7.451   7.122  0.00  0.00    +0.041 A 
ATOM     24  C   UNL     1       3.196  -6.358   7.459  0.00  0.00    +0.195 A 
ATOM     25  O   UNL     1       2.965  -5.642   6.346  0.00  0.00    -0.466 OA
ENDBRANCH  17  21
BRANCH  19  26
ATOM     26  C   UNL     1       4.718  -2.170   4.106  0.00  0.00    +0.076 A 
ATOM     27  C   UNL     1       5.715  -1.278   4.472  0.00  0.00    +0.021 A 
ATOM     28  C   UNL     1       5.446   0.048   4.232  0.00  0.00    +0.008 A 
ATOM     29  C   UNL     1       4.260   0.390   3.670  0.00  0.00    +0.046 A 
ATOM     30  S   UNL     1       3.475  -1.078   3.442  0.00  0.00    -0.092 S 
ENDBRANCH  19  26
ENDBRANCH   9  14
BRANCH  10  31
ATOM     31  C   UNL     1       0.048  -2.147   3.637  0.00  0.00    -0.020 A 
ATOM     32  C   UNL     1       0.723  -0.925   3.797  0.00  0.00    +0.008 A 
ATOM     33  C   UNL     1       0.714  -0.295   5.021  0.00  0.00    +0.001 A 
ATOM     34  C   UNL     1       0.041  -0.861   6.093  0.00  0.00    +0.000 A 
ATOM     35  C   UNL     1      -0.628  -2.065   5.945  0.00  0.00    +0.001 A 
ATOM     36  C   UNL     1      -0.635  -2.709   4.728  0.00  0.00    +0.008 A 
ENDBRANCH  10  31
TORSDOF 4
