REMARK  Name = ZINC39464643
REMARK  6 active torsions:
REMARK  status: ('A' for Active; 'I' for Inactive)
REMARK    1  A    between atoms: C_1  and  O_2
REMARK    2  A    between atoms: O_2  and  P_3
REMARK    3  A    between atoms: C_11  and  S_26
REMARK    4  A    between atoms: C_12  and  C_19
REMARK    5  A    between atoms: C_24  and  O_25
REMARK    6  A    between atoms: S_26  and  C_27
REMARK                            x       y       z     vdW  Elec       q    Type
REMARK                         _______ _______ _______ _____ _____    ______ ____
ROOT
ATOM      1  P   UNL     1       0.678  -0.865  -1.179  0.00  0.00    +0.421 P 
ATOM      2  O   UNL     1       0.324  -0.291  -2.496  0.00  0.00    -0.239 OA
ATOM      3  N   UNL     1       2.320  -0.903  -0.990  0.00  0.00    -0.156 NA
ATOM      4  N   UNL     1       2.988  -1.932  -1.615  0.00  0.00    -0.224 NA
ATOM      5  C   UNL     1       4.429  -1.834  -1.335  0.00  0.00    +0.108 C 
ATOM      6  C   UNL     1       5.180  -2.760  -2.291  0.00  0.00    +0.052 C 
ATOM      7  C   UNL     1       4.582  -4.143  -2.231  0.00  0.00    -0.040 A 
ATOM      8  C   UNL     1       5.335  -5.207  -2.702  0.00  0.00    +0.019 A 
ATOM      9  C   UNL     1       4.827  -6.496  -2.669  0.00  0.00    +0.016 A 
ATOM     10  C   UNL     1       3.543  -6.718  -2.154  0.00  0.00    -0.001 A 
ATOM     11  C   UNL     1       2.798  -5.643  -1.684  0.00  0.00    +0.015 A 
ATOM     12  C   UNL     1       3.317  -4.358  -1.723  0.00  0.00    -0.023 A 
ATOM     13  C   UNL     1       2.463  -3.232  -1.200  0.00  0.00    +0.130 C 
ATOM     14  C   UNL     1       1.025  -3.427  -1.692  0.00  0.00    +0.196 C 
ATOM     15  O   UNL     1       0.192  -2.415  -1.092  0.00  0.00    -0.294 OA
ATOM     16  H   UNL     1       2.789  -0.234  -0.467  0.00  0.00    +0.153 HD
ENDROOT
BRANCH  10  17
ATOM     17  C   UNL     1       2.984  -8.090  -2.110  0.00  0.00    +0.025 A 
ATOM     18  C   UNL     1       1.871  -8.417  -2.882  0.00  0.00    +0.012 A 
ATOM     19  C   UNL     1       1.354  -9.696  -2.838  0.00  0.00    +0.001 A 
ATOM     20  C   UNL     1       1.937 -10.656  -2.030  0.00  0.00    +0.004 A 
ATOM     21  C   UNL     1       3.041 -10.342  -1.260  0.00  0.00    +0.046 A 
ATOM     22  C   UNL     1       3.574  -9.064  -1.299  0.00  0.00    +0.125 A 
BRANCH  22  23
ATOM     23  O   UNL     1       4.663  -8.757  -0.547  0.00  0.00    -0.506 OA
ATOM     24  H   UNL     1       4.451  -8.431   0.338  0.00  0.00    +0.292 HD
ENDBRANCH  22  23
ENDBRANCH  10  17
BRANCH   1  26
ATOM     25  C   UNL     1      -0.017   1.425   0.010  0.00  0.00    +0.206 C 
ATOM     26  O   UNL     1       0.002  -0.004   0.002  0.00  0.00    -0.299 OA
ENDBRANCH   1  26
BRANCH   9  27
ATOM     27  S   UNL     1       5.788  -7.845  -3.270  0.00  0.00    -0.128 S 
ATOM     28  C   UNL     1       7.335  -7.072  -3.820  0.00  0.00    +0.090 C 
ENDBRANCH   9  27
TORSDOF 4
