REMARK  Name = ZINC66350323
REMARK  4 active torsions:
REMARK  status: ('A' for Active; 'I' for Inactive)
REMARK    1  A    between atoms: C_1  and  C_2
REMARK    2  A    between atoms: C_2  and  C_3
REMARK    3  A    between atoms: N_8  and  C_10
REMARK    4  A    between atoms: C_10  and  N_11
REMARK                            x       y       z     vdW  Elec       q    Type
REMARK                         _______ _______ _______ _____ _____    ______ ____
ROOT
ATOM      1  C   UNL     1       0.718  -0.497  -1.257  0.00  0.00    -0.028 C 
ATOM      2  C   UNL     1       2.189  -0.075  -1.207  0.00  0.00    -0.000 C 
ATOM      3  C   UNL     1       2.914  -0.640  -2.432  0.00  0.00    -0.018 C 
ATOM      4  C   UNL     1       2.748  -2.161  -2.459  0.00  0.00    -0.076 C 
ATOM      5  N   UNL     1       1.322  -2.500  -2.533  0.00  0.00    +0.393 N 
ATOM      6  C   UNL     1       0.633  -2.024  -1.328  0.00  0.00    -0.073 C 
ATOM      7  H   UNL     1       0.915  -2.063  -3.347  0.00  0.00    -0.079 HD
ENDROOT
BRANCH   1   9
ATOM      8  C   UNL     1      -0.019   1.526   0.010  0.00  0.00    +0.004 C 
ATOM      9  C   UNL     1       0.002  -0.004   0.002  0.00  0.00    -0.002 C 
ENDBRANCH   1   9
BRANCH   5  10
ATOM     10  C   UNL     1       1.171  -3.958  -2.638  0.00  0.00    +0.069 C 
BRANCH  10  11
ATOM     11  N   UNL     1       1.746  -4.418  -3.904  0.00  0.00    -0.287 N 
ATOM     12  C   UNL     1       2.996  -4.897  -4.082  0.00  0.00    +0.121 A 
ATOM     13  C   UNL     1       3.135  -5.213  -5.390  0.00  0.00    +0.055 A 
ATOM     14  C   UNL     1       1.929  -4.917  -6.035  0.00  0.00    +0.149 A 
ATOM     15  N   UNL     1       1.094  -4.446  -5.144  0.00  0.00    -0.180 NA
ATOM     16 BR   UNL     1       4.685  -5.927  -6.205  0.00  0.00    -0.047 Br
ENDBRANCH  10  11
ENDBRANCH   5  10
TORSDOF 3
