REMARK  Name = ZINC60062863
REMARK  6 active torsions:
REMARK  status: ('A' for Active; 'I' for Inactive)
REMARK    1  A    between atoms: C_1  and  C_2
REMARK    2  A    between atoms: C_2  and  C_4
REMARK    3  A    between atoms: C_2  and  O_23
REMARK    4  A    between atoms: N_6  and  C_7
REMARK    5  A    between atoms: C_14  and  C_17
REMARK    6  A    between atoms: O_23  and  C_24
REMARK                            x       y       z     vdW  Elec       q    Type
REMARK                         _______ _______ _______ _____ _____    ______ ____
ROOT
ATOM      1  C   UNL     1       0.840   0.039   1.491  0.00  0.00    +0.258 C 
ATOM      2  O   UNL     1       0.169  -0.084   2.494  0.00  0.00    -0.271 OA
ATOM      3  N   UNL     1       2.154  -0.262   1.518  0.00  0.00    -0.282 N 
ATOM      4  H   UNL     1       2.707  -0.091   0.740  0.00  0.00    +0.155 HD
ENDROOT
BRANCH   3   5
ATOM      5  C   UNL     1       2.720  -0.824   2.670  0.00  0.00    +0.036 A 
ATOM      6  C   UNL     1       1.976  -1.710   3.446  0.00  0.00    +0.025 A 
ATOM      7  C   UNL     1       2.521  -2.269   4.581  0.00  0.00    +0.029 A 
ATOM      8  C   UNL     1       3.819  -1.950   4.956  0.00  0.00    +0.066 A 
ATOM      9  C   UNL     1       4.576  -1.057   4.179  0.00  0.00    +0.091 A 
ATOM     10  C   UNL     1       4.015  -0.500   3.027  0.00  0.00    +0.053 A 
ATOM     11  N   UNL     1       5.787  -0.937   4.781  0.00  0.00    -0.230 NA
ATOM     12  C   UNL     1       5.821  -1.679   5.849  0.00  0.00    +0.137 A 
ATOM     13  N   UNL     1       4.635  -2.326   6.006  0.00  0.00    -0.340 N 
ATOM     14  H   UNL     1       4.404  -2.937   6.723  0.00  0.00    +0.167 HD
BRANCH  12  15
ATOM     15  C   UNL     1       7.002  -1.804   6.776  0.00  0.00    +0.184 C 
ATOM     16  C   UNL     1       8.252  -2.232   5.978  0.00  0.00    +0.042 C 
ATOM     17  C   UNL     1       8.939  -3.230   6.949  0.00  0.00    +0.031 C 
ATOM     18  C   UNL     1       7.705  -3.880   7.624  0.00  0.00    +0.161 C 
ATOM     19  O   UNL     1       6.745  -2.817   7.756  0.00  0.00    -0.369 OA
ENDBRANCH  12  15
ENDBRANCH   3   5
BRANCH   1  21
ATOM     20  C   UNL     1       0.805   1.885  -0.164  0.00  0.00    +0.062 C 
ATOM     21  C   UNL     1       0.206   0.530   0.215  0.00  0.00    +0.256 C 
BRANCH  21  22
ATOM     22  O   UNL     1      -1.203   0.669   0.407  0.00  0.00    -0.478 OA
BRANCH  22  23
ATOM     23  C   UNL     1      -1.988   0.586  -0.700  0.00  0.00    +0.140 A 
ATOM     24  C   UNL     1      -1.408   0.483  -1.956  0.00  0.00    +0.048 A 
ATOM     25  C   UNL     1      -2.207   0.400  -3.080  0.00  0.00    +0.023 A 
ATOM     26  C   UNL     1      -3.585   0.418  -2.954  0.00  0.00    +0.043 A 
ATOM     27  C   UNL     1      -4.166   0.520  -1.703  0.00  0.00    +0.043 A 
ATOM     28  C   UNL     1      -3.370   0.599  -0.575  0.00  0.00    +0.084 A 
ATOM     29 CL   UNL     1      -4.099   0.720   0.996  0.00  0.00    -0.080 Cl
ATOM     30 CL   UNL     1      -4.586   0.313  -4.369  0.00  0.00    -0.083 Cl
ENDBRANCH  22  23
ENDBRANCH  21  22
ENDBRANCH   1  21
TORSDOF 5
