REMARK  Name = ZINC09712231
REMARK  10 active torsions:
REMARK  status: ('A' for Active; 'I' for Inactive)
REMARK    1  A    between atoms: C_1  and  C_2
REMARK    2  A    between atoms: C_3  and  C_33
REMARK    3  A    between atoms: N_4  and  C_27
REMARK    4  A    between atoms: C_5  and  N_9
REMARK    5  A    between atoms: C_6  and  C_7
REMARK    6  A    between atoms: C_10  and  C_12
REMARK    7  A    between atoms: C_12  and  N_63
REMARK    8  A    between atoms: C_15  and  C_18
REMARK    9  A    between atoms: N_20  and  C_21
REMARK   10  A    between atoms: C_27  and  C_28
REMARK                            x       y       z     vdW  Elec       q    Type
REMARK                         _______ _______ _______ _____ _____    ______ ____
ROOT
ATOM      1  N   UNL     1      -1.240   6.248   1.802  0.00  0.00    -0.272 N 
ATOM      2  C   UNL     1      -0.923   6.259   0.492  0.00  0.00    +0.202 C 
ATOM      3  O   UNL     1      -1.651   5.718  -0.313  0.00  0.00    -0.278 OA
ATOM      4  H   UNL     1      -0.661   6.687   2.445  0.00  0.00    +0.156 HD
ENDROOT
BRANCH   1   9
ATOM      5  C   UNL     1      -4.787   2.775   2.748  0.00  0.00    +0.047 C 
ATOM      6  C   UNL     1      -4.016   4.067   2.673  0.00  0.00    -0.011 A 
ATOM      7  C   UNL     1      -4.396   5.258   3.164  0.00  0.00    +0.022 A 
ATOM      8  N   UNL     1      -3.428   6.188   2.896  0.00  0.00    -0.327 N 
ATOM      9  C   UNL     1      -2.395   5.610   2.231  0.00  0.00    +0.124 A 
ATOM     10  C   UNL     1      -2.699   4.267   2.055  0.00  0.00    +0.095 A 
ATOM     11  C   UNL     1      -5.687   5.528   3.894  0.00  0.00    +0.064 C 
BRANCH  10  12
ATOM     12  C   UNL     1      -1.893   3.279   1.404  0.00  0.00    +0.103 C 
ATOM     13  N   UNL     1      -1.254   2.495   0.887  0.00  0.00    -0.191 NA
ENDBRANCH  10  12
BRANCH   8  14
ATOM     14  C   UNL     1      -3.494   7.601   3.277  0.00  0.00    +0.165 C 
BRANCH  14  15
ATOM     15  C   UNL     1      -4.224   8.376   2.210  0.00  0.00    +0.009 A 
ATOM     16  C   UNL     1      -5.557   8.578   2.062  0.00  0.00    +0.013 A 
ATOM     17  C   UNL     1      -6.006   9.328   0.992  0.00  0.00    +0.008 A 
ATOM     18  C   UNL     1      -5.101   9.848   0.128  0.00  0.00    +0.045 A 
ATOM     19  S   UNL     1      -3.559   9.271   0.816  0.00  0.00    -0.100 S 
ENDBRANCH  14  15
ENDBRANCH   8  14
ENDBRANCH   1   9
BRANCH   2  20
ATOM     20  C   UNL     1       0.336   6.944   0.028  0.00  0.00    +0.019 C 
BRANCH  20  26
ATOM     21  C   UNL     1       0.974   5.297  -1.627  0.00  0.00    -0.077 C 
ATOM     22  C   UNL     1       1.033   5.016  -3.131  0.00  0.00    -0.006 C 
ATOM     23  C   UNL     1       2.012   5.993  -3.789  0.00  0.00    +0.072 C 
ATOM     24  C   UNL     1       1.562   7.427  -3.500  0.00  0.00    -0.006 C 
ATOM     25  C   UNL     1       1.487   7.638  -1.986  0.00  0.00    -0.077 C 
ATOM     26  N   UNL     1       0.511   6.685  -1.416  0.00  0.00    +0.385 N 
ATOM     27  H   UNL     1      -0.392   6.810  -1.889  0.00  0.00    -0.081 HD
BRANCH  23  28
ATOM     28  C   UNL     1       2.029   5.761  -5.278  0.00  0.00    +0.220 C 
ATOM     29  O   UNL     1       1.713   6.655  -6.035  0.00  0.00    -0.275 OA
ATOM     30  N   UNL     1       2.396   4.561  -5.769  0.00  0.00    -0.285 N 
ATOM     31  H   UNL     1       2.568   3.822  -5.165  0.00  0.00    +0.155 HD
BRANCH  30  32
ATOM     32  C   UNL     1       2.529   4.381  -7.150  0.00  0.00    +0.033 A 
ATOM     33  C   UNL     1       2.235   3.150  -7.723  0.00  0.00    +0.023 A 
ATOM     34  C   UNL     1       2.363   2.977  -9.087  0.00  0.00    +0.002 A 
ATOM     35  C   UNL     1       2.792   4.024  -9.882  0.00  0.00    +0.000 A 
ATOM     36  C   UNL     1       3.090   5.249  -9.314  0.00  0.00    +0.002 A 
ATOM     37  C   UNL     1       2.959   5.430  -7.951  0.00  0.00    +0.023 A 
ENDBRANCH  30  32
ENDBRANCH  23  28
ENDBRANCH  20  26
ENDBRANCH   2  20
TORSDOF 8
