REMARK  Name = ZINC43757665
REMARK  10 active torsions:
REMARK  status: ('A' for Active; 'I' for Inactive)
REMARK    1  A    between atoms: C_1  and  C_2
REMARK    2  A    between atoms: C_4  and  O_42
REMARK    3  A    between atoms: C_14  and  C_20
REMARK    4  A    between atoms: C_16  and  C_18
REMARK    5  A    between atoms: C_16  and  C_19
REMARK    6  A    between atoms: C_20  and  C_22
REMARK    7  A    between atoms: C_22  and  O_23
REMARK    8  A    between atoms: O_23  and  C_24
REMARK    9  A    between atoms: C_24  and  C_26
REMARK   10  A    between atoms: C_38  and  C_39
REMARK                            x       y       z     vdW  Elec       q    Type
REMARK                         _______ _______ _______ _____ _____    ______ ____
ROOT
ATOM      1  C   UNL     1       0.763  -0.278   2.515  0.00  0.00    +0.015 C 
ATOM      2  C   UNL     1       0.488  -1.554   1.717  0.00  0.00    +0.012 C 
ATOM      3  C   UNL     1      -0.718  -1.313   0.860  0.00  0.00    +0.044 C 
ATOM      4  C   UNL     1      -1.348  -2.598   0.336  0.00  0.00    +0.154 C 
ATOM      5  C   UNL     1      -1.699  -3.485   1.535  0.00  0.00    +0.153 C 
ATOM      6  C   UNL     1      -0.413  -3.892   2.232  0.00  0.00    +0.037 C 
ATOM      7  C   UNL     1       0.394  -2.720   2.714  0.00  0.00    +0.007 C 
ATOM      8  C   UNL     1       1.866  -3.212   2.919  0.00  0.00    +0.039 C 
ATOM      9  C   UNL     1       2.700  -2.239   2.128  0.00  0.00    +0.162 C 
ATOM     10  C   UNL     1       1.734  -1.881   0.931  0.00  0.00    +0.165 C 
ATOM     11  O   UNL     1       2.538  -0.960   0.246  0.00  0.00    -0.332 OA
ATOM     12  C   UNL     1       3.896  -1.454   0.422  0.00  0.00    +0.166 C 
ATOM     13  O   UNL     1       3.845  -2.552   1.374  0.00  0.00    -0.343 OA
ATOM     14  C   UNL     1       4.439  -1.962  -0.914  0.00  0.00    +0.074 C 
ATOM     15  C   UNL     1       4.790  -0.332   0.952  0.00  0.00    +0.074 C 
ATOM     16  C   UNL     1      -0.764  -4.821   3.403  0.00  0.00    +0.048 C 
ATOM     17  C   UNL     1      -1.187  -6.169   2.816  0.00  0.00    +0.194 C 
ATOM     18  C   UNL     1      -2.221  -5.971   1.746  0.00  0.00    -0.020 C 
ATOM     19  C   UNL     1      -2.914  -7.050   1.315  0.00  0.00    +0.054 C 
ATOM     20  C   UNL     1      -3.880  -6.772   0.217  0.00  0.00    +0.179 C 
ATOM     21  O   UNL     1      -4.992  -7.264   0.182  0.00  0.00    -0.288 OA
ATOM     22  C   UNL     1      -3.380  -5.846  -0.837  0.00  0.00    +0.047 C 
ATOM     23  C   UNL     1      -2.684  -4.782  -0.378  0.00  0.00    -0.009 C 
ATOM     24  C   UNL     1      -2.534  -4.659   1.112  0.00  0.00    +0.047 C 
ATOM     25  C   UNL     1      -3.946  -4.324   1.597  0.00  0.00    +0.023 C 
ATOM     26  F   UNL     1      -0.070  -6.805   2.264  0.00  0.00    -0.241 F 
ATOM     27  F   UNL     1      -2.446  -2.721   2.438  0.00  0.00    -0.238 F 
ENDROOT
BRANCH  10  28
ATOM     28  C   UNL     1       1.501  -3.097   0.073  0.00  0.00    +0.205 C 
ATOM     29  O   UNL     1       1.353  -4.179   0.587  0.00  0.00    -0.291 OA
BRANCH  28  30
ATOM     30  C   UNL     1       1.453  -2.962  -1.427  0.00  0.00    +0.309 C 
BRANCH  30  31
ATOM     31  O   UNL     1       1.037  -4.202  -2.004  0.00  0.00    -0.457 OA
BRANCH  31  32
ATOM     32  C   UNL     1       0.943  -4.250  -3.342  0.00  0.00    +0.311 C 
ATOM     33  O   UNL     1       1.204  -3.272  -4.002  0.00  0.00    -0.251 OA
BRANCH  32  34
ATOM     34  C   UNL     1       0.510  -5.524  -4.021  0.00  0.00    +0.098 C 
ATOM     35  C   UNL     1       1.555  -6.271  -4.852  0.00  0.00    +0.015 C 
ATOM     36  C   UNL     1       0.422  -5.515  -5.549  0.00  0.00    +0.015 C 
ENDBRANCH  32  34
ENDBRANCH  31  32
ENDBRANCH  30  31
ENDBRANCH  28  30
ENDBRANCH  10  28
BRANCH   4  37
ATOM     37  O   UNL     1      -0.421  -3.278  -0.513  0.00  0.00    -0.389 OA
ATOM     38  H   UNL     1      -0.599  -3.168  -1.457  0.00  0.00    +0.210 HD
ENDBRANCH   4  37
TORSDOF 6
