REMARK  Name = ZINC25581471
REMARK  11 active torsions:
REMARK  status: ('A' for Active; 'I' for Inactive)
REMARK    1  A    between atoms: C_1  and  C_2
REMARK    2  A    between atoms: C_5  and  C_8
REMARK    3  A    between atoms: C_8  and  C_10
REMARK    4  A    between atoms: C_8  and  N_15
REMARK    5  A    between atoms: C_16  and  C_18
REMARK    6  A    between atoms: C_18  and  S_19
REMARK    7  A    between atoms: S_19  and  C_20
REMARK    8  A    between atoms: C_21  and  C_29
REMARK    9  A    between atoms: C_22  and  C_28
REMARK   10  A    between atoms: C_23  and  C_27
REMARK   11  A    between atoms: C_24  and  C_26
REMARK                            x       y       z     vdW  Elec       q    Type
REMARK                         _______ _______ _______ _____ _____    ______ ____
ROOT
ATOM      1  N   UNL     1       4.344   1.921   5.096  0.00  0.00    -0.303 N 
ATOM      2  C   UNL     1       3.050   2.204   5.345  0.00  0.00    +0.224 C 
ATOM      3  O   UNL     1       2.715   2.589   6.445  0.00  0.00    -0.275 OA
ATOM      4  H   UNL     1       4.648   1.572   4.098  0.00  0.00    +0.150 HD
ENDROOT
BRANCH   1   5
ATOM      5  C   UNL     1       5.346   2.080   6.153  0.00  0.00    +0.140 C 
BRANCH   5  10
ATOM      6  C   UNL     1      10.537   2.965   3.772  0.00  0.00    +0.044 C 
ATOM      7  C   UNL     1       9.183   2.734   4.393  0.00  0.00    -0.050 A 
ATOM      8  C   UNL     1       8.809   3.442   5.520  0.00  0.00    +0.004 A 
ATOM      9  C   UNL     1       7.567   3.231   6.089  0.00  0.00    +0.006 A 
ATOM     10  C   UNL     1       6.699   2.311   5.532  0.00  0.00    -0.022 A 
ATOM     11  C   UNL     1       7.075   1.598   4.409  0.00  0.00    +0.006 A 
ATOM     12  C   UNL     1       8.315   1.813   3.837  0.00  0.00    +0.004 A 
ENDBRANCH   5  10
BRANCH   5  13
ATOM     13  C   UNL     1       5.386   0.832   6.997  0.00  0.00    +0.014 A 
ATOM     14  C   UNL     1       5.520   0.715   8.341  0.00  0.00    +0.013 A 
ATOM     15  C   UNL     1       5.527  -0.546   8.906  0.00  0.00    +0.008 A 
ATOM     16  C   UNL     1       5.412  -1.629   8.099  0.00  0.00    +0.045 A 
ATOM     17  S   UNL     1       5.279  -0.875   6.486  0.00  0.00    -0.099 S 
ENDBRANCH   5  13
ENDBRANCH   1   5
BRANCH   2  18
ATOM     18  C   UNL     1       2.020   2.041   4.258  0.00  0.00    +0.171 C 
BRANCH  18  19
ATOM     19  S   UNL     1       0.389   2.495   4.898  0.00  0.00    -0.096 S 
BRANCH  19  20
ATOM     20  C   UNL     1      -0.592   2.219   3.461  0.00  0.00    +0.110 A 
ATOM     21  C   UNL     1      -1.978   2.453   3.505  0.00  0.00    +0.071 A 
ATOM     22  C   UNL     1      -2.736   2.226   2.350  0.00  0.00    -0.031 A 
ATOM     23  C   UNL     1      -2.085   1.785   1.212  0.00  0.00    -0.026 A 
ATOM     24  C   UNL     1      -0.718   1.572   1.248  0.00  0.00    +0.043 A 
ATOM     25  N   UNL     1      -0.021   1.791   2.345  0.00  0.00    -0.245 NA
ATOM     26  C   UNL     1      -0.013   1.086   0.008  0.00  0.00    +0.066 C 
ATOM     27  C   UNL     1      -2.859   1.533  -0.056  0.00  0.00    +0.046 C 
ATOM     28  C   UNL     1      -4.224   2.463   2.345  0.00  0.00    +0.045 C 
BRANCH  21  29
ATOM     29  C   UNL     1      -2.620   2.929   4.743  0.00  0.00    +0.244 C 
ATOM     30  O   UNL     1      -2.726   4.122   4.953  0.00  0.00    -0.270 OA
ATOM     31  N   UNL     1      -3.091   2.042   5.642  0.00  0.00    -0.325 N 
ATOM     32  H   UNL     1      -3.570   2.397   6.566  0.00  0.00    +0.145 HD
ATOM     33  H   UNL     1      -2.995   0.963   5.452  0.00  0.00    +0.145 HD
ENDBRANCH  21  29
ENDBRANCH  19  20
ENDBRANCH  18  19
ENDBRANCH   2  18
TORSDOF 7
