REMARK  Name = ZINC05718535
REMARK  6 active torsions:
REMARK  status: ('A' for Active; 'I' for Inactive)
REMARK    1  A    between atoms: C_1  and  C_2
REMARK    2  A    between atoms: C_2  and  O_3
REMARK    3  A    between atoms: O_3  and  C_4
REMARK    4  A    between atoms: C_6  and  C_11
REMARK    5  A    between atoms: C_9  and  O_10
REMARK    6  A    between atoms: N_12  and  N_13
REMARK                            x       y       z     vdW  Elec       q    Type
REMARK                         _______ _______ _______ _____ _____    ______ ____
ROOT
ATOM      1  N   UNL     1      -0.653  -7.105  -1.314  0.00  0.00    -0.220 N 
ATOM      2  C   UNL     1      -0.539  -8.475  -1.161  0.00  0.00    +0.150 A 
ATOM      3  C   UNL     1      -1.094  -9.358  -2.127  0.00  0.00    +0.052 A 
ATOM      4  C   UNL     1      -1.828  -9.024  -3.359  0.00  0.00    -0.025 A 
ATOM      5  C   UNL     1      -2.252 -10.052  -4.111  0.00  0.00    -0.004 A 
ATOM      6  S   UNL     1      -1.716 -11.511  -3.246  0.00  0.00    -0.073 S 
ATOM      7  C   UNL     1      -0.918 -10.730  -1.870  0.00  0.00    +0.114 A 
ATOM      8  N   UNL     1      -0.278 -11.153  -0.796  0.00  0.00    -0.228 NA
ATOM      9  C   UNL     1       0.216 -10.286   0.067  0.00  0.00    +0.224 A 
ATOM     10  N   UNL     1       0.093  -8.984  -0.115  0.00  0.00    -0.219 NA
ATOM     11  C   UNL     1      -2.983  -9.591  -5.343  0.00  0.00    +0.043 C 
ATOM     12  C   UNL     1      -2.591  -8.105  -5.494  0.00  0.00    +0.010 C 
ATOM     13  C   UNL     1      -2.258  -7.721  -4.039  0.00  0.00    +0.037 C 
ATOM     14  H   UNL     1      -1.114  -6.740  -2.085  0.00  0.00    +0.176 HD
ENDROOT
BRANCH   1  16
ATOM     15  C   UNL     1      -0.209  -4.959  -0.499  0.00  0.00    +0.138 C 
ATOM     16  N   UNL     1      -0.102  -6.245  -0.355  0.00  0.00    -0.189 NA
BRANCH  15  19
ATOM     17  C   UNL     1       0.802  -1.825   1.306  0.00  0.00    +0.162 A 
ATOM     18  C   UNL     1       0.256  -2.670   0.357  0.00  0.00    +0.059 A 
ATOM     19  C   UNL     1       0.370  -4.054   0.510  0.00  0.00    -0.002 A 
ATOM     20  C   UNL     1       1.036  -4.577   1.621  0.00  0.00    +0.013 A 
ATOM     21  C   UNL     1       1.577  -3.729   2.564  0.00  0.00    +0.050 A 
ATOM     22  C   UNL     1       1.468  -2.355   2.409  0.00  0.00    +0.158 A 
BRANCH  22  23
ATOM     23  O   UNL     1       2.009  -1.522   3.338  0.00  0.00    -0.503 OA
ATOM     24  H   UNL     1       1.407  -1.294   4.059  0.00  0.00    +0.292 HD
ENDBRANCH  22  23
BRANCH  17  25
ATOM     25  O   UNL     1       0.693  -0.477   1.160  0.00  0.00    -0.489 OA
BRANCH  25  27
ATOM     26  C   UNL     1      -0.019   1.526   0.010  0.00  0.00    +0.048 C 
ATOM     27  C   UNL     1       0.002  -0.004   0.002  0.00  0.00    +0.226 C 
ENDBRANCH  25  27
ENDBRANCH  17  25
ENDBRANCH  15  19
ENDBRANCH   1  16
TORSDOF 5
