REMARK  Name = ZINC46914822
REMARK  7 active torsions:
REMARK  status: ('A' for Active; 'I' for Inactive)
REMARK    1  A    between atoms: C_1  and  C_2
REMARK    2  A    between atoms: C_5  and  O_9
REMARK    3  A    between atoms: O_9  and  C_10
REMARK    4  A    between atoms: C_10  and  C_12
REMARK    5  A    between atoms: C_10  and  C_13
REMARK    6  A    between atoms: N_15  and  C_16
REMARK    7  A    between atoms: C_19  and  N_22
REMARK                            x       y       z     vdW  Elec       q    Type
REMARK                         _______ _______ _______ _____ _____    ______ ____
ROOT
ATOM      1  C   UNL     1       0.756  -6.076  -1.265  0.00  0.00    +0.258 C 
ATOM      2  O   UNL     1       1.329  -6.442  -0.261  0.00  0.00    -0.271 OA
ATOM      3  N   UNL     1       0.681  -6.894  -2.334  0.00  0.00    -0.282 N 
ATOM      4  H   UNL     1       0.289  -6.575  -3.162  0.00  0.00    +0.155 HD
ENDROOT
BRANCH   3   5
ATOM      5  C   UNL     1       1.168  -8.204  -2.249  0.00  0.00    +0.034 A 
ATOM      6  C   UNL     1       1.752  -8.801  -3.358  0.00  0.00    +0.025 A 
ATOM      7  C   UNL     1       2.232 -10.093  -3.274  0.00  0.00    +0.025 A 
ATOM      8  C   UNL     1       2.130 -10.796  -2.081  0.00  0.00    +0.038 A 
ATOM      9  C   UNL     1       1.546 -10.199  -0.971  0.00  0.00    +0.025 A 
ATOM     10  C   UNL     1       1.071  -8.905  -1.053  0.00  0.00    +0.025 A 
BRANCH   8  11
ATOM     11  N   UNL     1       2.617 -12.107  -1.996  0.00  0.00    -0.254 N 
ATOM     12  C   UNL     1       2.459 -13.001  -0.839  0.00  0.00    +0.134 C 
ATOM     13  C   UNL     1       3.171 -14.297  -1.274  0.00  0.00    +0.125 C 
ATOM     14  N   UNL     1       3.654 -13.995  -2.630  0.00  0.00    -0.297 N 
ATOM     15  C   UNL     1       3.294 -12.747  -2.958  0.00  0.00    +0.307 C 
ATOM     16  O   UNL     1       3.561 -12.240  -4.030  0.00  0.00    -0.252 OA
ATOM     17  H   UNL     1       4.150 -14.604  -3.198  0.00  0.00    +0.150 HD
ENDBRANCH   8  11
ENDBRANCH   3   5
BRANCH   1  18
ATOM     18  C   UNL     1       0.129  -4.707  -1.318  0.00  0.00    +0.256 C 
ATOM     19  C   UNL     1      -1.389  -4.846  -1.448  0.00  0.00    +0.062 C 
BRANCH  18  20
ATOM     20  O   UNL     1       0.441  -3.993  -0.120  0.00  0.00    -0.479 OA
BRANCH  20  25
ATOM     21  C   UNL     1       0.284   1.632  -0.380  0.00  0.00    +0.044 C 
ATOM     22  C   UNL     1       0.326   0.127  -0.310  0.00  0.00    -0.049 A 
ATOM     23  C   UNL     1       0.079  -0.624  -1.444  0.00  0.00    +0.007 A 
ATOM     24  C   UNL     1       0.117  -2.003  -1.383  0.00  0.00    +0.047 A 
ATOM     25  C   UNL     1       0.403  -2.636  -0.182  0.00  0.00    +0.136 A 
ATOM     26  C   UNL     1       0.651  -1.881   0.955  0.00  0.00    +0.060 A 
ATOM     27  C   UNL     1       0.617  -0.500   0.887  0.00  0.00    +0.022 A 
ATOM     28 BR   UNL     1       1.041  -2.739   2.595  0.00  0.00    -0.047 Br
ENDBRANCH  20  25
ENDBRANCH  18  20
ENDBRANCH   1  18
TORSDOF 5
