REMARK  Name = ZINC63425986
REMARK  12 active torsions:
REMARK  status: ('A' for Active; 'I' for Inactive)
REMARK    1  A    between atoms: C_1  and  C_2
REMARK    2  A    between atoms: C_2  and  C_3
REMARK    3  A    between atoms: C_2  and  C_4
REMARK    4  A    between atoms: C_2  and  O_5
REMARK    5  A    between atoms: O_5  and  C_6
REMARK    6  A    between atoms: N_8  and  C_9
REMARK    7  A    between atoms: C_9  and  C_11
REMARK    8  A    between atoms: C_9  and  C_21
REMARK    9  A    between atoms: C_11  and  C_12
REMARK   10  A    between atoms: C_25  and  S_28
REMARK   11  A    between atoms: S_28  and  C_29
REMARK   12  A    between atoms: C_29  and  C_30
REMARK                            x       y       z     vdW  Elec       q    Type
REMARK                         _______ _______ _______ _____ _____    ______ ____
ROOT
ATOM      1  C   UNL     1       4.138   0.123  -2.473  0.00  0.00    +0.133 C 
ENDROOT
BRANCH   1   2
ATOM      2  C   UNL     1       5.111  -0.616  -1.552  0.00  0.00    +0.280 C 
ATOM      3  N   UNL     1       4.614  -0.605  -0.171  0.00  0.00    -0.155 NA
ATOM      4  N   UNL     1       4.737  -1.729   0.335  0.00  0.00    -0.146 NA
ATOM      5  C   UNL     1       5.334  -2.655  -0.636  0.00  0.00    +0.319 C 
ATOM      6  O   UNL     1       5.186  -2.010  -1.919  0.00  0.00    -0.316 OA
BRANCH   5   7
ATOM      7  S   UNL     1       4.451  -4.240  -0.619  0.00  0.00    -0.100 S 
BRANCH   7   8
ATOM      8  C   UNL     1       2.775  -3.814  -1.167  0.00  0.00    +0.108 C 
BRANCH   8   9
ATOM      9  C   UNL     1       1.893  -5.032  -1.079  0.00  0.00    -0.037 A 
ATOM     10  C   UNL     1       1.786  -5.887  -2.161  0.00  0.00    +0.007 A 
ATOM     11  C   UNL     1       0.977  -7.005  -2.081  0.00  0.00    +0.038 A 
ATOM     12  C   UNL     1       0.274  -7.269  -0.918  0.00  0.00    +0.123 A 
ATOM     13  C   UNL     1       0.382  -6.412   0.164  0.00  0.00    +0.038 A 
ATOM     14  C   UNL     1       1.195  -5.297   0.084  0.00  0.00    +0.007 A 
ATOM     15  F   UNL     1      -0.517  -8.361  -0.839  0.00  0.00    -0.205 F 
ENDBRANCH   8   9
ENDBRANCH   7   8
ENDBRANCH   5   7
ENDBRANCH   1   2
BRANCH   1  18
ATOM     16  C   UNL     1       2.159  -0.973  -3.379  0.00  0.00    +0.401 C 
ATOM     17  O   UNL     1       2.663  -0.910  -4.482  0.00  0.00    -0.226 OA
ATOM     18  N   UNL     1       2.794  -0.441  -2.316  0.00  0.00    -0.274 N 
ATOM     19  H   UNL     1       2.362  -0.430  -1.448  0.00  0.00    +0.152 HD
BRANCH  16  20
ATOM     20  O   UNL     1       0.966  -1.575  -3.217  0.00  0.00    -0.445 OA
BRANCH  20  22
ATOM     21  C   UNL     1       1.266  -3.189  -4.991  0.00  0.00    +0.055 C 
ATOM     22  C   UNL     1       0.351  -2.122  -4.386  0.00  0.00    +0.107 C 
ATOM     23  C   UNL     1       0.120  -1.009  -5.409  0.00  0.00    +0.055 C 
ATOM     24  C   UNL     1      -0.990  -2.755  -4.008  0.00  0.00    +0.055 C 
ENDBRANCH  20  22
ENDBRANCH  16  20
ENDBRANCH   1  18
BRANCH   1  25
ATOM     25  C   UNL     1       4.114   1.607  -2.103  0.00  0.00    +0.060 C 
BRANCH  25  26
ATOM     26  C   UNL     1       3.251   2.356  -3.086  0.00  0.00    -0.040 C 
ATOM     27  C   UNL     1       1.945   2.676  -2.942  0.00  0.00    -0.001 A 
ATOM     28  C   UNL     1       0.974   2.431  -1.869  0.00  0.00    +0.010 A 
ATOM     29  C   UNL     1      -0.293   2.882  -2.014  0.00  0.00    +0.001 A 
ATOM     30  C   UNL     1      -0.701   3.577  -3.162  0.00  0.00    +0.002 A 
ATOM     31  C   UNL     1       0.134   3.840  -4.190  0.00  0.00    +0.026 A 
ATOM     32  C   UNL     1       1.489   3.412  -4.143  0.00  0.00    +0.043 A 
ATOM     33  N   UNL     1       2.476   3.542  -4.997  0.00  0.00    -0.380 N 
ATOM     34  C   UNL     1       3.671   2.908  -4.430  0.00  0.00    +0.144 C 
ATOM     35  H   UNL     1       2.425   3.986  -5.857  0.00  0.00    +0.160 HD
ENDBRANCH  25  26
ENDBRANCH   1  25
TORSDOF 9
