REMARK  Name = ZINC63496343
REMARK  6 active torsions:
REMARK  status: ('A' for Active; 'I' for Inactive)
REMARK    1  A    between atoms: C_1  and  C_2
REMARK    2  A    between atoms: C_5  and  N_8
REMARK    3  A    between atoms: N_8  and  C_9
REMARK    4  A    between atoms: C_9  and  C_10
REMARK    5  A    between atoms: C_10  and  C_11
REMARK    6  A    between atoms: C_13  and  C_15
REMARK                            x       y       z     vdW  Elec       q    Type
REMARK                         _______ _______ _______ _____ _____    ______ ____
ROOT
ATOM      1  N   UNL     1       0.356  -4.152  -0.050  0.00  0.00    -0.265 N 
ATOM      2  C   UNL     1      -0.039  -4.719  -1.207  0.00  0.00    +0.267 C 
ATOM      3  O   UNL     1      -0.322  -4.019  -2.161  0.00  0.00    -0.268 OA
ENDROOT
BRANCH   2   4
ATOM      4  C   UNL     1      -0.127  -6.182  -1.315  0.00  0.00    +0.103 A 
ATOM      5  C   UNL     1      -0.349  -6.875  -2.463  0.00  0.00    +0.041 A 
ATOM      6  C   UNL     1      -0.362  -8.253  -2.140  0.00  0.00    +0.002 A 
ATOM      7  C   UNL     1      -0.543  -9.418  -2.898  0.00  0.00    +0.030 A 
ATOM      8  C   UNL     1      -0.501 -10.638  -2.288  0.00  0.00    +0.042 A 
ATOM      9  C   UNL     1      -0.281 -10.737  -0.918  0.00  0.00    +0.022 A 
ATOM     10  C   UNL     1      -0.101  -9.607  -0.153  0.00  0.00    +0.027 A 
ATOM     11  C   UNL     1      -0.139  -8.352  -0.753  0.00  0.00    +0.047 A 
ATOM     12  N   UNL     1       0.008  -7.073  -0.268  0.00  0.00    -0.351 N 
ATOM     13  H   UNL     1       0.177  -6.835   0.657  0.00  0.00    +0.166 HD
ATOM     14 CL   UNL     1      -0.725 -12.079  -3.229  0.00  0.00    -0.084 Cl
ENDBRANCH   2   4
BRANCH   1  19
ATOM     15  C   UNL     1       0.453   1.497   0.453  0.00  0.00    +0.044 C 
ATOM     16  C   UNL     1       0.427  -0.003   0.319  0.00  0.00    -0.050 A 
ATOM     17  C   UNL     1       0.170  -0.583  -0.910  0.00  0.00    +0.005 A 
ATOM     18  C   UNL     1       0.146  -1.958  -1.036  0.00  0.00    +0.024 A 
ATOM     19  C   UNL     1       0.381  -2.759   0.074  0.00  0.00    +0.037 A 
ATOM     20  C   UNL     1       0.638  -2.174   1.307  0.00  0.00    +0.024 A 
ATOM     21  C   UNL     1       0.666  -0.798   1.425  0.00  0.00    +0.005 A 
ENDBRANCH   1  19
BRANCH   1  22
ATOM     22  C   UNL     1       0.761  -4.994   1.078  0.00  0.00    +0.129 C 
BRANCH  22  23
ATOM     23  C   UNL     1      -0.481  -5.439   1.854  0.00  0.00    +0.138 C 
BRANCH  23  24
ATOM     24  C   UNL     1      -0.074  -6.285   2.988  0.00  0.00    +0.064 C 
ATOM     25  N   UNL     1       0.239  -6.939   3.862  0.00  0.00    -0.197 NA
ENDBRANCH  23  24
ENDBRANCH  22  23
ENDBRANCH   1  22
TORSDOF 5
