REMARK  Name = ZINC38688441
REMARK  10 active torsions:
REMARK  status: ('A' for Active; 'I' for Inactive)
REMARK    1  A    between atoms: C_1  and  O_2
REMARK    2  A    between atoms: O_2  and  C_3
REMARK    3  A    between atoms: C_6  and  C_11
REMARK    4  A    between atoms: C_7  and  O_9
REMARK    5  A    between atoms: O_9  and  C_10
REMARK    6  A    between atoms: C_16  and  O_25
REMARK    7  A    between atoms: C_20  and  N_24
REMARK    8  A    between atoms: C_21  and  C_22
REMARK    9  A    between atoms: O_25  and  C_26
REMARK   10  A    between atoms: C_26  and  C_28
REMARK                            x       y       z     vdW  Elec       q    Type
REMARK                         _______ _______ _______ _____ _____    ______ ____
ROOT
ATOM      1  C   UNL     1      -4.937  -2.635  -0.000  0.00  0.00    +0.101 C 
ATOM      2  C   UNL     1      -5.730  -2.238  -1.218  0.00  0.00    +0.008 A 
ATOM      3  C   UNL     1      -5.354  -2.718  -2.460  0.00  0.00    +0.012 A 
ATOM      4  C   UNL     1      -6.069  -2.365  -3.587  0.00  0.00    +0.047 A 
ATOM      5  C   UNL     1      -7.169  -1.526  -3.477  0.00  0.00    +0.135 A 
ATOM      6  C   UNL     1      -7.548  -1.044  -2.235  0.00  0.00    +0.093 A 
ATOM      7  C   UNL     1      -6.827  -1.400  -1.102  0.00  0.00    +0.138 A 
ATOM      8  O   UNL     1      -7.211  -0.919   0.107  0.00  0.00    -0.441 OA
ATOM      9  C   UNL     1      -6.800  -1.529   1.231  0.00  0.00    +0.199 C 
ATOM     10  C   UNL     1      -5.729  -2.353   1.246  0.00  0.00    +0.098 C 
ENDROOT
BRANCH   1  14
ATOM     11  C   UNL     1      -1.291  -0.403   0.106  0.00  0.00    +0.124 A 
ATOM     12  C   UNL     1      -2.512   0.255   0.135  0.00  0.00    +0.046 A 
ATOM     13  C   UNL     1      -3.689  -0.468   0.100  0.00  0.00    +0.012 A 
ATOM     14  C   UNL     1      -3.652  -1.848   0.037  0.00  0.00    +0.007 A 
ATOM     15  C   UNL     1      -2.433  -2.510   0.007  0.00  0.00    +0.128 A 
ATOM     16  C   UNL     1      -1.251  -1.786   0.036  0.00  0.00    +0.091 A 
BRANCH  11  18
ATOM     17  C   UNL     1      -0.250   1.732   0.212  0.00  0.00    +0.277 C 
ATOM     18  O   UNL     1      -0.134   0.310   0.140  0.00  0.00    -0.495 OA
ENDBRANCH  11  18
BRANCH  15  19
ATOM     19  O   UNL     1      -2.398  -3.868  -0.056  0.00  0.00    -0.495 OA
ATOM     20  C   UNL     1      -1.109  -4.482  -0.083  0.00  0.00    +0.277 C 
ENDBRANCH  15  19
ENDBRANCH   1  14
BRANCH   9  21
ATOM     21  N   UNL     1      -7.487  -1.307   2.399  0.00  0.00    -0.328 N 
ATOM     22  H   UNL     1      -8.257  -0.717   2.404  0.00  0.00    +0.145 HD
ATOM     23  H   UNL     1      -7.203  -1.740   3.219  0.00  0.00    +0.145 HD
ENDBRANCH   9  21
BRANCH  10  24
ATOM     24  C   UNL     1      -5.342  -2.971   2.478  0.00  0.00    +0.101 C 
ATOM     25  N   UNL     1      -5.035  -3.462   3.455  0.00  0.00    -0.191 NA
ENDBRANCH  10  24
BRANCH   5  26
ATOM     26  O   UNL     1      -7.873  -1.178  -4.586  0.00  0.00    -0.422 OA
BRANCH  26  27
ATOM     27  C   UNL     1      -8.603  -2.132  -5.198  0.00  0.00    +0.351 C 
ATOM     28  O   UNL     1      -8.701  -3.236  -4.699  0.00  0.00    -0.244 OA
BRANCH  27  29
ATOM     29  C   UNL     1      -9.280  -1.837  -6.470  0.00  0.00    +0.144 A 
ATOM     30  C   UNL     1     -10.043  -2.798  -7.122  0.00  0.00    +0.033 A 
ATOM     31  C   UNL     1     -10.639  -2.449  -8.361  0.00  0.00    +0.018 A 
ATOM     32  C   UNL     1     -11.578  -3.300  -8.964  0.00  0.00    +0.011 A 
ATOM     33  C   UNL     1     -12.174  -2.930 -10.135  0.00  0.00    +0.001 A 
ATOM     34  C   UNL     1     -11.854  -1.723 -10.740  0.00  0.00    +0.004 A 
ATOM     35  C   UNL     1     -10.920  -0.879 -10.174  0.00  0.00    +0.047 A 
ATOM     36  C   UNL     1     -10.295  -1.237  -8.987  0.00  0.00    +0.139 A 
ATOM     37  O   UNL     1      -9.345  -0.438  -8.445  0.00  0.00    -0.422 OA
ATOM     38  C   UNL     1      -9.181  -0.509  -7.102  0.00  0.00    +0.351 A 
ATOM     39  O   UNL     1      -8.955   0.487  -6.440  0.00  0.00    -0.244 OA
ENDBRANCH  27  29
ENDBRANCH  26  27
ENDBRANCH   5  26
TORSDOF 8
