REMARK  Name = ZINC45803032
REMARK  0 active torsions:
REMARK  status: ('A' for Active; 'I' for Inactive)
REMARK                            x       y       z     vdW  Elec       q    Type
REMARK                         _______ _______ _______ _____ _____    ______ ____
ROOT
ATOM      1  C   UNL     1      -0.016   1.356   0.009  0.00  0.00    +0.087 A 
ATOM      2  C   UNL     1       1.268   1.800  -0.000  0.00  0.00    -0.016 A 
ATOM      3  C   UNL     1       2.099   0.674  -0.014  0.00  0.00    -0.016 A 
ATOM      4  C   UNL     1       1.296  -0.422  -0.013  0.00  0.00    +0.087 A 
ATOM      5  N   UNL     1       0.002  -0.004   0.002  0.00  0.00    -0.366 N 
ATOM      6  H   UNL     1      -0.778  -0.580   0.007  0.00  0.00    +0.165 HD
ATOM      7  C   UNL     1       3.605   0.952  -0.027  0.00  0.00    +0.106 C 
ATOM      8  S   UNL     1       3.621   2.675  -0.693  0.00  0.00    -0.151 S 
ATOM      9  C   UNL     1       1.977   3.157   0.000  0.00  0.00    +0.106 C 
ENDROOT
TORSDOF 0
