REMARK  Name = ZINC04992886
REMARK  4 active torsions:
REMARK  status: ('A' for Active; 'I' for Inactive)
REMARK    1  A    between atoms: C_1  and  C_2
REMARK    2  A    between atoms: C_3  and  C_22
REMARK    3  A    between atoms: C_7  and  C_17
REMARK    4  A    between atoms: C_10  and  C_12
REMARK                            x       y       z     vdW  Elec       q    Type
REMARK                         _______ _______ _______ _____ _____    ______ ____
ROOT
ATOM      1  C   UNL     1       0.986   5.727  -2.304  0.00  0.00    +0.068 C 
ATOM      2  C   UNL     1       0.387   6.175  -0.995  0.00  0.00    +0.070 A 
ATOM      3  C   UNL     1      -0.070   5.326   0.032  0.00  0.00    +0.049 A 
ATOM      4  C   UNL     1      -0.547   6.134   1.046  0.00  0.00    +0.160 A 
ATOM      5  N   UNL     1      -0.363   7.435   0.643  0.00  0.00    -0.235 N 
ATOM      6  N   UNL     1       0.207   7.419  -0.624  0.00  0.00    -0.173 NA
ATOM      7  C   UNL     1      -0.739   8.573   1.488  0.00  0.00    +0.181 C 
ATOM      8  C   UNL     1      -1.913   8.139   2.373  0.00  0.00    +0.094 C 
ATOM      9  C   UNL     1      -1.694   6.759   2.925  0.00  0.00    +0.088 C 
ATOM     10  N   UNL     1      -1.070   5.823   2.250  0.00  0.00    -0.229 NA
ENDROOT
BRANCH   3  11
ATOM     11  C   UNL     1      -0.050   3.844   0.023  0.00  0.00    -0.013 A 
ATOM     12  C   UNL     1       1.165   3.161   0.008  0.00  0.00    +0.009 A 
ATOM     13  C   UNL     1       1.178   1.781   0.000  0.00  0.00    +0.001 A 
ATOM     14  C   UNL     1      -0.013   1.076   0.008  0.00  0.00    +0.000 A 
ATOM     15  C   UNL     1      -1.222   1.748   0.017  0.00  0.00    +0.001 A 
ATOM     16  C   UNL     1      -1.247   3.128   0.031  0.00  0.00    +0.009 A 
ENDBRANCH   3  11
BRANCH   9  17
ATOM     17  C   UNL     1      -2.178   6.458   4.221  0.00  0.00    +0.149 A 
ATOM     18  C   UNL     1      -2.066   5.246   4.869  0.00  0.00    +0.051 A 
ATOM     19  C   UNL     1      -2.681   5.404   6.122  0.00  0.00    +0.042 A 
ATOM     20  C   UNL     1      -3.140   6.673   6.184  0.00  0.00    +0.196 A 
ATOM     21  O   UNL     1      -2.837   7.304   5.041  0.00  0.00    -0.462 OA
ENDBRANCH   9  17
BRANCH   7  22
ATOM     22  C   UNL     1       0.429   8.974   2.351  0.00  0.00    +0.130 A 
ATOM     23  C   UNL     1       1.034  10.175   2.346  0.00  0.00    +0.047 A 
ATOM     24  C   UNL     1       2.071  10.115   3.306  0.00  0.00    +0.041 A 
ATOM     25  C   UNL     1       2.043   8.878   3.833  0.00  0.00    +0.195 A 
ATOM     26  O   UNL     1       1.046   8.191   3.251  0.00  0.00    -0.466 OA
ENDBRANCH   7  22
TORSDOF 3
