REMARK  Name = ZINC64774070
REMARK  7 active torsions:
REMARK  status: ('A' for Active; 'I' for Inactive)
REMARK    1  A    between atoms: C_6  and  C_7
REMARK    2  A    between atoms: C_7  and  S_8
REMARK    3  A    between atoms: S_8  and  C_9
REMARK    4  A    between atoms: C_15  and  C_23
REMARK    5  A    between atoms: C_26  and  O_29
REMARK    6  A    between atoms: O_29  and  C_30
REMARK    7  A    between atoms: C_30  and  C_31
REMARK                            x       y       z     vdW  Elec       q    Type
REMARK                         _______ _______ _______ _____ _____    ______ ____
ROOT
ATOM      1  C   UNL     1      -3.335  -1.973  -1.518  0.00  0.00    +0.182 C 
ATOM      2  N   UNL     1      -3.750  -2.228  -0.289  0.00  0.00    -0.154 NA
ATOM      3  C   UNL     1      -4.841  -2.956  -0.045  0.00  0.00    +0.249 C 
ATOM      4  O   UNL     1      -5.231  -3.163   1.088  0.00  0.00    -0.273 OA
ATOM      5  C   UNL     1      -5.571  -3.513  -1.250  0.00  0.00    +0.148 C 
ATOM      6  C   UNL     1      -7.031  -3.060  -1.178  0.00  0.00    +0.047 C 
ATOM      7  C   UNL     1      -7.815  -3.756  -2.293  0.00  0.00    +0.105 C 
ATOM      8  C   UNL     1      -7.107  -3.625  -3.611  0.00  0.00    +0.219 C 
ATOM      9  O   UNL     1      -7.740  -3.805  -4.629  0.00  0.00    -0.275 OA
ATOM     10  N   UNL     1      -5.803  -3.318  -3.712  0.00  0.00    -0.273 N 
ATOM     11  C   UNL     1      -5.055  -3.061  -2.604  0.00  0.00    +0.117 C 
ATOM     12  N   UNL     1      -3.970  -2.339  -2.637  0.00  0.00    -0.212 NA
ATOM     13  H   UNL     1      -5.382  -3.293  -4.585  0.00  0.00    +0.156 HD
ENDROOT
BRANCH   6  14
ATOM     14  C   UNL     1      -7.611  -3.434   0.162  0.00  0.00    -0.042 A 
ATOM     15  C   UNL     1      -7.649  -4.761   0.551  0.00  0.00    +0.007 A 
ATOM     16  C   UNL     1      -8.181  -5.107   1.778  0.00  0.00    +0.046 A 
ATOM     17  C   UNL     1      -8.675  -4.122   2.621  0.00  0.00    +0.121 A 
ATOM     18  C   UNL     1      -8.635  -2.792   2.228  0.00  0.00    +0.046 A 
ATOM     19  C   UNL     1      -8.098  -2.451   1.002  0.00  0.00    +0.007 A 
BRANCH  17  20
ATOM     20  O   UNL     1      -9.199  -4.460   3.829  0.00  0.00    -0.483 OA
BRANCH  20  21
ATOM     21  C   UNL     1      -9.690  -3.394   4.644  0.00  0.00    +0.324 C 
BRANCH  21  22
ATOM     22  C   UNL     1     -10.228  -3.956   5.935  0.00  0.00    +0.248 C 
ATOM     23  O   UNL     1     -10.195  -5.151   6.136  0.00  0.00    -0.272 OA
ATOM     24  N   UNL     1     -10.746  -3.130   6.865  0.00  0.00    -0.327 N 
ATOM     25  H   UNL     1     -10.773  -2.174   6.704  0.00  0.00    +0.145 HD
ATOM     26  H   UNL     1     -11.093  -3.491   7.696  0.00  0.00    +0.145 HD
ENDBRANCH  21  22
ENDBRANCH  20  21
ENDBRANCH  17  20
ENDBRANCH   6  14
BRANCH   1  27
ATOM     27  S   UNL     1      -1.829  -1.075  -1.696  0.00  0.00    -0.084 S 
BRANCH  27  28
ATOM     28  C   UNL     1      -1.293  -0.775   0.011  0.00  0.00    +0.112 C 
BRANCH  28  34
ATOM     29  C   UNL     1      -0.017   1.378   0.010  0.00  0.00    +0.006 A 
ATOM     30  C   UNL     1       1.171   2.086   0.002  0.00  0.00    +0.020 A 
ATOM     31  C   UNL     1       2.378   1.410  -0.013  0.00  0.00    +0.041 A 
ATOM     32  C   UNL     1       2.396   0.027  -0.021  0.00  0.00    +0.020 A 
ATOM     33  C   UNL     1       1.208  -0.679  -0.013  0.00  0.00    +0.006 A 
ATOM     34  C   UNL     1       0.002  -0.004   0.002  0.00  0.00    -0.037 A 
ATOM     35 CL   UNL     1       3.870   2.298  -0.023  0.00  0.00    -0.084 Cl
ENDBRANCH  28  34
ENDBRANCH  27  28
ENDBRANCH   1  27
TORSDOF 7
