REMARK  Name = ZINC44360648
REMARK  11 active torsions:
REMARK  status: ('A' for Active; 'I' for Inactive)
REMARK    1  A    between atoms: C_1  and  C_2
REMARK    2  A    between atoms: C_2  and  O_3
REMARK    3  A    between atoms: O_3  and  C_4
REMARK    4  A    between atoms: C_4  and  C_6
REMARK    5  A    between atoms: C_6  and  C_8
REMARK    6  A    between atoms: C_6  and  N_27
REMARK    7  A    between atoms: C_8  and  C_9
REMARK    8  A    between atoms: C_10  and  C_19
REMARK    9  A    between atoms: C_16  and  C_18
REMARK   10  A    between atoms: C_23  and  O_25
REMARK   11  A    between atoms: O_25  and  C_26
REMARK                            x       y       z     vdW  Elec       q    Type
REMARK                         _______ _______ _______ _____ _____    ______ ____
ROOT
ATOM      1  C   UNL     1       3.745  -2.780   3.510  0.00  0.00    +0.051 A 
ATOM      2  C   UNL     1       4.144  -1.996   4.550  0.00  0.00    +0.068 A 
ATOM      3  N   UNL     1       4.747  -2.778   5.460  0.00  0.00    -0.339 N 
ATOM      4  C   UNL     1       4.742  -4.030   5.027  0.00  0.00    +0.116 A 
ATOM      5  N   UNL     1       4.115  -4.062   3.808  0.00  0.00    -0.304 N 
ATOM      6  C   UNL     1       3.967  -5.242   3.138  0.00  0.00    +0.093 A 
ATOM      7  C   UNL     1       4.433  -6.394   3.664  0.00  0.00    +0.021 A 
ATOM      8  C   UNL     1       5.077  -6.395   4.912  0.00  0.00    -0.046 A 
ATOM      9  C   UNL     1       5.238  -5.225   5.588  0.00  0.00    +0.048 A 
ATOM     10  C   UNL     1       5.595  -7.684   5.497  0.00  0.00    +0.044 C 
ATOM     11  H   UNL     1       5.126  -2.474   6.300  0.00  0.00    +0.167 HD
ENDROOT
BRANCH   2  12
ATOM     12  C   UNL     1       3.945  -0.530   4.659  0.00  0.00    +0.003 A 
ATOM     13  C   UNL     1       4.205   0.294   3.565  0.00  0.00    +0.010 A 
ATOM     14  C   UNL     1       4.020   1.658   3.668  0.00  0.00    +0.004 A 
ATOM     15  C   UNL     1       3.576   2.211   4.855  0.00  0.00    +0.045 A 
ATOM     16  C   UNL     1       3.314   1.397   5.949  0.00  0.00    +0.121 A 
ATOM     17  C   UNL     1       3.493   0.027   5.852  0.00  0.00    +0.055 A 
BRANCH  16  18
ATOM     18  O   UNL     1       2.879   1.945   7.114  0.00  0.00    -0.495 OA
ATOM     19  C   UNL     1       2.712   3.364   7.141  0.00  0.00    +0.277 C 
ENDBRANCH  16  18
ENDBRANCH   2  12
BRANCH   1  20
ATOM     20  C   UNL     1       3.027  -2.322   2.267  0.00  0.00    +0.085 C 
BRANCH  20  21
ATOM     21  C   UNL     1       1.516  -2.381   2.500  0.00  0.00    +0.167 C 
BRANCH  21  22
ATOM     22  N   UNL     1       1.104  -3.777   2.694  0.00  0.00    -0.318 NA
ATOM     23  H   UNL     1       0.121  -3.837   2.914  0.00  0.00    +0.119 HD
ATOM     24  H   UNL     1       1.328  -4.336   1.885  0.00  0.00    +0.119 HD
ENDBRANCH  21  22
BRANCH  21  25
ATOM     25  C   UNL     1       0.801  -1.808   1.304  0.00  0.00    +0.324 C 
ATOM     26  O   UNL     1       0.324  -2.546   0.475  0.00  0.00    -0.249 OA
BRANCH  25  27
ATOM     27  O   UNL     1       0.693  -0.477   1.160  0.00  0.00    -0.464 OA
BRANCH  27  29
ATOM     28  C   UNL     1      -0.019   1.526   0.010  0.00  0.00    +0.048 C 
ATOM     29  C   UNL     1       0.002  -0.004   0.002  0.00  0.00    +0.229 C 
ENDBRANCH  27  29
ENDBRANCH  25  27
ENDBRANCH  21  25
ENDBRANCH  20  21
ENDBRANCH   1  20
TORSDOF 8
