REMARK  Name = ZINC04188329
REMARK  9 active torsions:
REMARK  status: ('A' for Active; 'I' for Inactive)
REMARK    1  A    between atoms: C_1  and  C_2
REMARK    2  A    between atoms: C_2  and  O_3
REMARK    3  A    between atoms: O_3  and  C_4
REMARK    4  A    between atoms: C_9  and  O_10
REMARK    5  A    between atoms: O_10  and  C_11
REMARK    6  A    between atoms: C_11  and  C_12
REMARK    7  A    between atoms: C_18  and  C_22
REMARK    8  A    between atoms: C_26  and  O_28
REMARK    9  A    between atoms: O_28  and  C_29
REMARK                            x       y       z     vdW  Elec       q    Type
REMARK                         _______ _______ _______ _____ _____    ______ ____
ROOT
ATOM      1  C   UNL     1      -1.498  -1.850   0.006  0.00  0.00    +0.162 A 
ATOM      2  C   UNL     1      -0.385  -2.676  -0.003  0.00  0.00    +0.053 A 
ATOM      3  C   UNL     1      -0.545  -4.046   0.007  0.00  0.00    -0.037 A 
ATOM      4  C   UNL     1      -1.828  -4.587   0.060  0.00  0.00    +0.051 A 
ATOM      5  C   UNL     1      -2.942  -3.773   0.034  0.00  0.00    +0.075 A 
ATOM      6  C   UNL     1      -2.779  -2.395   0.016  0.00  0.00    +0.164 A 
ATOM      7  N   UNL     1      -1.918  -5.982   0.228  0.00  0.00    -0.321 N 
ATOM      8  C   UNL     1      -2.708  -6.891  -0.386  0.00  0.00    +0.091 A 
ATOM      9  C   UNL     1      -2.410  -8.108   0.123  0.00  0.00    +0.020 A 
ATOM     10  C   UNL     1      -1.397  -7.928   1.089  0.00  0.00    +0.022 A 
ATOM     11  C   UNL     1      -1.114  -6.615   1.137  0.00  0.00    +0.014 A 
ATOM     12  C   UNL     1      -0.117  -5.904   2.005  0.00  0.00    +0.008 C 
ATOM     13  N   UNL     1       1.065  -5.503   1.223  0.00  0.00    +0.390 N 
ATOM     14  C   UNL     1       0.627  -4.973  -0.080  0.00  0.00    -0.043 C 
ATOM     15  H   UNL     1       1.574  -4.790   1.723  0.00  0.00    -0.084 HD
ATOM     16  H   UNL     1       1.661  -6.304   1.078  0.00  0.00    -0.084 HD
ENDROOT
BRANCH  12  17
ATOM     17  C   UNL     1       0.315  -6.824   3.118  0.00  0.00    -0.052 A 
ATOM     18  C   UNL     1       1.269  -7.796   2.880  0.00  0.00    +0.005 A 
ATOM     19  C   UNL     1       1.668  -8.641   3.898  0.00  0.00    +0.042 A 
ATOM     20  C   UNL     1       1.113  -8.516   5.159  0.00  0.00    +0.165 A 
ATOM     21  C   UNL     1       0.155  -7.540   5.400  0.00  0.00    +0.155 A 
ATOM     22  C   UNL     1      -0.238  -6.691   4.377  0.00  0.00    +0.051 A 
ATOM     23  F   UNL     1       1.502  -9.343   6.155  0.00  0.00    -0.202 F 
BRANCH  21  24
ATOM     24  O   UNL     1      -0.393  -7.414   6.638  0.00  0.00    -0.492 OA
ATOM     25  C   UNL     1      -1.372  -6.389   6.813  0.00  0.00    +0.277 C 
ENDBRANCH  21  24
ENDBRANCH  12  17
BRANCH   1  26
ATOM     26  O   UNL     1      -1.339  -0.499   0.012  0.00  0.00    -0.489 OA
BRANCH  26  28
ATOM     27  C   UNL     1      -0.019   1.526   0.010  0.00  0.00    +0.048 C 
ATOM     28  C   UNL     1       0.002  -0.004   0.002  0.00  0.00    +0.226 C 
ENDBRANCH  26  28
ENDBRANCH   1  26
BRANCH   6  29
ATOM     29  O   UNL     1      -3.868  -1.580   0.002  0.00  0.00    -0.489 OA
BRANCH  29  30
ATOM     30  C   UNL     1      -5.150  -2.211   0.013  0.00  0.00    +0.226 C 
ATOM     31  C   UNL     1      -6.244  -1.141  -0.005  0.00  0.00    +0.048 C 
ENDBRANCH  29  30
ENDBRANCH   6  29
TORSDOF 6
