REMARK  Name = ZINC32535251
REMARK  8 active torsions:
REMARK  status: ('A' for Active; 'I' for Inactive)
REMARK    1  A    between atoms: C_1  and  C_2
REMARK    2  A    between atoms: C_4  and  C_35
REMARK    3  A    between atoms: C_8  and  C_34
REMARK    4  A    between atoms: C_12  and  S_15
REMARK    5  A    between atoms: S_15  and  C_16
REMARK    6  A    between atoms: C_16  and  C_18
REMARK    7  A    between atoms: C_16  and  C_19
REMARK    8  A    between atoms: C_24  and  C_27
REMARK                            x       y       z     vdW  Elec       q    Type
REMARK                         _______ _______ _______ _____ _____    ______ ____
ROOT
ATOM      1  C   UNL     1       5.669   2.847  -2.394  0.00  0.00    +0.137 C 
ATOM      2  C   UNL     1       5.653   4.146  -3.203  0.00  0.00    +0.029 C 
ENDROOT
BRANCH   1   3
ATOM      3  C   UNL     1       6.321   1.758  -3.205  0.00  0.00    +0.232 C 
ATOM      4  O   UNL     1       5.639   1.000  -3.862  0.00  0.00    -0.274 OA
ATOM      5  N   UNL     1       7.662   1.625  -3.200  0.00  0.00    -0.264 N 
ATOM      6  C   UNL     1       8.263   0.620  -3.949  0.00  0.00    +0.165 A 
ATOM      7  N   UNL     1       9.544   0.327  -4.077  0.00  0.00    -0.225 NA
ATOM      8  C   UNL     1       9.946  -0.678  -4.840  0.00  0.00    +0.080 A 
ATOM      9  C   UNL     1       9.018  -1.426  -5.508  0.00  0.00    +0.076 A 
ATOM     10  S   UNL     1       7.508  -0.623  -4.987  0.00  0.00    -0.060 S 
ATOM     11  H   UNL     1       8.281   2.312  -2.605  0.00  0.00    +0.157 HD
BRANCH   8  12
ATOM     12  C   UNL     1      11.391  -0.989  -4.968  0.00  0.00    +0.001 A 
ATOM     13  C   UNL     1      11.809  -2.051  -5.768  0.00  0.00    +0.011 A 
ATOM     14  C   UNL     1      13.155  -2.334  -5.886  0.00  0.00    +0.020 A 
ATOM     15  C   UNL     1      14.088  -1.570  -5.206  0.00  0.00    +0.041 A 
ATOM     16  C   UNL     1      13.677  -0.517  -4.407  0.00  0.00    +0.020 A 
ATOM     17  C   UNL     1      12.334  -0.223  -4.285  0.00  0.00    +0.011 A 
ATOM     18 CL   UNL     1      15.778  -1.935  -5.355  0.00  0.00    -0.084 Cl
ENDBRANCH   8  12
ENDBRANCH   1   3
BRANCH   1  19
ATOM     19  S   UNL     1       3.971   2.366  -1.992  0.00  0.00    -0.073 S 
BRANCH  19  31
ATOM     20  C   UNL     1      -2.517   0.986  -0.036  0.00  0.00    +0.044 C 
ATOM     21  C   UNL     1      -1.221   1.751   0.029  0.00  0.00    -0.050 A 
ATOM     22  C   UNL     1      -0.013   1.075   0.008  0.00  0.00    +0.008 A 
ATOM     23  C   UNL     1       1.183   1.771   0.000  0.00  0.00    -0.026 A 
ATOM     24  C   UNL     1       1.190   3.152  -0.068  0.00  0.00    +0.061 A 
ATOM     25  C   UNL     1      -0.033   3.831   0.159  0.00  0.00    +0.002 A 
ATOM     26  C   UNL     1      -1.238   3.127   0.104  0.00  0.00    +0.013 A 
ATOM     27  C   UNL     1      -0.009   5.262   0.468  0.00  0.00    -0.038 A 
ATOM     28  C   UNL     1       1.177   5.913   0.463  0.00  0.00    +0.052 A 
ATOM     29  C   UNL     1       2.352   5.238   0.060  0.00  0.00    +0.162 A 
ATOM     30  N   UNL     1       2.319   3.910  -0.318  0.00  0.00    -0.270 N 
ATOM     31  C   UNL     1       3.512   3.708  -0.945  0.00  0.00    +0.197 A 
ATOM     32  N   UNL     1       4.281   4.746  -0.675  0.00  0.00    -0.122 NA
ATOM     33  N   UNL     1       3.596   5.654  -0.085  0.00  0.00    -0.129 NA
ATOM     34  C   UNL     1      -1.269   6.007   0.825  0.00  0.00    +0.044 C 
ATOM     35  C   UNL     1       2.456   0.978   0.156  0.00  0.00    +0.046 C 
ENDBRANCH  19  31
ENDBRANCH   1  19
TORSDOF 4
