REMARK  Name = ZINC06189438
REMARK  10 active torsions:
REMARK  status: ('A' for Active; 'I' for Inactive)
REMARK    1  A    between atoms: C_1  and  C_2
REMARK    2  A    between atoms: C_4  and  C_9
REMARK    3  A    between atoms: C_5  and  O_8
REMARK    4  A    between atoms: C_9  and  C_12
REMARK    5  A    between atoms: N_10  and  O_11
REMARK    6  A    between atoms: C_15  and  C_18
REMARK    7  A    between atoms: C_18  and  C_21
REMARK    8  A    between atoms: N_19  and  O_20
REMARK    9  A    between atoms: C_22  and  O_28
REMARK   10  A    between atoms: C_25  and  C_27
REMARK                            x       y       z     vdW  Elec       q    Type
REMARK                         _______ _______ _______ _____ _____    ______ ____
ROOT
ATOM      1  C   UNL     1       0.482  -1.822  -3.767  0.00  0.00    +0.004 A 
ATOM      2  C   UNL     1       0.015  -0.512  -3.895  0.00  0.00    +0.011 A 
ATOM      3  C   UNL     1      -0.186   0.028  -5.145  0.00  0.00    +0.011 A 
ATOM      4  C   UNL     1       0.076  -0.733  -6.285  0.00  0.00    +0.004 A 
ATOM      5  C   UNL     1       0.544  -2.042  -6.158  0.00  0.00    +0.011 A 
ATOM      6  C   UNL     1       0.750  -2.581  -4.907  0.00  0.00    +0.011 A 
ENDROOT
BRANCH   1   7
ATOM      7  C   UNL     1       0.699  -2.403  -2.423  0.00  0.00    +0.120 C 
ATOM      8  N   UNL     1       1.718  -3.186  -2.208  0.00  0.00    -0.086 NA
BRANCH   7  12
ATOM      9  C   UNL     1      -3.529  -0.290  -0.824  0.00  0.00    +0.044 C 
ATOM     10  C   UNL     1      -2.277  -1.081  -0.548  0.00  0.00    -0.050 A 
ATOM     11  C   UNL     1      -1.402  -1.364  -1.577  0.00  0.00    +0.017 A 
ATOM     12  C   UNL     1      -0.243  -2.095  -1.323  0.00  0.00    +0.046 A 
ATOM     13  C   UNL     1       0.026  -2.538  -0.022  0.00  0.00    +0.126 A 
ATOM     14  C   UNL     1      -0.861  -2.245   1.001  0.00  0.00    +0.046 A 
ATOM     15  C   UNL     1      -2.005  -1.515   0.738  0.00  0.00    +0.007 A 
BRANCH  13  16
ATOM     16  O   UNL     1       1.153  -3.251   0.236  0.00  0.00    -0.506 OA
ATOM     17  H   UNL     1       1.916  -2.708   0.475  0.00  0.00    +0.292 HD
ENDBRANCH  13  16
ENDBRANCH   7  12
BRANCH   8  18
ATOM     18  O   UNL     1       2.660  -3.421  -3.239  0.00  0.00    -0.409 OA
ATOM     19  H   UNL     1       3.381  -4.014  -2.986  0.00  0.00    +0.328 HD
ENDBRANCH   8  18
ENDBRANCH   1   7
BRANCH   4  20
ATOM     20  C   UNL     1      -0.141  -0.152  -7.630  0.00  0.00    +0.120 C 
ATOM     21  N   UNL     1       0.700  -0.404  -8.592  0.00  0.00    -0.086 NA
BRANCH  20  22
ATOM     22  C   UNL     1      -1.315   0.715  -7.880  0.00  0.00    +0.046 A 
ATOM     23  C   UNL     1      -1.464   1.357  -9.115  0.00  0.00    +0.126 A 
ATOM     24  C   UNL     1      -2.566   2.167  -9.340  0.00  0.00    +0.046 A 
ATOM     25  C   UNL     1      -3.513   2.339  -8.348  0.00  0.00    +0.007 A 
ATOM     26  C   UNL     1      -3.369   1.705  -7.126  0.00  0.00    -0.050 A 
ATOM     27  C   UNL     1      -2.280   0.891  -6.889  0.00  0.00    +0.017 A 
ATOM     28  C   UNL     1      -4.408   1.900  -6.052  0.00  0.00    +0.044 C 
BRANCH  23  29
ATOM     29  O   UNL     1      -0.532   1.188 -10.088  0.00  0.00    -0.506 OA
ATOM     30  H   UNL     1      -0.711   0.443 -10.678  0.00  0.00    +0.292 HD
ENDBRANCH  23  29
ENDBRANCH  20  22
BRANCH  21  31
ATOM     31  O   UNL     1       1.796  -1.270  -8.365  0.00  0.00    -0.409 OA
ATOM     32  H   UNL     1       2.365  -1.396  -9.138  0.00  0.00    +0.328 HD
ENDBRANCH  21  31
ENDBRANCH   4  20
TORSDOF 8
