REMARK  Name = ZINC20082429
REMARK  7 active torsions:
REMARK  status: ('A' for Active; 'I' for Inactive)
REMARK    1  A    between atoms: C_1  and  C_2
REMARK    2  A    between atoms: C_9  and  N_26
REMARK    3  A    between atoms: C_10  and  C_13
REMARK    4  A    between atoms: N_17  and  C_21
REMARK    5  A    between atoms: N_29  and  C_32
REMARK    6  A    between atoms: C_32  and  C_33
REMARK    7  A    between atoms: C_33  and  O_34
REMARK                            x       y       z     vdW  Elec       q    Type
REMARK                         _______ _______ _______ _____ _____    ______ ____
ROOT
ATOM      1  C   UNL     1       3.075   1.609  -0.300  0.00  0.00    +0.047 C 
ATOM      2  C   UNL     1       1.868   0.763   0.013  0.00  0.00    -0.007 A 
ATOM      3  C   UNL     1       1.964  -0.596   0.013  0.00  0.00    +0.008 A 
ATOM      4  C   UNL     1       0.832  -1.369   0.306  0.00  0.00    +0.019 A 
ATOM      5  C   UNL     1      -0.346  -0.768   0.586  0.00  0.00    +0.096 A 
ATOM      6  N   UNL     1      -0.453   0.591   0.588  0.00  0.00    -0.267 N 
ATOM      7  C   UNL     1       0.634   1.372   0.307  0.00  0.00    +0.145 A 
ATOM      8  N   UNL     1       0.550   2.702   0.304  0.00  0.00    -0.213 NA
ATOM      9  C   UNL     1      -0.587   3.328   0.573  0.00  0.00    +0.136 A 
ATOM     10  C   UNL     1      -1.745   2.572   0.872  0.00  0.00    +0.081 A 
ATOM     11  C   UNL     1      -1.645   1.160   0.866  0.00  0.00    +0.267 A 
ATOM     12  O   UNL     1      -2.619   0.469   1.113  0.00  0.00    -0.267 OA
ENDROOT
BRANCH  10  13
ATOM     13  C   UNL     1      -2.973   3.211   1.163  0.00  0.00    +0.037 C 
ATOM     14  C   UNL     1      -3.049   4.107   2.190  0.00  0.00    +0.077 C 
ATOM     15  C   UNL     1      -4.151   4.899   2.621  0.00  0.00    +0.259 C 
ATOM     16  O   UNL     1      -5.227   4.838   2.053  0.00  0.00    -0.269 OA
ATOM     17  N   UNL     1      -3.974   5.701   3.657  0.00  0.00    -0.252 N 
ATOM     18  C   UNL     1      -2.778   5.775   4.282  0.00  0.00    +0.121 C 
ATOM     19  S   UNL     1      -2.325   6.738   5.624  0.00  0.00    -0.027 S 
ATOM     20  S   UNL     1      -1.789   4.612   3.353  0.00  0.00    -0.061 S 
BRANCH  17  21
ATOM     21  C   UNL     1      -5.088   6.526   4.130  0.00  0.00    +0.083 C 
ATOM     22  C   UNL     1      -4.696   8.018   4.089  0.00  0.00    +0.023 C 
ATOM     23  C   UNL     1      -5.364   8.620   5.351  0.00  0.00    +0.002 C 
ATOM     24  C   UNL     1      -5.192   7.494   6.400  0.00  0.00    +0.002 C 
ATOM     25  C   UNL     1      -5.404   6.194   5.598  0.00  0.00    +0.023 C 
ENDBRANCH  17  21
ENDBRANCH  10  13
BRANCH   9  26
ATOM     26  N   UNL     1      -0.641   4.704   0.561  0.00  0.00    -0.312 N 
ATOM     27  C   UNL     1      -1.556   5.186  -0.483  0.00  0.00    +0.122 C 
ATOM     28  C   UNL     1      -1.649   6.713  -0.412  0.00  0.00    +0.103 C 
ATOM     29  N   UNL     1      -0.309   7.291  -0.582  0.00  0.00    -0.297 NA
ATOM     30  C   UNL     1       0.606   6.809   0.462  0.00  0.00    +0.103 C 
ATOM     31  C   UNL     1       0.699   5.283   0.390  0.00  0.00    +0.122 C 
BRANCH  29  32
ATOM     32  C   UNL     1      -0.367   8.759  -0.595  0.00  0.00    +0.112 C 
BRANCH  32  33
ATOM     33  C   UNL     1      -1.231   9.245   0.570  0.00  0.00    +0.171 C 
BRANCH  33  34
ATOM     34  O   UNL     1      -0.574   8.953   1.805  0.00  0.00    -0.394 OA
ATOM     35  H   UNL     1      -1.047   9.231   2.759  0.00  0.00    +0.209 HD
ENDBRANCH  33  34
ENDBRANCH  32  33
ENDBRANCH  29  32
ENDBRANCH   9  26
TORSDOF 6
