REMARK  Name = ZINC41648504
REMARK  9 active torsions:
REMARK  status: ('A' for Active; 'I' for Inactive)
REMARK    1  A    between atoms: C_1  and  N_2
REMARK    2  A    between atoms: N_2  and  C_3
REMARK    3  A    between atoms: N_2  and  C_4
REMARK    4  A    between atoms: C_4  and  C_6
REMARK    5  A    between atoms: C_4  and  C_25
REMARK    6  A    between atoms: C_6  and  N_7
REMARK    7  A    between atoms: C_8  and  C_10
REMARK    8  A    between atoms: N_12  and  C_13
REMARK    9  A    between atoms: C_18  and  C_19
REMARK                            x       y       z     vdW  Elec       q    Type
REMARK                         _______ _______ _______ _____ _____    ______ ____
ROOT
ATOM      1  C   UNL     1      -1.951   3.719  -2.280  0.00  0.00    +0.303 C 
ATOM      2  O   UNL     1      -1.246   4.241  -1.442  0.00  0.00    -0.265 OA
ATOM      3  N   UNL     1      -2.470   4.459  -3.279  0.00  0.00    -0.277 N 
ATOM      4  H   UNL     1      -3.087   4.057  -3.911  0.00  0.00    +0.155 HD
ENDROOT
BRANCH   3   5
ATOM      5  C   UNL     1      -2.121   5.804  -3.406  0.00  0.00    +0.042 A 
ATOM      6  C   UNL     1      -1.726   6.529  -2.290  0.00  0.00    +0.024 A 
ATOM      7  C   UNL     1      -1.380   7.860  -2.418  0.00  0.00    +0.002 A 
ATOM      8  C   UNL     1      -1.425   8.479  -3.655  0.00  0.00    +0.001 A 
ATOM      9  C   UNL     1      -1.815   7.770  -4.774  0.00  0.00    +0.010 A 
ATOM     10  C   UNL     1      -2.161   6.426  -4.659  0.00  0.00    +0.003 A 
BRANCH  10  11
ATOM     11  C   UNL     1      -2.576   5.659  -5.859  0.00  0.00    -0.016 A 
ATOM     12  C   UNL     1      -1.997   4.420  -6.132  0.00  0.00    +0.008 A 
ATOM     13  C   UNL     1      -2.388   3.711  -7.249  0.00  0.00    +0.001 A 
ATOM     14  C   UNL     1      -3.350   4.226  -8.098  0.00  0.00    +0.000 A 
ATOM     15  C   UNL     1      -3.928   5.455  -7.832  0.00  0.00    +0.001 A 
ATOM     16  C   UNL     1      -3.550   6.171  -6.714  0.00  0.00    +0.008 A 
ENDBRANCH  10  11
ENDBRANCH   3   5
BRANCH   1  18
ATOM     17  N   UNL     1      -1.726   1.517  -1.204  0.00  0.00    -0.309 N 
ATOM     18  C   UNL     1      -2.245   2.257  -2.203  0.00  0.00    +0.299 C 
ATOM     19  O   UNL     1      -2.950   1.735  -3.042  0.00  0.00    -0.265 OA
ATOM     20  H   UNL     1      -1.162   1.934  -0.534  0.00  0.00    +0.149 HD
BRANCH  17  21
ATOM     21  C   UNL     1      -2.013   0.082  -1.129  0.00  0.00    +0.094 C 
BRANCH  21  22
ATOM     22  C   UNL     1      -1.212  -0.540   0.016  0.00  0.00    -0.020 C 
BRANCH  22  23
ATOM     23  C   UNL     1      -1.688   0.028   1.329  0.00  0.00    -0.052 A 
ATOM     24  C   UNL     1      -0.983   1.041   1.952  0.00  0.00    +0.009 A 
ATOM     25  C   UNL     1      -1.438   1.529   3.131  0.00  0.00    +0.045 A 
ATOM     26  S   UNL     1      -2.906   0.548   3.396  0.00  0.00    -0.105 S 
ATOM     27  C   UNL     1      -2.816  -0.443   1.913  0.00  0.00    +0.047 A 
ENDBRANCH  22  23
BRANCH  22  29
ATOM     28  C   UNL     1      -0.855  -2.561  -1.225  0.00  0.00    -0.096 C 
ATOM     29  N   UNL     1      -1.404  -1.996   0.014  0.00  0.00    +0.382 N 
ATOM     30  C   UNL     1      -0.711  -2.583   1.169  0.00  0.00    -0.096 C 
ATOM     31  H   UNL     1      -2.390  -2.205   0.072  0.00  0.00    -0.082 HD
ENDBRANCH  22  29
ENDBRANCH  21  22
ENDBRANCH  17  21
ENDBRANCH   1  18
TORSDOF 7
