REMARK  Name = ZINC49600078
REMARK  8 active torsions:
REMARK  status: ('A' for Active; 'I' for Inactive)
REMARK    1  A    between atoms: C_1  and  O_2
REMARK    2  A    between atoms: O_2  and  C_3
REMARK    3  A    between atoms: C_8  and  C_9
REMARK    4  A    between atoms: C_9  and  O_10
REMARK    5  A    between atoms: O_10  and  C_11
REMARK    6  A    between atoms: C_16  and  C_17
REMARK    7  A    between atoms: C_17  and  C_18
REMARK    8  A    between atoms: C_18  and  N_19
REMARK                            x       y       z     vdW  Elec       q    Type
REMARK                         _______ _______ _______ _____ _____    ______ ____
ROOT
ATOM      1  C   UNL     1       0.745  -5.092  -0.033  0.00  0.00    +0.124 A 
ATOM      2  C   UNL     1       2.048  -4.614  -0.038  0.00  0.00    +0.047 A 
ATOM      3  C   UNL     1       3.107  -5.500  -0.053  0.00  0.00    +0.023 A 
ATOM      4  C   UNL     1       2.870  -6.864  -0.065  0.00  0.00    +0.041 A 
ATOM      5  C   UNL     1       1.572  -7.342  -0.060  0.00  0.00    +0.027 A 
ATOM      6  C   UNL     1       0.510  -6.459  -0.038  0.00  0.00    -0.006 A 
ATOM      7 CL   UNL     1       4.204  -7.976  -0.085  0.00  0.00    -0.084 Cl
ENDROOT
BRANCH   1   8
ATOM      8  O   UNL     1      -0.298  -4.222  -0.018  0.00  0.00    -0.487 OA
BRANCH   8   9
ATOM      9  C   UNL     1       0.019  -2.829  -0.014  0.00  0.00    +0.268 C 
BRANCH   9  15
ATOM     10  C   UNL     1      -1.200  -0.637   0.010  0.00  0.00    +0.127 A 
ATOM     11  C   UNL     1      -2.375   0.101   0.019  0.00  0.00    +0.047 A 
ATOM     12  C   UNL     1      -3.596  -0.544   0.028  0.00  0.00    +0.019 A 
ATOM     13  C   UNL     1      -3.648  -1.927   0.027  0.00  0.00    +0.018 A 
ATOM     14  C   UNL     1      -2.479  -2.666   0.018  0.00  0.00    +0.025 A 
ATOM     15  C   UNL     1      -1.255  -2.023   0.003  0.00  0.00    +0.032 A 
ATOM     16 BR   UNL     1      -5.321  -2.808   0.038  0.00  0.00    -0.050 Br
BRANCH  10  18
ATOM     17  C   UNL     1      -0.017   1.425   0.010  0.00  0.00    +0.277 C 
ATOM     18  O   UNL     1       0.002  -0.004   0.002  0.00  0.00    -0.495 OA
ENDBRANCH  10  18
ENDBRANCH   9  15
ENDBRANCH   8   9
ENDBRANCH   1   8
BRANCH   6  19
ATOM     19  C   UNL     1      -0.904  -6.981  -0.026  0.00  0.00    +0.019 C 
BRANCH  19  20
ATOM     20  C   UNL     1      -1.441  -7.031  -1.458  0.00  0.00    -0.082 C 
BRANCH  20  21
ATOM     21  N   UNL     1      -2.819  -7.540  -1.447  0.00  0.00    +0.378 N 
ATOM     22  H   UNL     1      -2.832  -8.467  -1.050  0.00  0.00    -0.090 HD
ATOM     23  H   UNL     1      -3.399  -6.928  -0.892  0.00  0.00    -0.090 HD
ATOM     24  H   UNL     1      -3.173  -7.573  -2.391  0.00  0.00    -0.090 HD
ENDBRANCH  20  21
ENDBRANCH  19  20
ENDBRANCH   6  19
TORSDOF 7
