REMARK  Name = ZINC24953948
REMARK  6 active torsions:
REMARK  status: ('A' for Active; 'I' for Inactive)
REMARK    1  A    between atoms: C_1  and  C_2
REMARK    2  A    between atoms: C_2  and  C_4
REMARK    3  A    between atoms: C_2  and  N_11
REMARK    4  A    between atoms: C_12  and  C_14
REMARK    5  A    between atoms: C_14  and  C_15
REMARK    6  A    between atoms: C_15  and  C_16
REMARK                            x       y       z     vdW  Elec       q    Type
REMARK                         _______ _______ _______ _____ _____    ______ ____
ROOT
ATOM      1  C   UNL     1      -0.135   2.480  -6.809  0.00  0.00    +0.083 C 
ENDROOT
BRANCH   1   2
ATOM      2  C   UNL     1      -0.261   2.234  -5.328  0.00  0.00    +0.111 A 
ATOM      3  N   UNL     1       0.793   1.715  -4.647  0.00  0.00    -0.310 N 
ATOM      4  H   UNL     1       1.728   1.478  -5.178  0.00  0.00    +0.170 HD
ATOM      5  C   UNL     1       0.724   1.479  -3.323  0.00  0.00    +0.260 A 
ATOM      6  O   UNL     1       1.678   1.012  -2.725  0.00  0.00    -0.267 OA
ATOM      7  C   UNL     1      -0.492   1.786  -2.631  0.00  0.00    +0.075 A 
ATOM      8  C   UNL     1      -0.791   1.612  -1.202  0.00  0.00    -0.023 A 
ATOM      9  C   UNL     1      -2.016   1.978  -0.788  0.00  0.00    -0.004 A 
ATOM     10  S   UNL     1      -2.837   2.567  -2.251  0.00  0.00    -0.073 S 
ATOM     11  C   UNL     1      -1.523   2.318  -3.416  0.00  0.00    +0.116 A 
ATOM     12  N   UNL     1      -1.381   2.524  -4.723  0.00  0.00    -0.227 NA
ATOM     13  C   UNL     1      -2.207   1.760   0.689  0.00  0.00    +0.043 C 
ATOM     14  C   UNL     1      -0.772   1.602   1.246  0.00  0.00    +0.010 C 
ATOM     15  C   UNL     1      -0.013   1.086   0.008  0.00  0.00    +0.037 C 
ENDBRANCH   1   2
BRANCH   1  16
ATOM     16  C   UNL     1      -1.446   3.064  -7.342  0.00  0.00    +0.103 C 
BRANCH  16  18
ATOM     17  N   UNL     1      -2.359   3.824  -9.511  0.00  0.00    -0.309 N 
ATOM     18  C   UNL     1      -1.320   3.310  -8.824  0.00  0.00    +0.214 C 
ATOM     19  O   UNL     1      -0.285   3.044  -9.397  0.00  0.00    -0.276 OA
ATOM     20  H   UNL     1      -3.298   4.065  -8.991  0.00  0.00    +0.149 HD
BRANCH  17  22
ATOM     21  C   UNL     1      -2.561   2.776 -11.712  0.00  0.00    +0.033 C 
ATOM     22  C   UNL     1      -2.237   4.063 -10.952  0.00  0.00    +0.100 C 
BRANCH  22  23
ATOM     23  C   UNL     1      -3.200   5.146 -11.364  0.00  0.00    -0.025 A 
ATOM     24  C   UNL     1      -4.472   5.183 -10.824  0.00  0.00    +0.005 A 
ATOM     25  C   UNL     1      -5.355   6.178 -11.198  0.00  0.00    +0.003 A 
ATOM     26  C   UNL     1      -4.971   7.133 -12.120  0.00  0.00    +0.038 A 
ATOM     27  C   UNL     1      -3.699   7.095 -12.666  0.00  0.00    +0.124 A 
ATOM     28  C   UNL     1      -2.813   6.100 -12.287  0.00  0.00    +0.043 A 
ATOM     29  F   UNL     1      -3.322   8.027 -13.568  0.00  0.00    -0.205 F 
ENDBRANCH  22  23
ENDBRANCH  17  22
ENDBRANCH  16  18
ENDBRANCH   1  16
TORSDOF 5
