REMARK  Name = ZINC57456043
REMARK  11 active torsions:
REMARK  status: ('A' for Active; 'I' for Inactive)
REMARK    1  A    between atoms: C_1  and  C_2
REMARK    2  A    between atoms: C_2  and  C_3
REMARK    3  A    between atoms: C_2  and  C_4
REMARK    4  A    between atoms: C_2  and  C_5
REMARK    5  A    between atoms: C_5  and  C_6
REMARK    6  A    between atoms: N_8  and  C_9
REMARK    7  A    between atoms: C_9  and  C_10
REMARK    8  A    between atoms: N_12  and  C_13
REMARK    9  A    between atoms: C_13  and  C_14
REMARK   10  A    between atoms: C_14  and  C_15
REMARK   11  A    between atoms: C_15  and  C_16
REMARK                            x       y       z     vdW  Elec       q    Type
REMARK                         _______ _______ _______ _____ _____    ______ ____
ROOT
ATOM      1  C   UNL     1       5.036  -0.264  -3.538  0.00  0.00    +0.230 C 
ATOM      2  O   UNL     1       4.449  -0.965  -4.335  0.00  0.00    -0.274 OA
ATOM      3  N   UNL     1       6.320   0.081  -3.762  0.00  0.00    -0.314 N 
ATOM      4  H   UNL     1       6.790   0.641  -3.125  0.00  0.00    +0.149 HD
ENDROOT
BRANCH   1   5
ATOM      5  C   UNL     1       4.331   0.222  -2.298  0.00  0.00    +0.200 C 
BRANCH   5   8
ATOM      6  C   UNL     1       2.132   0.024  -1.268  0.00  0.00    +0.214 C 
ATOM      7  O   UNL     1       2.528   0.722  -0.358  0.00  0.00    -0.276 OA
ATOM      8  N   UNL     1       2.957  -0.285  -2.288  0.00  0.00    -0.307 N 
ATOM      9  H   UNL     1       2.640  -0.843  -3.015  0.00  0.00    +0.149 HD
BRANCH   6  10
ATOM     10  C   UNL     1       0.718  -0.497  -1.257  0.00  0.00    +0.102 C 
BRANCH  10  12
ATOM     11  C   UNL     1      -0.019   1.526   0.010  0.00  0.00    +0.011 C 
ATOM     12  C   UNL     1       0.002  -0.004   0.002  0.00  0.00    -0.029 C 
ATOM     13  C   UNL     1       0.742  -0.511   1.242  0.00  0.00    +0.011 C 
ATOM     14  C   UNL     1      -1.433  -0.534   0.013  0.00  0.00    +0.011 C 
ENDBRANCH  10  12
ENDBRANCH   6  10
ENDBRANCH   5   8
ENDBRANCH   1   5
BRANCH   3  15
ATOM     15  C   UNL     1       7.006  -0.392  -4.967  0.00  0.00    +0.104 C 
BRANCH  15  16
ATOM     16  C   UNL     1       8.441   0.138  -4.978  0.00  0.00    +0.023 C 
BRANCH  16  17
ATOM     17  C   UNL     1       9.157  -0.356  -6.237  0.00  0.00    +0.037 C 
BRANCH  17  18
ATOM     18  C   UNL     1      10.571   0.166  -6.248  0.00  0.00    -0.046 A 
ATOM     19  C   UNL     1      10.854   1.384  -6.838  0.00  0.00    +0.005 A 
ATOM     20  C   UNL     1      12.150   1.863  -6.848  0.00  0.00    +0.022 A 
ATOM     21  C   UNL     1      13.165   1.125  -6.268  0.00  0.00    +0.059 A 
ATOM     22  C   UNL     1      12.883  -0.095  -5.677  0.00  0.00    +0.060 A 
ATOM     23  C   UNL     1      11.584  -0.571  -5.663  0.00  0.00    +0.025 A 
ATOM     24 CL   UNL     1      14.156  -1.024  -4.949  0.00  0.00    -0.082 Cl
ATOM     25 CL   UNL     1      14.794   1.726  -6.282  0.00  0.00    -0.082 Cl
ENDBRANCH  17  18
ENDBRANCH  16  17
ENDBRANCH  15  16
ENDBRANCH   3  15
TORSDOF 8
