REMARK  Name = ZINC62977962
REMARK  6 active torsions:
REMARK  status: ('A' for Active; 'I' for Inactive)
REMARK    1  A    between atoms: C_1  and  C_2
REMARK    2  A    between atoms: C_2  and  C_4
REMARK    3  A    between atoms: C_2  and  N_24
REMARK    4  A    between atoms: C_4  and  C_6
REMARK    5  A    between atoms: C_4  and  N_12
REMARK    6  A    between atoms: C_15  and  N_18
REMARK                            x       y       z     vdW  Elec       q    Type
REMARK                         _______ _______ _______ _____ _____    ______ ____
ROOT
ATOM      1  C   UNL     1       0.742  -0.511   1.242  0.00  0.00    +0.079 C 
ENDROOT
BRANCH   1   2
ATOM      2  C   UNL     1       2.188  -0.092   1.170  0.00  0.00    +0.007 A 
ATOM      3  C   UNL     1       3.268  -0.816   0.787  0.00  0.00    +0.014 A 
ATOM      4  C   UNL     1       4.515  -0.218   0.800  0.00  0.00    +0.028 A 
ATOM      5  C   UNL     1       4.619   1.075   1.196  0.00  0.00    +0.078 A 
ATOM      6  S   UNL     1       2.921   1.488   1.560  0.00  0.00    -0.080 S 
ATOM      7 CL   UNL     1       6.036   2.071   1.312  0.00  0.00    -0.076 Cl
ENDBRANCH   1   2
BRANCH   1   8
ATOM      8  N   UNL     1       0.126   0.060   2.447  0.00  0.00    -0.295 NA
ATOM      9  C   UNL     1      -1.285  -0.383   2.585  0.00  0.00    +0.086 C 
ATOM     10  C   UNL     1      -1.583  -0.153   4.087  0.00  0.00    +0.035 C 
ATOM     11  C   UNL     1      -0.252  -0.542   4.769  0.00  0.00    +0.072 C 
ATOM     12  C   UNL     1       0.817  -0.409   3.668  0.00  0.00    +0.103 C 
BRANCH  11  13
ATOM     13  N   UNL     1       0.040   0.373   5.879  0.00  0.00    -0.294 NA
ATOM     14  C   UNL     1       1.361   0.092   6.461  0.00  0.00    +0.113 C 
ATOM     15  C   UNL     1       1.649   1.105   7.572  0.00  0.00    +0.175 C 
ATOM     16  O   UNL     1       0.604   1.046   8.547  0.00  0.00    -0.377 OA
ATOM     17  C   UNL     1      -0.695   1.315   8.015  0.00  0.00    +0.175 C 
ATOM     18  C   UNL     1      -1.008   0.305   6.908  0.00  0.00    +0.113 C 
ENDBRANCH  11  13
ENDBRANCH   1   8
BRANCH   1  20
ATOM     19  C   UNL     1      -0.019   1.526   0.010  0.00  0.00    -0.012 C 
ATOM     20  C   UNL     1       0.002  -0.004   0.002  0.00  0.00    -0.056 C 
BRANCH  20  21
ATOM     21  N   UNL     1       0.690  -0.478  -1.207  0.00  0.00    +0.381 N 
ATOM     22  H   UNL     1       0.703  -1.487  -1.212  0.00  0.00    -0.090 HD
ATOM     23  H   UNL     1       0.202  -0.144  -2.024  0.00  0.00    -0.090 HD
ATOM     24  H   UNL     1       1.636  -0.129  -1.214  0.00  0.00    -0.090 HD
ENDBRANCH  20  21
ENDBRANCH   1  20
TORSDOF 5
