REMARK  Name = ZINC45355669
REMARK  12 active torsions:
REMARK  status: ('A' for Active; 'I' for Inactive)
REMARK    1  A    between atoms: C_1  and  C_2
REMARK    2  A    between atoms: C_2  and  N_3
REMARK    3  A    between atoms: N_3  and  C_4
REMARK    4  A    between atoms: N_3  and  C_14
REMARK    5  A    between atoms: C_4  and  C_5
REMARK    6  A    between atoms: C_8  and  O_12
REMARK    7  A    between atoms: O_12  and  C_13
REMARK    8  A    between atoms: C_14  and  C_15
REMARK    9  A    between atoms: C_17  and  O_18
REMARK   10  A    between atoms: C_27  and  O_29
REMARK   11  A    between atoms: O_29  and  C_30
REMARK   12  A    between atoms: C_30  and  C_31
REMARK                            x       y       z     vdW  Elec       q    Type
REMARK                         _______ _______ _______ _____ _____    ______ ____
ROOT
ATOM      1  C   UNL     1      -2.057   1.571  -1.238  0.00  0.00    -0.047 A 
ATOM      2  C   UNL     1      -2.764   2.287  -0.292  0.00  0.00    +0.090 A 
ATOM      3  C   UNL     1      -2.413   3.599  -0.013  0.00  0.00    +0.285 A 
ATOM      4  O   UNL     1      -1.394   4.196  -0.641  0.00  0.00    -0.425 OA
ATOM      5  C   UNL     1      -0.669   3.543  -1.573  0.00  0.00    +0.141 A 
ATOM      6  C   UNL     1      -0.980   2.202  -1.894  0.00  0.00    +0.019 A 
ATOM      7  C   UNL     1      -0.224   1.515  -2.861  0.00  0.00    +0.013 A 
ATOM      8  C   UNL     1       0.809   2.140  -3.483  0.00  0.00    +0.024 A 
ATOM      9  C   UNL     1       1.129   3.473  -3.166  0.00  0.00    +0.040 A 
ATOM     10  C   UNL     1       0.381   4.171  -2.215  0.00  0.00    +0.070 A 
ATOM     11  N   UNL     1       2.166   4.088  -3.795  0.00  0.00    -0.251 N 
ATOM     12  C   UNL     1       2.643   5.231  -3.324  0.00  0.00    +0.405 C 
ATOM     13  O   UNL     1       2.241   5.667  -2.258  0.00  0.00    -0.226 OA
ATOM     14  H   UNL     1       2.556   3.690  -4.589  0.00  0.00    +0.158 HD
ENDROOT
BRANCH   3  15
ATOM     15  O   UNL     1      -3.111   4.287   0.911  0.00  0.00    -0.480 OA
ATOM     16  H   UNL     1      -2.801   5.193   1.045  0.00  0.00    +0.295 HD
ENDBRANCH   3  15
BRANCH   1  17
ATOM     17  C   UNL     1      -2.423   0.144  -1.555  0.00  0.00    -0.042 C 
BRANCH  17  18
ATOM     18  N   UNL     1      -1.823  -0.750  -0.556  0.00  0.00    +0.385 N 
ATOM     19  H   UNL     1      -0.826  -0.596  -0.522  0.00  0.00    -0.081 HD
BRANCH  18  21
ATOM     20  C   UNL     1      -1.412  -2.461  -2.258  0.00  0.00    -0.017 C 
ATOM     21  C   UNL     1      -2.091  -2.147  -0.924  0.00  0.00    -0.081 C 
ENDBRANCH  18  21
BRANCH  18  22
ATOM     22  C   UNL     1      -2.406  -0.471   0.763  0.00  0.00    -0.042 C 
BRANCH  22  23
ATOM     23  C   UNL     1      -1.705  -1.300   1.808  0.00  0.00    -0.061 A 
ATOM     24  C   UNL     1      -2.176  -2.563   2.117  0.00  0.00    +0.005 A 
ATOM     25  C   UNL     1      -1.536  -3.326   3.075  0.00  0.00    +0.049 A 
ATOM     26  C   UNL     1      -0.420  -2.825   3.728  0.00  0.00    +0.155 A 
ATOM     27  C   UNL     1       0.053  -1.556   3.416  0.00  0.00    +0.165 A 
ATOM     28  C   UNL     1      -0.589  -0.799   2.452  0.00  0.00    +0.044 A 
ATOM     29  F   UNL     1       1.140  -1.065   4.049  0.00  0.00    -0.202 F 
BRANCH  26  30
ATOM     30  O   UNL     1       0.211  -3.574   4.671  0.00  0.00    -0.492 OA
ATOM     31  C   UNL     1      -0.331  -4.869   4.940  0.00  0.00    +0.277 C 
ENDBRANCH  26  30
ENDBRANCH  22  23
ENDBRANCH  18  22
ENDBRANCH  17  18
ENDBRANCH   1  17
BRANCH  12  32
ATOM     32  O   UNL     1       3.576   5.914  -4.025  0.00  0.00    -0.450 OA
BRANCH  32  33
ATOM     33  C   UNL     1       4.046   7.138  -3.457  0.00  0.00    +0.230 C 
ATOM     34  C   UNL     1       5.089   7.764  -4.386  0.00  0.00    +0.048 C 
ENDBRANCH  32  33
ENDBRANCH  12  32
TORSDOF 9
