REMARK  Name = ZINC16684993
REMARK  10 active torsions:
REMARK  status: ('A' for Active; 'I' for Inactive)
REMARK    1  A    between atoms: C_1  and  C_2
REMARK    2  A    between atoms: C_2  and  C_3
REMARK    3  A    between atoms: C_3  and  N_4
REMARK    4  A    between atoms: C_10  and  S_11
REMARK    5  A    between atoms: S_11  and  C_12
REMARK    6  A    between atoms: C_12  and  C_14
REMARK    7  A    between atoms: C_12  and  C_15
REMARK    8  A    between atoms: N_17  and  C_18
REMARK    9  A    between atoms: C_21  and  C_24
REMARK   10  A    between atoms: C_24  and  C_25
REMARK                            x       y       z     vdW  Elec       q    Type
REMARK                         _______ _______ _______ _____ _____    ______ ____
ROOT
ATOM      1  C   UNL     1      -3.732  -3.449  -3.948  0.00  0.00    +0.230 C 
ATOM      2  O   UNL     1      -4.231  -2.346  -3.885  0.00  0.00    -0.274 OA
ATOM      3  N   UNL     1      -4.272  -4.388  -4.751  0.00  0.00    -0.285 N 
ATOM      4  H   UNL     1      -3.836  -5.248  -4.854  0.00  0.00    +0.155 HD
ENDROOT
BRANCH   3   5
ATOM      5  C   UNL     1      -5.462  -4.121  -5.437  0.00  0.00    +0.033 A 
ATOM      6  C   UNL     1      -6.391  -5.134  -5.638  0.00  0.00    +0.023 A 
ATOM      7  C   UNL     1      -7.565  -4.867  -6.316  0.00  0.00    +0.006 A 
ATOM      8  C   UNL     1      -7.816  -3.594  -6.793  0.00  0.00    -0.041 A 
ATOM      9  C   UNL     1      -6.892  -2.584  -6.595  0.00  0.00    +0.006 A 
ATOM     10  C   UNL     1      -5.719  -2.842  -5.913  0.00  0.00    +0.023 A 
BRANCH   8  11
ATOM     11  C   UNL     1      -9.097  -3.307  -7.532  0.00  0.00    +0.098 C 
BRANCH  11  12
ATOM     12  C   UNL     1     -10.156  -2.875  -6.551  0.00  0.00    +0.084 A 
ATOM     13  N   UNL     1     -10.432  -1.666  -6.156  0.00  0.00    -0.244 NA
ATOM     14  C   UNL     1     -11.413  -1.407  -5.267  0.00  0.00    +0.078 A 
ATOM     15  C   UNL     1     -11.847  -0.176  -4.731  0.00  0.00    +0.029 A 
ATOM     16  C   UNL     1     -12.868  -0.135  -3.832  0.00  0.00    +0.002 A 
ATOM     17  C   UNL     1     -13.516  -1.289  -3.413  0.00  0.00    +0.001 A 
ATOM     18  C   UNL     1     -13.120  -2.513  -3.916  0.00  0.00    +0.017 A 
ATOM     19  C   UNL     1     -12.089  -2.566  -4.824  0.00  0.00    +0.039 A 
ATOM     20  S   UNL     1     -11.255  -3.846  -5.724  0.00  0.00    -0.072 S 
ENDBRANCH  11  12
ENDBRANCH   8  11
ENDBRANCH   3   5
BRANCH   1  21
ATOM     21  C   UNL     1      -2.509  -3.772  -3.129  0.00  0.00    +0.137 C 
ATOM     22  C   UNL     1      -2.923  -4.549  -1.878  0.00  0.00    +0.029 C 
BRANCH  21  23
ATOM     23  S   UNL     1      -1.686  -2.231  -2.639  0.00  0.00    -0.073 S 
BRANCH  23  30
ATOM     24  N   UNL     1       0.742  -1.953  -1.277  0.00  0.00    -0.271 N 
ATOM     25  C   UNL     1       1.707  -2.729  -0.746  0.00  0.00    +0.345 A 
ATOM     26  O   UNL     1       2.708  -2.341  -0.171  0.00  0.00    -0.245 OA
ATOM     27  N   UNL     1       1.363  -4.015  -0.966  0.00  0.00    -0.226 N 
ATOM     28  H   UNL     1       1.866  -4.799  -0.696  0.00  0.00    +0.194 HD
ATOM     29  N   UNL     1       0.143  -4.010  -1.657  0.00  0.00    -0.145 NA
ATOM     30  C   UNL     1      -0.218  -2.771  -1.829  0.00  0.00    +0.193 A 
BRANCH  24  31
ATOM     31  C   UNL     1       0.715  -0.488  -1.263  0.00  0.00    +0.129 C 
BRANCH  31  33
ATOM     32  C   UNL     1      -0.026   1.527   0.015  0.00  0.00    +0.005 C 
ATOM     33  C   UNL     1       0.002  -0.003   0.001  0.00  0.00    +0.018 C 
ENDBRANCH  31  33
ENDBRANCH  24  31
ENDBRANCH  23  30
ENDBRANCH  21  23
ENDBRANCH   1  21
TORSDOF 8
