REMARK  Name = ZINC59094813
REMARK  14 active torsions:
REMARK  status: ('A' for Active; 'I' for Inactive)
REMARK    1  A    between atoms: C_1  and  C_2
REMARK    2  A    between atoms: C_6  and  C_29
REMARK    3  A    between atoms: C_7  and  N_8
REMARK    4  A    between atoms: N_8  and  C_9
REMARK    5  A    between atoms: C_9  and  N_11
REMARK    6  A    between atoms: N_11  and  C_12
REMARK    7  A    between atoms: N_11  and  C_19
REMARK    8  A    between atoms: C_12  and  C_13
REMARK    9  A    between atoms: C_21  and  C_27
REMARK   10  A    between atoms: C_21  and  C_28
REMARK   11  A    between atoms: C_23  and  C_25
REMARK   12  A    between atoms: C_23  and  C_26
REMARK   13  A    between atoms: C_29  and  C_30
REMARK   14  A    between atoms: C_29  and  C_31
REMARK                            x       y       z     vdW  Elec       q    Type
REMARK                         _______ _______ _______ _____ _____    ______ ____
ROOT
ATOM      1  N   UNL     1      -0.798   1.523   1.844  0.00  0.00    -0.305 N 
ENDROOT
BRANCH   1   2
ATOM      2  C   UNL     1      -1.019   0.721   3.054  0.00  0.00    +0.073 C 
ATOM      3  C   UNL     1       0.331   0.417   3.708  0.00  0.00    +0.009 C 
ATOM      4  C   UNL     1       0.119  -0.428   4.963  0.00  0.00    -0.072 C 
ATOM      5  N   UNL     1      -0.653  -1.632   4.691  0.00  0.00    +0.386 N 
ATOM      6  C   UNL     1      -1.861  -1.493   3.893  0.00  0.00    -0.072 C 
ATOM      7  C   UNL     1      -1.674  -0.605   2.668  0.00  0.00    +0.009 C 
ATOM      8  C   UNL     1      -2.244  -2.903   3.382  0.00  0.00    -0.010 C 
ATOM      9  C   UNL     1      -3.038  -0.987   4.731  0.00  0.00    -0.010 C 
ATOM     10  C   UNL     1      -0.508   0.418   6.071  0.00  0.00    -0.010 C 
ATOM     11  C   UNL     1       1.515  -0.871   5.459  0.00  0.00    -0.010 C 
ATOM     12  H   UNL     1      -0.039  -2.309   4.230  0.00  0.00    -0.084 HD
ATOM     13  H   UNL     1      -0.904  -2.062   5.584  0.00  0.00    -0.084 HD
ENDBRANCH   1   2
BRANCH   1  14
ATOM     14  C   UNL     1      -0.326   0.938   0.725  0.00  0.00    +0.138 C 
ATOM     15  S   UNL     1      -0.060   1.875  -0.683  0.00  0.00    -0.018 S 
BRANCH  14  16
ATOM     16  N   UNL     1      -0.063  -0.384   0.715  0.00  0.00    -0.296 N 
ATOM     17  H   UNL     1      -0.695  -1.001   0.314  0.00  0.00    +0.154 HD
BRANCH  16  24
ATOM     18  C   UNL     1       0.093  -3.153   1.348  0.00  0.00    +0.045 C 
ATOM     19  C   UNL     1       1.240  -2.211   1.607  0.00  0.00    -0.029 A 
ATOM     20  C   UNL     1       2.413  -2.684   2.161  0.00  0.00    +0.005 A 
ATOM     21  C   UNL     1       3.466  -1.820   2.398  0.00  0.00    +0.001 A 
ATOM     22  C   UNL     1       3.349  -0.479   2.081  0.00  0.00    +0.006 A 
ATOM     23  C   UNL     1       2.179   0.001   1.527  0.00  0.00    -0.023 A 
ATOM     24  C   UNL     1       1.121  -0.866   1.282  0.00  0.00    +0.039 A 
BRANCH  23  25
ATOM     25  C   UNL     1       2.052   1.462   1.182  0.00  0.00    +0.015 C 
ATOM     26  C   UNL     1       2.952   2.285   2.106  0.00  0.00    +0.012 C 
ATOM     27  C   UNL     1       2.477   1.682  -0.272  0.00  0.00    +0.012 C 
ENDBRANCH  23  25
ENDBRANCH  16  24
ENDBRANCH  14  16
ENDBRANCH   1  14
BRANCH   1  28
ATOM     28  C   UNL     1      -1.091   2.958   1.853  0.00  0.00    +0.143 C 
BRANCH  28  29
ATOM     29  C   UNL     1      -2.522   3.181   1.435  0.00  0.00    -0.012 A 
ATOM     30  C   UNL     1      -2.844   3.357   0.097  0.00  0.00    +0.008 A 
ATOM     31  C   UNL     1      -4.173   3.559  -0.240  0.00  0.00    +0.020 A 
ATOM     32  C   UNL     1      -5.127   3.578   0.760  0.00  0.00    +0.111 A 
ATOM     33  N   UNL     1      -4.784   3.408   2.022  0.00  0.00    -0.263 NA
ATOM     34  C   UNL     1      -3.530   3.207   2.379  0.00  0.00    +0.115 A 
ENDBRANCH  28  29
ENDBRANCH   1  28
TORSDOF 7
