REMARK  Name = ZINC38854015
REMARK  4 active torsions:
REMARK  status: ('A' for Active; 'I' for Inactive)
REMARK    1  A    between atoms: C_3  and  C_9
REMARK    2  A    between atoms: C_9  and  N_10
REMARK    3  A    between atoms: C_14  and  C_17
REMARK    4  A    between atoms: C_22  and  C_25
REMARK                            x       y       z     vdW  Elec       q    Type
REMARK                         _______ _______ _______ _____ _____    ______ ____
ROOT
ATOM      1  N   UNL     1       4.215   2.232   1.349  0.00  0.00    +0.383 N 
ATOM      2  C   UNL     1       4.684   0.888   1.707  0.00  0.00    -0.078 C 
ATOM      3  C   UNL     1       5.206   0.893   3.146  0.00  0.00    -0.018 C 
ATOM      4  C   UNL     1       6.366   1.887   3.259  0.00  0.00    +0.009 C 
ATOM      5  C   UNL     1       5.885   3.270   2.811  0.00  0.00    +0.059 C 
ATOM      6  C   UNL     1       5.338   3.177   1.385  0.00  0.00    -0.066 C 
ATOM      7  H   UNL     1       3.508   2.526   2.006  0.00  0.00    -0.081 HD
ENDROOT
BRANCH   5   8
ATOM      8  C   UNL     1       7.039   4.239   2.846  0.00  0.00    +0.217 C 
ATOM      9  O   UNL     1       8.158   3.860   2.575  0.00  0.00    -0.275 OA
ATOM     10  N   UNL     1       6.826   5.528   3.180  0.00  0.00    -0.301 N 
ATOM     11  C   UNL     1       5.463   6.027   3.407  0.00  0.00    +0.108 C 
ATOM     12  C   UNL     1       5.235   7.256   2.521  0.00  0.00    +0.032 C 
ATOM     13  C   UNL     1       6.335   8.286   2.791  0.00  0.00    +0.078 C 
ATOM     14  C   UNL     1       7.697   7.684   2.439  0.00  0.00    +0.032 C 
ATOM     15  C   UNL     1       7.954   6.458   3.329  0.00  0.00    +0.108 C 
BRANCH  13  16
ATOM     16  C   UNL     1       6.094   9.510   1.946  0.00  0.00    +0.214 C 
ATOM     17  O   UNL     1       5.137   9.555   1.202  0.00  0.00    -0.276 OA
ATOM     18  N   UNL     1       6.942  10.556   2.018  0.00  0.00    -0.329 N 
ATOM     19  H   UNL     1       7.707  10.520   2.613  0.00  0.00    +0.145 HD
ATOM     20  H   UNL     1       6.787  11.344   1.474  0.00  0.00    +0.145 HD
ENDBRANCH  13  16
ENDBRANCH   5   8
BRANCH   1  21
ATOM     21  C   UNL     1       3.644   2.205  -0.004  0.00  0.00    -0.042 C 
BRANCH  21  24
ATOM     22  C   UNL     1       1.309  -0.708  -0.568  0.00  0.00    +0.020 A 
ATOM     23  C   UNL     1       2.444   0.081  -0.564  0.00  0.00    +0.004 A 
ATOM     24  C   UNL     1       2.405   1.346  -0.009  0.00  0.00    -0.046 A 
ATOM     25  C   UNL     1       1.230   1.825   0.542  0.00  0.00    +0.044 A 
ATOM     26  C   UNL     1       0.093   1.037   0.537  0.00  0.00    +0.040 A 
ATOM     27  C   UNL     1       0.133  -0.230  -0.018  0.00  0.00    +0.042 A 
ATOM     28 CL   UNL     1      -1.293  -1.220  -0.023  0.00  0.00    -0.083 Cl
ATOM     29 CL   UNL     1       1.181   3.414   1.239  0.00  0.00    -0.083 Cl
ENDBRANCH  21  24
ENDBRANCH   1  21
TORSDOF 4
