REMARK  Name = ZINC38752151
REMARK  9 active torsions:
REMARK  status: ('A' for Active; 'I' for Inactive)
REMARK    1  A    between atoms: C_7  and  C_10
REMARK    2  A    between atoms: C_10  and  C_11
REMARK    3  A    between atoms: C_11  and  C_13
REMARK    4  A    between atoms: C_11  and  N_30
REMARK    5  A    between atoms: N_15  and  C_16
REMARK    6  A    between atoms: C_16  and  C_17
REMARK    7  A    between atoms: C_17  and  C_19
REMARK    8  A    between atoms: C_17  and  N_25
REMARK    9  A    between atoms: C_31  and  C_33
REMARK                            x       y       z     vdW  Elec       q    Type
REMARK                         _______ _______ _______ _____ _____    ______ ____
ROOT
ATOM      1  C   UNL     1      -4.640   3.688  -0.272  0.00  0.00    +0.163 C 
ENDROOT
BRANCH   1   2
ATOM      2  C   UNL     1      -5.029   5.139  -0.390  0.00  0.00    +0.234 C 
ATOM      3  O   UNL     1      -6.200   5.452  -0.417  0.00  0.00    -0.274 OA
ATOM      4  N   UNL     1      -4.075   6.088  -0.466  0.00  0.00    -0.315 N 
ATOM      5  H   UNL     1      -3.139   5.837  -0.444  0.00  0.00    +0.149 HD
BRANCH   4   6
ATOM      6  C   UNL     1      -4.454   7.499  -0.580  0.00  0.00    +0.090 C 
BRANCH   6   7
ATOM      7  C   UNL     1      -3.192   8.364  -0.613  0.00  0.00    -0.037 C 
BRANCH   7   8
ATOM      8  N   UNL     1      -2.454   8.106  -1.856  0.00  0.00    +0.383 N 
ATOM      9  C   UNL     1      -1.270   9.000  -1.944  0.00  0.00    -0.078 C 
ATOM     10  C   UNL     1      -0.338   8.258  -2.935  0.00  0.00    -0.020 C 
ATOM     11  C   UNL     1      -0.552   6.772  -2.564  0.00  0.00    -0.020 C 
ATOM     12  C   UNL     1      -1.918   6.727  -1.855  0.00  0.00    -0.078 C 
ATOM     13  H   UNL     1      -3.055   8.245  -2.654  0.00  0.00    -0.081 HD
ENDBRANCH   7   8
BRANCH   7  14
ATOM     14  C   UNL     1      -3.586   9.841  -0.551  0.00  0.00    +0.042 C 
ATOM     15  C   UNL     1      -2.370  10.739  -0.200  0.00  0.00    +0.040 C 
ATOM     16  C   UNL     1      -2.776  11.845   0.721  0.00  0.00    -0.019 C 
ATOM     17  C   UNL     1      -3.905  11.754   1.397  0.00  0.00    +0.036 C 
ATOM     18  S   UNL     1      -4.638  10.199   0.918  0.00  0.00    -0.131 S 
ENDBRANCH   7  14
ENDBRANCH   6   7
ENDBRANCH   4   6
ENDBRANCH   1   2
BRANCH   1  19
ATOM     19  N   UNL     1      -5.767   2.845  -0.680  0.00  0.00    -0.299 N 
ATOM     20  C   UNL     1      -6.939   2.922  -0.019  0.00  0.00    +0.251 C 
ATOM     21  O   UNL     1      -7.062   3.692   0.915  0.00  0.00    -0.270 OA
ATOM     22  H   UNL     1      -5.670   2.232  -1.425  0.00  0.00    +0.150 HD
BRANCH  20  23
ATOM     23  C   UNL     1      -8.067   2.079  -0.427  0.00  0.00    +0.074 A 
ATOM     24  C   UNL     1      -9.344   2.010   0.108  0.00  0.00    +0.021 A 
ATOM     25  C   UNL     1     -10.195   1.113  -0.493  0.00  0.00    +0.008 A 
ATOM     26  C   UNL     1      -9.745   0.377  -1.539  0.00  0.00    +0.046 A 
ATOM     27  S   UNL     1      -8.156   0.882  -1.745  0.00  0.00    -0.092 S 
ENDBRANCH  20  23
ENDBRANCH   1  19
BRANCH   1  28
ATOM     28  C   UNL     1      -4.268   3.376   1.179  0.00  0.00    +0.069 C 
BRANCH  28  35
ATOM     29  C   UNL     1      -0.060   1.421   0.511  0.00  0.00    +0.001 A 
ATOM     30  C   UNL     1      -0.063   0.048   0.715  0.00  0.00    +0.002 A 
ATOM     31  C   UNL     1      -1.220  -0.606   1.076  0.00  0.00    +0.026 A 
ATOM     32  C   UNL     1      -2.399   0.114   1.238  0.00  0.00    +0.047 A 
ATOM     33  N   UNL     1      -3.685  -0.237   1.583  0.00  0.00    -0.360 N 
ATOM     34  C   UNL     1      -4.483   0.874   1.599  0.00  0.00    +0.087 A 
ATOM     35  C   UNL     1      -3.762   1.959   1.274  0.00  0.00    -0.020 A 
ATOM     36  C   UNL     1      -2.391   1.506   1.030  0.00  0.00    +0.003 A 
ATOM     37  C   UNL     1      -1.206   2.149   0.669  0.00  0.00    +0.010 A 
ATOM     38  H   UNL     1      -3.982  -1.139   1.783  0.00  0.00    +0.165 HD
ENDBRANCH  28  35
ENDBRANCH   1  28
TORSDOF 9
