REMARK  Name = ZINC40980208
REMARK  9 active torsions:
REMARK  status: ('A' for Active; 'I' for Inactive)
REMARK    1  A    between atoms: C_1  and  O_2
REMARK    2  A    between atoms: O_2  and  C_3
REMARK    3  A    between atoms: C_3  and  C_5
REMARK    4  A    between atoms: C_6  and  C_24
REMARK    5  A    between atoms: C_13  and  C_15
REMARK    6  A    between atoms: C_18  and  C_21
REMARK    7  A    between atoms: C_24  and  S_25
REMARK    8  A    between atoms: S_25  and  C_26
REMARK    9  A    between atoms: C_29  and  C_31
REMARK                            x       y       z     vdW  Elec       q    Type
REMARK                         _______ _______ _______ _____ _____    ______ ____
ROOT
ATOM      1  C   UNL     1       0.747  -2.014  -1.082  0.00  0.00    +0.083 C 
ATOM      2  C   UNL     1       1.174  -2.577  -2.223  0.00  0.00    +0.033 C 
ATOM      3  N   UNL     1       1.184  -3.936  -2.411  0.00  0.00    -0.285 N 
ATOM      4  C   UNL     1       0.981  -4.736  -1.296  0.00  0.00    +0.240 A 
ATOM      5  N   UNL     1       1.144  -6.016  -1.122  0.00  0.00    -0.092 NA
ATOM      6  N   UNL     1       0.841  -6.346   0.086  0.00  0.00    -0.021 NA
ATOM      7  N   UNL     1       0.466  -5.305   0.757  0.00  0.00    -0.042 NA
ATOM      8  N   UNL     1       0.541  -4.223  -0.117  0.00  0.00    -0.201 N 
ATOM      9  C   UNL     1       0.238  -2.812   0.088  0.00  0.00    +0.181 C 
ATOM     10  H   UNL     1       1.327  -4.323  -3.289  0.00  0.00    +0.155 HD
ENDROOT
BRANCH   9  11
ATOM     11  C   UNL     1      -1.254  -2.636   0.206  0.00  0.00    -0.018 A 
ATOM     12  C   UNL     1      -2.077  -3.017  -0.839  0.00  0.00    +0.007 A 
ATOM     13  C   UNL     1      -3.444  -2.858  -0.739  0.00  0.00    +0.015 A 
ATOM     14  C   UNL     1      -3.996  -2.311   0.422  0.00  0.00    +0.063 A 
ATOM     15  C   UNL     1      -3.159  -1.928   1.473  0.00  0.00    +0.015 A 
ATOM     16  C   UNL     1      -1.795  -2.098   1.361  0.00  0.00    +0.007 A 
BRANCH  14  17
ATOM     17  C   UNL     1      -5.457  -2.137   0.537  0.00  0.00    +0.387 C 
ATOM     18  O   UNL     1      -6.187  -2.473  -0.385  0.00  0.00    -0.241 OA
ATOM     19  O   UNL     1      -5.938  -1.658   1.554  0.00  0.00    -0.241 OA
ENDBRANCH  14  17
ENDBRANCH   9  11
BRANCH   1  20
ATOM     20  C   UNL     1       0.783  -0.606  -0.972  0.00  0.00    +0.339 C 
ATOM     21  O   UNL     1       1.690  -0.066  -0.366  0.00  0.00    -0.245 OA
BRANCH  20  23
ATOM     22  C   UNL     1      -0.088   1.558  -1.387  0.00  0.00    +0.280 C 
ATOM     23  O   UNL     1      -0.188   0.141  -1.538  0.00  0.00    -0.465 OA
ENDBRANCH  20  23
ENDBRANCH   1  20
BRANCH   2  24
ATOM     24  C   UNL     1       1.658  -1.685  -3.337  0.00  0.00    +0.127 C 
BRANCH  24  25
ATOM     25  S   UNL     1       3.469  -1.761  -3.429  0.00  0.00    -0.091 S 
BRANCH  25  26
ATOM     26  C   UNL     1       3.874  -0.680  -4.761  0.00  0.00    +0.159 A 
ATOM     27  N   UNL     1       3.082   0.047  -5.541  0.00  0.00    -0.134 NA
ATOM     28  N   UNL     1       3.542   0.777  -6.461  0.00  0.00    -0.140 NA
ATOM     29  C   UNL     1       4.843   0.862  -6.704  0.00  0.00    +0.133 A 
ATOM     30  S   UNL     1       5.470  -0.244  -5.443  0.00  0.00    -0.039 S 
BRANCH  29  31
ATOM     31  C   UNL     1       5.570   1.649  -7.723  0.00  0.00    +0.009 A 
ATOM     32  C   UNL     1       6.962   1.580  -7.801  0.00  0.00    +0.010 A 
ATOM     33  C   UNL     1       7.633   2.317  -8.755  0.00  0.00    +0.001 A 
ATOM     34  C   UNL     1       6.930   3.125  -9.631  0.00  0.00    +0.000 A 
ATOM     35  C   UNL     1       5.550   3.199  -9.558  0.00  0.00    +0.001 A 
ATOM     36  C   UNL     1       4.866   2.462  -8.613  0.00  0.00    +0.010 A 
ENDBRANCH  29  31
ENDBRANCH  25  26
ENDBRANCH  24  25
ENDBRANCH   2  24
TORSDOF 8
