REMARK  Name = ZINC22935992
REMARK  9 active torsions:
REMARK  status: ('A' for Active; 'I' for Inactive)
REMARK    1  A    between atoms: C_1  and  C_2
REMARK    2  A    between atoms: C_2  and  N_3
REMARK    3  A    between atoms: C_7  and  C_9
REMARK    4  A    between atoms: C_9  and  N_10
REMARK    5  A    between atoms: N_10  and  C_11
REMARK    6  A    between atoms: C_11  and  C_12
REMARK    7  A    between atoms: C_15  and  O_18
REMARK    8  A    between atoms: O_18  and  C_19
REMARK    9  A    between atoms: C_19  and  C_20
REMARK                            x       y       z     vdW  Elec       q    Type
REMARK                         _______ _______ _______ _____ _____    ______ ____
ROOT
ATOM      1  C   UNL     1       2.748  -2.024   2.824  0.00  0.00    -0.064 A 
ATOM      2  C   UNL     1       3.419  -0.820   2.716  0.00  0.00    +0.005 A 
ATOM      3  C   UNL     1       4.069  -0.289   3.813  0.00  0.00    +0.046 A 
ATOM      4  C   UNL     1       4.049  -0.966   5.024  0.00  0.00    +0.121 A 
ATOM      5  C   UNL     1       3.374  -2.174   5.130  0.00  0.00    +0.046 A 
ATOM      6  C   UNL     1       2.721  -2.697   4.031  0.00  0.00    +0.005 A 
ENDROOT
BRANCH   1   7
ATOM      7  C   UNL     1       2.039  -2.601   1.625  0.00  0.00    -0.047 C 
BRANCH   7   8
ATOM      8  N   UNL     1       0.656  -2.108   1.590  0.00  0.00    +0.383 N 
ATOM      9  H   UNL     1       0.660  -1.101   1.526  0.00  0.00    -0.085 HD
ATOM     10  H   UNL     1       0.177  -2.389   2.432  0.00  0.00    -0.085 HD
BRANCH   8  11
ATOM     11  C   UNL     1      -0.035  -2.670   0.421  0.00  0.00    -0.063 C 
BRANCH  11  16
ATOM     12  N   UNL     1      -2.110  -2.566  -0.895  0.00  0.00    -0.301 NA
ATOM     13  C   UNL     1      -3.324  -3.301  -0.481  0.00  0.00    +0.084 C 
ATOM     14  C   UNL     1      -3.689  -2.713   0.905  0.00  0.00    +0.017 C 
ATOM     15  C   UNL     1      -2.287  -2.483   1.527  0.00  0.00    +0.018 C 
ATOM     16  C   UNL     1      -1.433  -2.059   0.313  0.00  0.00    +0.040 C 
BRANCH  12  18
ATOM     17  C   UNL     1      -1.907  -3.838  -2.978  0.00  0.00    +0.020 C 
ATOM     18  C   UNL     1      -1.214  -3.428  -1.677  0.00  0.00    +0.081 C 
ENDBRANCH  12  18
ENDBRANCH  11  16
ENDBRANCH   8  11
ENDBRANCH   7   8
ENDBRANCH   1   7
BRANCH   4  19
ATOM     19  O   UNL     1       4.688  -0.446   6.104  0.00  0.00    -0.487 OA
BRANCH  19  20
ATOM     20  C   UNL     1       4.625  -1.197   7.319  0.00  0.00    +0.266 C 
BRANCH  20  21
ATOM     21  C   UNL     1       5.385  -0.470   8.398  0.00  0.00    +0.008 A 
ATOM     22  C   UNL     1       5.999   0.736   8.119  0.00  0.00    +0.010 A 
ATOM     23  C   UNL     1       6.696   1.403   9.109  0.00  0.00    +0.020 A 
ATOM     24  C   UNL     1       6.780   0.863  10.380  0.00  0.00    +0.042 A 
ATOM     25  C   UNL     1       6.166  -0.344  10.660  0.00  0.00    +0.040 A 
ATOM     26  C   UNL     1       5.464  -1.009   9.670  0.00  0.00    +0.049 A 
ATOM     27 CL   UNL     1       4.688  -2.521  10.023  0.00  0.00    -0.083 Cl
ATOM     28 CL   UNL     1       7.657   1.700  11.623  0.00  0.00    -0.083 Cl
ENDBRANCH  20  21
ENDBRANCH  19  20
ENDBRANCH   4  19
TORSDOF 8
