REMARK  Name = ZINC62508849
REMARK  3 active torsions:
REMARK  status: ('A' for Active; 'I' for Inactive)
REMARK    1  A    between atoms: C_4  and  C_7
REMARK    2  A    between atoms: C_10  and  C_12
REMARK    3  A    between atoms: C_21  and  N_24
REMARK                            x       y       z     vdW  Elec       q    Type
REMARK                         _______ _______ _______ _____ _____    ______ ____
ROOT
ATOM      1  C   UNL     1       2.963  -1.775   2.208  0.00  0.00    +0.223 C 
ATOM      2  O   UNL     1       3.774  -1.727   1.308  0.00  0.00    -0.275 OA
ATOM      3  N   UNL     1       3.217  -2.514   3.305  0.00  0.00    -0.271 N 
ATOM      4  C   UNL     1       2.207  -2.651   4.364  0.00  0.00    +0.114 C 
ATOM      5  C   UNL     1       2.915  -2.472   5.713  0.00  0.00    +0.024 C 
ATOM      6  C   UNL     1       3.934  -3.598   5.889  0.00  0.00    +0.038 C 
ATOM      7  C   UNL     1       4.827  -3.695   4.680  0.00  0.00    -0.026 A 
ATOM      8  C   UNL     1       4.446  -3.171   3.454  0.00  0.00    +0.042 A 
ATOM      9  C   UNL     1       5.289  -3.286   2.354  0.00  0.00    +0.056 A 
ATOM     10  C   UNL     1       6.506  -3.926   2.481  0.00  0.00    +0.128 A 
ATOM     11  C   UNL     1       6.885  -4.452   3.702  0.00  0.00    +0.033 A 
ATOM     12  C   UNL     1       6.051  -4.330   4.801  0.00  0.00    +0.007 A 
ENDROOT
BRANCH   1  15
ATOM     13  C   UNL     1       1.671   0.259   1.241  0.00  0.00    +0.032 C 
ATOM     14  C   UNL     1       1.605   0.367   2.766  0.00  0.00    +0.022 C 
ATOM     15  C   UNL     1       1.670  -1.008   2.098  0.00  0.00    +0.083 C 
BRANCH  13  19
ATOM     16  C   UNL     1       5.337   1.356  -0.657  0.00  0.00    +0.000 A 
ATOM     17  C   UNL     1       4.213   1.097  -1.421  0.00  0.00    +0.000 A 
ATOM     18  C   UNL     1       3.027   0.742  -0.806  0.00  0.00    +0.004 A 
ATOM     19  C   UNL     1       2.964   0.645   0.571  0.00  0.00    -0.044 A 
ATOM     20  C   UNL     1       4.088   0.904   1.334  0.00  0.00    +0.004 A 
ATOM     21  C   UNL     1       5.274   1.260   0.720  0.00  0.00    +0.000 A 
ENDBRANCH  13  19
ENDBRANCH   1  15
BRANCH  10  22
ATOM     22  N   UNL     1       7.403  -4.050   1.310  0.00  0.00    +0.056 N 
ATOM     23  O   UNL     1       7.071  -3.591   0.242  0.00  0.00    -0.126 OA
ATOM     24  O   UNL     1       8.468  -4.611   1.421  0.00  0.00    -0.126 OA
ENDBRANCH  10  22
TORSDOF 3
