REMARK  Name = ZINC15350238
REMARK  12 active torsions:
REMARK  status: ('A' for Active; 'I' for Inactive)
REMARK    1  A    between atoms: C_1  and  C_2
REMARK    2  A    between atoms: C_5  and  C_34
REMARK    3  A    between atoms: C_9  and  C_10
REMARK    4  A    between atoms: C_9  and  N_67
REMARK    5  A    between atoms: N_12  and  C_13
REMARK    6  A    between atoms: N_12  and  C_17
REMARK    7  A    between atoms: C_13  and  C_14
REMARK    8  A    between atoms: C_14  and  C_15
REMARK    9  A    between atoms: C_14  and  C_16
REMARK   10  A    between atoms: C_18  and  N_33
REMARK   11  A    between atoms: N_19  and  C_26
REMARK   12  A    between atoms: C_26  and  C_27
REMARK                            x       y       z     vdW  Elec       q    Type
REMARK                         _______ _______ _______ _____ _____    ______ ____
ROOT
ATOM      1  C   UNL     1      -2.941   2.705   1.977  0.00  0.00    +0.140 A 
ATOM      2  C   UNL     1      -2.167   1.715   2.547  0.00  0.00    +0.128 A 
ATOM      3  N   UNL     1      -0.845   1.604   2.185  0.00  0.00    -0.276 N 
ATOM      4  C   UNL     1      -0.315   2.444   1.277  0.00  0.00    +0.331 A 
ATOM      5  O   UNL     1       0.854   2.326   0.966  0.00  0.00    -0.246 OA
ATOM      6  N   UNL     1      -1.056   3.411   0.707  0.00  0.00    -0.273 N 
ATOM      7  H   UNL     1      -0.637   4.022   0.035  0.00  0.00    +0.173 HD
ATOM      8  C   UNL     1      -2.354   3.566   1.031  0.00  0.00    +0.277 A 
ATOM      9  O   UNL     1      -3.017   4.446   0.508  0.00  0.00    -0.266 OA
ENDROOT
BRANCH   1  12
ATOM     10  C   UNL     1      -5.265   2.574   1.431  0.00  0.00    +0.203 C 
ATOM     11  O   UNL     1      -6.428   2.781   1.706  0.00  0.00    -0.277 OA
ATOM     12  N   UNL     1      -4.299   2.848   2.332  0.00  0.00    -0.266 N 
BRANCH  10  13
ATOM     13  C   UNL     1      -4.899   2.011   0.082  0.00  0.00    +0.019 C 
BRANCH  13  21
ATOM     14  C   UNL     1      -9.031   1.665  -0.644  0.00  0.00    +0.005 C 
ATOM     15  C   UNL     1      -8.197   0.385  -0.728  0.00  0.00    -0.031 C 
ATOM     16  C   UNL     1      -7.934   0.043  -2.197  0.00  0.00    +0.003 C 
ATOM     17  C   UNL     1      -7.122   1.171  -2.839  0.00  0.00    -0.031 C 
ATOM     18  C   UNL     1      -5.818   1.360  -2.061  0.00  0.00    -0.075 C 
ATOM     19  C   UNL     1      -6.862   0.597  -0.012  0.00  0.00    -0.075 C 
ATOM     20  C   UNL     1      -6.803   0.810  -4.291  0.00  0.00    +0.005 C 
ATOM     21  N   UNL     1      -6.140   1.712  -0.662  0.00  0.00    +0.386 N 
ATOM     22  H   UNL     1      -6.740   2.545  -0.658  0.00  0.00    -0.081 HD
ENDBRANCH  13  21
ENDBRANCH  10  13
BRANCH  12  23
ATOM     23  C   UNL     1      -4.661   3.295   3.680  0.00  0.00    +0.117 C 
BRANCH  23  24
ATOM     24  C   UNL     1      -4.601   4.822   3.744  0.00  0.00    +0.001 C 
ATOM     25  C   UNL     1      -5.674   5.414   2.828  0.00  0.00    +0.009 C 
ATOM     26  C   UNL     1      -4.849   5.282   5.183  0.00  0.00    +0.009 C 
ENDBRANCH  23  24
ENDBRANCH  12  23
ENDBRANCH   1  12
BRANCH   2  27
ATOM     27  N   UNL     1      -2.710   0.854   3.471  0.00  0.00    -0.343 N 
ATOM     28  H   UNL     1      -2.143   0.212   3.927  0.00  0.00    +0.144 HD
ATOM     29  H   UNL     1      -3.659   0.887   3.666  0.00  0.00    +0.144 HD
ENDBRANCH   2  27
BRANCH   3  30
ATOM     30  C   UNL     1      -0.010   0.562   2.787  0.00  0.00    +0.163 C 
BRANCH  30  31
ATOM     31  C   UNL     1       0.643   1.099   4.035  0.00  0.00    -0.028 A 
ATOM     32  C   UNL     1       1.879   1.714   3.958  0.00  0.00    +0.005 A 
ATOM     33  C   UNL     1       2.475   2.211   5.101  0.00  0.00    +0.000 A 
ATOM     34  C   UNL     1       1.841   2.084   6.323  0.00  0.00    +0.000 A 
ATOM     35  C   UNL     1       0.607   1.465   6.400  0.00  0.00    +0.000 A 
ATOM     36  C   UNL     1       0.008   0.973   5.256  0.00  0.00    +0.005 A 
ENDBRANCH  30  31
ENDBRANCH   3  30
TORSDOF 8
