REMARK  Name = ZINC42542279
REMARK  8 active torsions:
REMARK  status: ('A' for Active; 'I' for Inactive)
REMARK    1  A    between atoms: C_1  and  C_2
REMARK    2  A    between atoms: C_5  and  N_24
REMARK    3  A    between atoms: C_6  and  N_9
REMARK    4  A    between atoms: C_7  and  C_8
REMARK    5  A    between atoms: C_10  and  C_12
REMARK    6  A    between atoms: C_12  and  C_14
REMARK    7  A    between atoms: C_12  and  N_15
REMARK    8  A    between atoms: N_15  and  C_16
REMARK                            x       y       z     vdW  Elec       q    Type
REMARK                         _______ _______ _______ _____ _____    ______ ____
ROOT
ATOM      1  N   UNL     1      -0.730  -2.328   2.496  0.00  0.00    -0.282 N 
ATOM      2  C   UNL     1      -0.549  -3.626   2.810  0.00  0.00    +0.237 C 
ATOM      3  O   UNL     1      -0.146  -4.402   1.969  0.00  0.00    -0.273 OA
ATOM      4  H   UNL     1      -1.126  -1.723   3.143  0.00  0.00    +0.155 HD
ENDROOT
BRANCH   1  10
ATOM      5  C   UNL     1      -0.956  -2.658  -2.404  0.00  0.00    +0.044 C 
ATOM      6  C   UNL     1      -0.440  -1.993  -1.154  0.00  0.00    -0.046 A 
ATOM      7  C   UNL     1       0.416  -0.911  -1.250  0.00  0.00    +0.006 A 
ATOM      8  C   UNL     1       0.892  -0.298  -0.106  0.00  0.00    +0.035 A 
ATOM      9  C   UNL     1       0.514  -0.765   1.138  0.00  0.00    +0.148 A 
ATOM     10  C   UNL     1      -0.345  -1.852   1.238  0.00  0.00    +0.067 A 
ATOM     11  C   UNL     1      -0.826  -2.462   0.086  0.00  0.00    -0.024 A 
ATOM     12  C   UNL     1      -1.763  -3.637   0.190  0.00  0.00    +0.046 C 
BRANCH   9  13
ATOM     13  N   UNL     1       1.025  -0.110   2.362  0.00  0.00    +0.058 N 
ATOM     14  O   UNL     1       1.674   0.907   2.278  0.00  0.00    -0.126 OA
ATOM     15  O   UNL     1       0.793  -0.591   3.447  0.00  0.00    -0.126 OA
ENDBRANCH   9  13
ENDBRANCH   1  10
BRANCH   2  16
ATOM     16  C   UNL     1      -0.847  -4.113   4.204  0.00  0.00    +0.154 C 
ATOM     17  C   UNL     1      -2.320  -3.856   4.530  0.00  0.00    +0.038 C 
BRANCH  16  18
ATOM     18  N   UNL     1      -0.572  -5.550   4.289  0.00  0.00    -0.333 N 
ATOM     19  H   UNL     1      -0.605  -6.098   3.489  0.00  0.00    +0.147 HD
BRANCH  18  20
ATOM     20  C   UNL     1      -0.262  -6.130   5.521  0.00  0.00    +0.033 A 
ATOM     21  C   UNL     1      -0.221  -5.347   6.668  0.00  0.00    +0.061 A 
ATOM     22  C   UNL     1       0.086  -5.923   7.887  0.00  0.00    +0.128 A 
ATOM     23  C   UNL     1       0.352  -7.280   7.965  0.00  0.00    +0.076 A 
ATOM     24  C   UNL     1       0.312  -8.063   6.823  0.00  0.00    +0.128 A 
ATOM     25  C   UNL     1      -0.001  -7.491   5.603  0.00  0.00    +0.061 A 
ATOM     26  F   UNL     1       0.573  -9.386   6.902  0.00  0.00    -0.205 F 
ATOM     27  F   UNL     1       0.127  -5.162   9.002  0.00  0.00    -0.205 F 
ENDBRANCH  18  20
ENDBRANCH  16  18
ENDBRANCH   2  16
TORSDOF 5
