REMARK  Name = ZINC39672931
REMARK  10 active torsions:
REMARK  status: ('A' for Active; 'I' for Inactive)
REMARK    1  A    between atoms: C_1  and  C_2
REMARK    2  A    between atoms: C_2  and  C_3
REMARK    3  A    between atoms: C_3  and  C_4
REMARK    4  A    between atoms: C_4  and  C_5
REMARK    5  A    between atoms: C_5  and  C_7
REMARK    6  A    between atoms: C_5  and  C_8
REMARK    7  A    between atoms: C_12  and  C_21
REMARK    8  A    between atoms: N_23  and  C_24
REMARK    9  A    between atoms: C_24  and  C_25
REMARK   10  A    between atoms: C_25  and  N_31
REMARK                            x       y       z     vdW  Elec       q    Type
REMARK                         _______ _______ _______ _____ _____    ______ ____
ROOT
ATOM      1  C   UNL     1      -2.881  -4.304   0.294  0.00  0.00    +0.218 C 
ATOM      2  O   UNL     1      -1.850  -4.940   0.247  0.00  0.00    -0.275 OA
ATOM      3  N   UNL     1      -4.068  -4.937   0.219  0.00  0.00    -0.300 N 
ATOM      4  C   UNL     1      -5.422  -4.336   0.251  0.00  0.00    +0.121 C 
ATOM      5  C   UNL     1      -6.233  -5.146  -0.785  0.00  0.00    +0.100 C 
ATOM      6  C   UNL     1      -5.503  -6.495  -0.889  0.00  0.00    -0.004 C 
ATOM      7  C   UNL     1      -4.314  -6.393   0.078  0.00  0.00    +0.115 C 
ATOM      8  C   UNL     1      -6.430  -7.632  -0.470  0.00  0.00    -0.010 C 
ATOM      9  C   UNL     1      -5.700  -8.967  -0.636  0.00  0.00    -0.082 C 
ATOM     10  N   UNL     1      -5.292  -9.133  -2.037  0.00  0.00    +0.379 N 
ATOM     11  C   UNL     1      -4.328  -8.089  -2.404  0.00  0.00    -0.082 C 
ATOM     12  C   UNL     1      -5.000  -6.716  -2.312  0.00  0.00    -0.010 C 
ATOM     13  H   UNL     1      -4.865 -10.040  -2.156  0.00  0.00    -0.086 HD
ATOM     14  H   UNL     1      -6.103  -9.065  -2.632  0.00  0.00    -0.086 HD
ENDROOT
BRANCH   5  15
ATOM     15  C   UNL     1      -7.647  -5.348  -0.304  0.00  0.00    +0.218 C 
ATOM     16  O   UNL     1      -7.877  -5.430   0.884  0.00  0.00    -0.275 OA
ATOM     17  N   UNL     1      -8.656  -5.437  -1.193  0.00  0.00    -0.313 N 
ATOM     18  H   UNL     1      -8.472  -5.371  -2.143  0.00  0.00    +0.149 HD
BRANCH  17  19
ATOM     19  C   UNL     1     -10.030  -5.633  -0.724  0.00  0.00    +0.126 C 
BRANCH  19  20
ATOM     20  C   UNL     1     -10.956  -5.824  -1.927  0.00  0.00    +0.038 C 
ATOM     21  C   UNL     1     -12.407  -5.897  -1.447  0.00  0.00    +0.024 C 
ATOM     22  C   UNL     1     -12.567  -7.078  -0.487  0.00  0.00    +0.002 C 
ATOM     23  C   UNL     1     -12.203  -8.376  -1.210  0.00  0.00    +0.000 C 
ATOM     24  C   UNL     1     -10.752  -8.303  -1.691  0.00  0.00    +0.002 C 
ATOM     25  C   UNL     1     -10.592  -7.122  -2.650  0.00  0.00    +0.024 C 
BRANCH  20  26
ATOM     26  N   UNL     1     -10.803  -4.690  -2.848  0.00  0.00    -0.291 NA
ATOM     27  C   UNL     1     -11.090  -3.418  -2.171  0.00  0.00    +0.113 C 
ATOM     28  C   UNL     1     -10.860  -2.262  -3.148  0.00  0.00    +0.175 C 
ATOM     29  O   UNL     1     -11.676  -2.455  -4.306  0.00  0.00    -0.377 OA
ATOM     30  C   UNL     1     -11.422  -3.684  -4.992  0.00  0.00    +0.175 C 
ATOM     31  C   UNL     1     -11.658  -4.854  -4.033  0.00  0.00    +0.113 C 
ENDBRANCH  20  26
ENDBRANCH  19  20
ENDBRANCH  17  19
ENDBRANCH   5  15
BRANCH   1  32
ATOM     32  C   UNL     1      -2.835  -2.804   0.436  0.00  0.00    +0.072 C 
ATOM     33  C   UNL     1      -3.557  -2.391   1.720  0.00  0.00    +0.017 C 
BRANCH  32  34
ATOM     34  C   UNL     1      -1.378  -2.342   0.499  0.00  0.00    +0.012 C 
BRANCH  34  35
ATOM     35  C   UNL     1      -1.328  -0.813   0.517  0.00  0.00    +0.000 C 
BRANCH  35  37
ATOM     36  C   UNL     1       0.179   1.178   0.598  0.00  0.00    +0.004 C 
ATOM     37  C   UNL     1       0.129  -0.351   0.580  0.00  0.00    -0.003 C 
ENDBRANCH  35  37
ENDBRANCH  34  35
ENDBRANCH  32  34
ENDBRANCH   1  32
TORSDOF 8
