REMARK  Name = ZINC18141585
REMARK  7 active torsions:
REMARK  status: ('A' for Active; 'I' for Inactive)
REMARK    1  A    between atoms: C_1  and  C_2
REMARK    2  A    between atoms: C_5  and  C_8
REMARK    3  A    between atoms: N_16  and  C_19
REMARK    4  A    between atoms: C_20  and  C_27
REMARK    5  A    between atoms: C_22  and  C_26
REMARK    6  A    between atoms: C_24  and  C_25
REMARK    7  A    between atoms: N_29  and  C_30
REMARK                            x       y       z     vdW  Elec       q    Type
REMARK                         _______ _______ _______ _____ _____    ______ ____
ROOT
ATOM      1  C   UNL     1       0.059  -4.275  -0.021  0.00  0.00    +0.157 C 
ATOM      2  C   UNL     1      -1.294  -4.832   0.404  0.00  0.00    +0.145 C 
ATOM      3  C   UNL     1      -1.020  -4.858   1.956  0.00  0.00    +0.249 C 
ATOM      4  C   UNL     1      -2.366  -4.947   2.486  0.00  0.00    +0.259 C 
ATOM      5  O   UNL     1      -2.724  -5.522   3.492  0.00  0.00    -0.272 OA
ATOM      6  N   UNL     1      -3.148  -4.241   1.609  0.00  0.00    -0.207 N 
ATOM      7  C   UNL     1      -2.506  -3.954   0.424  0.00  0.00    +0.235 C 
ATOM      8  O   UNL     1      -2.842  -3.157  -0.425  0.00  0.00    -0.274 OA
ATOM      9  O   UNL     1       0.198  -5.473   2.038  0.00  0.00    -0.257 OA
ATOM     10  N   UNL     1       0.996  -4.794   1.017  0.00  0.00    -0.244 N 
ENDROOT
BRANCH   6  11
ATOM     11  C   UNL     1      -4.470  -3.861   1.881  0.00  0.00    +0.050 A 
ATOM     12  C   UNL     1      -5.519  -4.705   1.545  0.00  0.00    -0.028 A 
ATOM     13  C   UNL     1      -6.820  -4.327   1.814  0.00  0.00    +0.008 A 
ATOM     14  C   UNL     1      -7.078  -3.110   2.417  0.00  0.00    -0.050 A 
ATOM     15  C   UNL     1      -6.034  -2.267   2.753  0.00  0.00    +0.008 A 
ATOM     16  C   UNL     1      -4.731  -2.642   2.492  0.00  0.00    -0.028 A 
ATOM     17  C   UNL     1      -3.594  -1.726   2.864  0.00  0.00    +0.046 C 
ATOM     18  C   UNL     1      -8.499  -2.701   2.709  0.00  0.00    +0.044 C 
ATOM     19  C   UNL     1      -5.240  -6.031   0.887  0.00  0.00    +0.046 C 
ENDBRANCH   6  11
BRANCH   1  24
ATOM     20  C   UNL     1      -0.018   1.503   0.011  0.00  0.00    +0.044 C 
ATOM     21  C   UNL     1       0.002  -0.004   0.003  0.00  0.00    -0.050 A 
ATOM     22  C   UNL     1      -0.221  -0.692  -1.176  0.00  0.00    +0.004 A 
ATOM     23  C   UNL     1      -0.203  -2.074  -1.183  0.00  0.00    +0.006 A 
ATOM     24  C   UNL     1       0.040  -2.768  -0.013  0.00  0.00    -0.022 A 
ATOM     25  C   UNL     1       0.264  -2.081   1.165  0.00  0.00    +0.006 A 
ATOM     26  C   UNL     1       0.250  -0.699   1.172  0.00  0.00    +0.004 A 
ENDBRANCH   1  24
BRANCH  10  27
ATOM     27  C   UNL     1       2.386  -4.662   1.009  0.00  0.00    +0.065 A 
ATOM     28  C   UNL     1       3.015  -3.991  -0.033  0.00  0.00    +0.028 A 
ATOM     29  C   UNL     1       4.390  -3.861  -0.038  0.00  0.00    +0.002 A 
ATOM     30  C   UNL     1       5.141  -4.398   0.992  0.00  0.00    +0.000 A 
ATOM     31  C   UNL     1       4.518  -5.067   2.030  0.00  0.00    +0.002 A 
ATOM     32  C   UNL     1       3.143  -5.195   2.044  0.00  0.00    +0.028 A 
ENDBRANCH  10  27
TORSDOF 3
