REMARK  Name = ZINC08583590
REMARK  10 active torsions:
REMARK  status: ('A' for Active; 'I' for Inactive)
REMARK    1  A    between atoms: C_1  and  C_2
REMARK    2  A    between atoms: C_2  and  C_3
REMARK    3  A    between atoms: C_3  and  C_4
REMARK    4  A    between atoms: C_4  and  N_5
REMARK    5  A    between atoms: C_6  and  C_8
REMARK    6  A    between atoms: C_8  and  S_9
REMARK    7  A    between atoms: S_9  and  C_10
REMARK    8  A    between atoms: C_14  and  C_18
REMARK    9  A    between atoms: N_21  and  C_22
REMARK   10  A    between atoms: C_26  and  C_28
REMARK                            x       y       z     vdW  Elec       q    Type
REMARK                         _______ _______ _______ _____ _____    ______ ____
ROOT
ATOM      1  C   UNL     1       3.670  -6.792   4.876  0.00  0.00    +0.177 A 
ATOM      2  N   UNL     1       4.073  -5.649   5.386  0.00  0.00    -0.201 NA
ATOM      3  C   UNL     1       4.318  -5.578   6.727  0.00  0.00    +0.187 A 
ATOM      4  C   UNL     1       4.323  -6.823   7.534  0.00  0.00    +0.082 A 
ATOM      5  C   UNL     1       4.596  -6.469   8.812  0.00  0.00    +0.046 A 
ATOM      6  N   UNL     1       4.750  -5.129   8.839  0.00  0.00    -0.279 N 
ATOM      7  N   UNL     1       4.573  -4.605   7.548  0.00  0.00    -0.153 NA
ATOM      8  H   UNL     1       4.952  -4.607   9.631  0.00  0.00    +0.189 HD
ATOM      9  C   UNL     1       4.708  -7.402   9.990  0.00  0.00    +0.066 C 
ATOM     10  C   UNL     1       4.047  -8.105   6.851  0.00  0.00    +0.124 A 
ATOM     11  N   UNL     1       4.352  -9.274   7.349  0.00  0.00    -0.384 N 
ATOM     12  N   UNL     1       3.417  -7.926   5.609  0.00  0.00    -0.275 N 
ATOM     13  H   UNL     1       4.841  -9.333   8.185  0.00  0.00    +0.157 HD
ATOM     14  H   UNL     1       4.090 -10.084   6.883  0.00  0.00    +0.157 HD
ENDROOT
BRANCH  12  15
ATOM     15  C   UNL     1       2.538  -8.899   5.117  0.00  0.00    +0.051 A 
ATOM     16  C   UNL     1       1.177  -8.800   5.372  0.00  0.00    +0.026 A 
ATOM     17  C   UNL     1       0.313  -9.761   4.886  0.00  0.00    +0.002 A 
ATOM     18  C   UNL     1       0.802 -10.822   4.145  0.00  0.00    +0.003 A 
ATOM     19  C   UNL     1       2.158 -10.923   3.889  0.00  0.00    -0.048 A 
ATOM     20  C   UNL     1       3.026  -9.961   4.368  0.00  0.00    +0.029 A 
ATOM     21  C   UNL     1       2.687 -12.081   3.082  0.00  0.00    +0.044 C 
ENDBRANCH  12  15
BRANCH   1  22
ATOM     22  S   UNL     1       3.430  -6.873   3.132  0.00  0.00    -0.078 S 
BRANCH  22  23
ATOM     23  C   UNL     1       3.862  -5.209   2.552  0.00  0.00    +0.173 C 
BRANCH  23  25
ATOM     24  N   UNL     1       3.965  -3.993   0.401  0.00  0.00    -0.315 N 
ATOM     25  C   UNL     1       3.698  -5.141   1.056  0.00  0.00    +0.223 C 
ATOM     26  O   UNL     1       3.326  -6.118   0.441  0.00  0.00    -0.275 OA
ATOM     27  H   UNL     1       4.262  -3.212   0.892  0.00  0.00    +0.149 HD
BRANCH  24  28
ATOM     28  C   UNL     1       3.805  -3.926  -1.054  0.00  0.00    +0.104 C 
BRANCH  28  29
ATOM     29  C   UNL     1       4.170  -2.523  -1.543  0.00  0.00    +0.018 C 
BRANCH  29  31
ATOM     30  C   UNL     1       4.368  -1.050  -3.551  0.00  0.00    +0.004 C 
ATOM     31  C   UNL     1       4.003  -2.453  -3.062  0.00  0.00    -0.002 C 
ENDBRANCH  29  31
ENDBRANCH  28  29
ENDBRANCH  24  28
ENDBRANCH  23  25
ENDBRANCH  22  23
ENDBRANCH   1  22
TORSDOF 7
