REMARK  Name = ZINC39686333
REMARK  9 active torsions:
REMARK  status: ('A' for Active; 'I' for Inactive)
REMARK    1  A    between atoms: C_1  and  C_2
REMARK    2  A    between atoms: C_3  and  C_8
REMARK    3  A    between atoms: C_4  and  C_7
REMARK    4  A    between atoms: C_12  and  C_21
REMARK    5  A    between atoms: N_23  and  C_24
REMARK    6  A    between atoms: C_30  and  C_32
REMARK    7  A    between atoms: C_32  and  C_33
REMARK    8  A    between atoms: C_33  and  C_34
REMARK    9  A    between atoms: C_33  and  C_35
REMARK                            x       y       z     vdW  Elec       q    Type
REMARK                         _______ _______ _______ _____ _____    ______ ____
ROOT
ATOM      1  C   UNL     1      -0.010  -0.437  -2.578  0.00  0.00    +0.252 C 
ATOM      2  O   UNL     1       1.040  -0.244  -3.161  0.00  0.00    -0.270 OA
ATOM      3  N   UNL     1      -1.181  -0.251  -3.219  0.00  0.00    -0.296 N 
ATOM      4  C   UNL     1      -2.550  -0.427  -2.680  0.00  0.00    +0.121 C 
ATOM      5  C   UNL     1      -3.361   0.741  -3.283  0.00  0.00    +0.100 C 
ATOM      6  C   UNL     1      -2.596   1.132  -4.559  0.00  0.00    -0.004 C 
ATOM      7  C   UNL     1      -1.390   0.183  -4.621  0.00  0.00    +0.115 C 
ATOM      8  C   UNL     1      -2.118   2.578  -4.466  0.00  0.00    -0.010 C 
ATOM      9  C   UNL     1      -1.410   2.961  -5.769  0.00  0.00    -0.082 C 
ATOM     10  N   UNL     1      -2.337   2.802  -6.896  0.00  0.00    +0.379 N 
ATOM     11  C   UNL     1      -2.719   1.392  -7.035  0.00  0.00    -0.082 C 
ATOM     12  C   UNL     1      -3.482   0.942  -5.786  0.00  0.00    -0.010 C 
ATOM     13  H   UNL     1      -3.162   3.358  -6.732  0.00  0.00    -0.086 HD
ATOM     14  H   UNL     1      -1.888   3.112  -7.745  0.00  0.00    -0.086 HD
ENDROOT
BRANCH   1  17
ATOM     15  C   UNL     1      -0.026   1.494   0.020  0.00  0.00    +0.070 C 
ATOM     16  C   UNL     1      -0.009  -0.013   0.012  0.00  0.00    +0.093 A 
ATOM     17  C   UNL     1      -0.002  -0.875  -1.171  0.00  0.00    +0.101 A 
ATOM     18  C   UNL     1       0.014  -2.164  -0.719  0.00  0.00    +0.147 A 
ATOM     19  O   UNL     1       0.017  -2.135   0.616  0.00  0.00    -0.359 OA
ATOM     20  N   UNL     1       0.007  -0.791   1.054  0.00  0.00    -0.083 NA
ATOM     21  C   UNL     1       0.027  -3.403  -1.578  0.00  0.00    +0.090 C 
ENDBRANCH   1  17
BRANCH   5  22
ATOM     22  C   UNL     1      -3.407   1.900  -2.321  0.00  0.00    +0.218 C 
ATOM     23  O   UNL     1      -2.531   2.037  -1.494  0.00  0.00    -0.275 OA
ATOM     24  N   UNL     1      -4.423   2.784  -2.379  0.00  0.00    -0.312 N 
ATOM     25  H   UNL     1      -5.124   2.674  -3.041  0.00  0.00    +0.149 HD
BRANCH  24  26
ATOM     26  C   UNL     1      -4.468   3.910  -1.444  0.00  0.00    +0.076 C 
ATOM     27  C   UNL     1      -5.126   3.461  -0.137  0.00  0.00    +0.041 C 
ATOM     28  C   UNL     1      -5.141   4.632   0.851  0.00  0.00    +0.109 C 
ATOM     29  N   UNL     1      -5.793   5.782   0.211  0.00  0.00    -0.301 N 
ATOM     30  C   UNL     1      -5.296   6.241  -1.093  0.00  0.00    +0.109 C 
ATOM     31  C   UNL     1      -5.280   5.052  -2.059  0.00  0.00    +0.041 C 
ATOM     32  C   UNL     1      -6.827   6.406   0.810  0.00  0.00    +0.216 C 
ATOM     33  O   UNL     1      -7.228   6.018   1.887  0.00  0.00    -0.276 OA
BRANCH  32  34
ATOM     34  C   UNL     1      -7.486   7.585   0.141  0.00  0.00    +0.099 C 
BRANCH  34  35
ATOM     35  C   UNL     1      -8.623   8.103   1.024  0.00  0.00    -0.008 C 
ATOM     36  C   UNL     1      -8.045   8.649   2.331  0.00  0.00    +0.008 C 
ATOM     37  C   UNL     1      -9.370   9.218   0.291  0.00  0.00    +0.008 C 
ENDBRANCH  34  35
ENDBRANCH  32  34
ENDBRANCH  24  26
ENDBRANCH   5  22
TORSDOF 5
