REMARK  Name = ZINC52634538
REMARK  9 active torsions:
REMARK  status: ('A' for Active; 'I' for Inactive)
REMARK    1  A    between atoms: C_4  and  C_7
REMARK    2  A    between atoms: C_7  and  O_8
REMARK    3  A    between atoms: O_8  and  C_9
REMARK    4  A    between atoms: N_11  and  C_12
REMARK    5  A    between atoms: C_12  and  C_14
REMARK    6  A    between atoms: C_12  and  C_24
REMARK    7  A    between atoms: C_14  and  C_15
REMARK    8  A    between atoms: N_26  and  C_27
REMARK    9  A    between atoms: C_27  and  C_28
REMARK                            x       y       z     vdW  Elec       q    Type
REMARK                         _______ _______ _______ _____ _____    ______ ____
ROOT
ATOM      1  C   UNL     1       6.935  -2.559   2.784  0.00  0.00    +0.166 C 
ENDROOT
BRANCH   1   4
ATOM      2  C   UNL     1       5.253  -1.862   1.164  0.00  0.00    +0.401 C 
ATOM      3  O   UNL     1       5.983  -2.262   0.279  0.00  0.00    -0.226 OA
ATOM      4  N   UNL     1       5.637  -1.965   2.452  0.00  0.00    -0.270 N 
ATOM      5  H   UNL     1       5.055  -1.646   3.159  0.00  0.00    +0.153 HD
BRANCH   2   6
ATOM      6  O   UNL     1       4.061  -1.317   0.858  0.00  0.00    -0.446 OA
BRANCH   6   7
ATOM      7  C   UNL     1       3.719  -1.240  -0.527  0.00  0.00    +0.269 C 
BRANCH   7  11
ATOM      8  C   UNL     1      -0.133   0.558  -0.946  0.00  0.00    +0.000 A 
ATOM      9  C   UNL     1       1.001   1.348  -0.944  0.00  0.00    +0.000 A 
ATOM     10  C   UNL     1       2.248   0.766  -0.808  0.00  0.00    +0.007 A 
ATOM     11  C   UNL     1       2.360  -0.605  -0.674  0.00  0.00    -0.010 A 
ATOM     12  C   UNL     1       1.225  -1.395  -0.675  0.00  0.00    +0.007 A 
ATOM     13  C   UNL     1      -0.021  -0.813  -0.813  0.00  0.00    +0.000 A 
ENDBRANCH   7  11
ENDBRANCH   6   7
ENDBRANCH   2   6
ENDBRANCH   1   4
BRANCH   1  14
ATOM     14  C   UNL     1       7.441  -1.969   4.075  0.00  0.00    +0.234 C 
ATOM     15  O   UNL     1       6.783  -1.135   4.660  0.00  0.00    -0.274 OA
ATOM     16  N   UNL     1       8.625  -2.369   4.580  0.00  0.00    -0.310 N 
ATOM     17  H   UNL     1       9.151  -3.036   4.112  0.00  0.00    +0.149 HD
BRANCH  16  18
ATOM     18  C   UNL     1       9.117  -1.796   5.836  0.00  0.00    +0.151 C 
BRANCH  18  19
ATOM     19  C   UNL     1      10.472  -2.416   6.183  0.00  0.00    +0.228 C 
ATOM     20  C   UNL     1      11.004  -1.868   7.529  0.00  0.00    +0.115 C 
ATOM     21  C   UNL     1      12.493  -1.742   7.265  0.00  0.00    +0.126 C 
ATOM     22  N   UNL     1      12.688  -1.812   6.005  0.00  0.00    -0.082 NA
ATOM     23  O   UNL     1      11.493  -1.974   5.265  0.00  0.00    -0.388 OA
ATOM     24 BR   UNL     1      13.833  -1.518   8.580  0.00  0.00    -0.030 Br
ENDBRANCH  18  19
ENDBRANCH  16  18
ENDBRANCH   1  14
BRANCH   1  25
ATOM     25  C   UNL     1       6.777  -4.072   2.942  0.00  0.00    +0.065 C 
BRANCH  25  26
ATOM     26  C   UNL     1       5.772  -4.363   4.026  0.00  0.00    -0.038 C 
ATOM     27  C   UNL     1       4.450  -4.600   3.868  0.00  0.00    +0.018 A 
ATOM     28  C   UNL     1       3.580  -4.656   2.686  0.00  0.00    +0.013 A 
ATOM     29  C   UNL     1       2.263  -4.924   2.886  0.00  0.00    +0.020 A 
ATOM     30  C   UNL     1       1.767  -5.137   4.176  0.00  0.00    +0.113 A 
ATOM     31  N   UNL     1       2.509  -5.094   5.248  0.00  0.00    -0.238 NA
ATOM     32  C   UNL     1       3.834  -4.838   5.193  0.00  0.00    +0.134 A 
ATOM     33  N   UNL     1       4.742  -4.752   6.134  0.00  0.00    -0.365 N 
ATOM     34  C   UNL     1       6.037  -4.456   5.512  0.00  0.00    +0.146 C 
ATOM     35  H   UNL     1       4.585  -4.869   7.084  0.00  0.00    +0.161 HD
ENDBRANCH  25  26
ENDBRANCH   1  25
TORSDOF 9
