REMARK  Name = ZINC24804770
REMARK  13 active torsions:
REMARK  status: ('A' for Active; 'I' for Inactive)
REMARK    1  A    between atoms: C_1  and  C_2
REMARK    2  A    between atoms: C_2  and  C_4
REMARK    3  A    between atoms: C_2  and  N_11
REMARK    4  A    between atoms: C_12  and  C_14
REMARK    5  A    between atoms: C_14  and  O_15
REMARK    6  A    between atoms: O_15  and  C_16
REMARK    7  A    between atoms: C_16  and  C_18
REMARK    8  A    between atoms: C_21  and  S_24
REMARK    9  A    between atoms: S_24  and  N_27
REMARK   10  A    between atoms: N_27  and  C_28
REMARK   11  A    between atoms: C_28  and  C_29
REMARK   12  A    between atoms: C_28  and  C_30
REMARK   13  A    between atoms: C_28  and  C_31
REMARK                            x       y       z     vdW  Elec       q    Type
REMARK                         _______ _______ _______ _____ _____    ______ ____
ROOT
ATOM      1  C   UNL     1      -1.444   1.725   0.593  0.00  0.00    +0.340 C 
ATOM      2  O   UNL     1      -0.313   1.675   1.033  0.00  0.00    -0.245 OA
ENDROOT
BRANCH   1   3
ATOM      3  C   UNL     1      -2.265   0.499   0.526  0.00  0.00    +0.059 A 
ATOM      4  C   UNL     1      -3.568   0.555   0.025  0.00  0.00    +0.017 A 
ATOM      5  C   UNL     1      -4.327  -0.595  -0.040  0.00  0.00    +0.029 A 
ATOM      6  C   UNL     1      -3.806  -1.799   0.399  0.00  0.00    +0.105 A 
ATOM      7  C   UNL     1      -2.518  -1.860   0.902  0.00  0.00    +0.029 A 
ATOM      8  C   UNL     1      -1.745  -0.719   0.967  0.00  0.00    +0.017 A 
BRANCH   6   9
ATOM      9  S   UNL     1      -4.785  -3.261   0.318  0.00  0.00    +0.059 S 
ATOM     10  O   UNL     1      -5.892  -2.962  -0.521  0.00  0.00    -0.153 OA
ATOM     11  O   UNL     1      -3.893  -4.334   0.050  0.00  0.00    -0.153 OA
BRANCH   9  12
ATOM     12  N   UNL     1      -5.398  -3.524   1.834  0.00  0.00    -0.185 NA
ATOM     13  H   UNL     1      -4.946  -4.299   2.470  0.00  0.00    +0.149 HD
BRANCH  12  14
ATOM     14  C   UNL     1      -6.380  -2.594   2.399  0.00  0.00    +0.032 C 
ATOM     15  C   UNL     1      -7.677  -2.669   1.591  0.00  0.00    +0.029 C 
ATOM     16  C   UNL     1      -6.663  -2.974   3.854  0.00  0.00    +0.029 C 
ATOM     17  C   UNL     1      -5.824  -1.170   2.342  0.00  0.00    +0.029 C 
ENDBRANCH  12  14
ENDBRANCH   9  12
ENDBRANCH   6   9
ENDBRANCH   1   3
BRANCH   1  18
ATOM     18  O   UNL     1      -1.949   2.899   0.166  0.00  0.00    -0.452 OA
BRANCH  18  19
ATOM     19  C   UNL     1      -1.085   4.062   0.262  0.00  0.00    +0.328 C 
BRANCH  19  21
ATOM     20  N   UNL     1      -1.205   6.475  -0.267  0.00  0.00    -0.306 N 
ATOM     21  C   UNL     1      -1.815   5.274  -0.258  0.00  0.00    +0.251 C 
ATOM     22  O   UNL     1      -2.951   5.167  -0.669  0.00  0.00    -0.272 OA
ATOM     23  H   UNL     1      -0.174   6.572   0.106  0.00  0.00    +0.149 HD
BRANCH  20  25
ATOM     24  C   UNL     1      -1.759   7.728  -2.293  0.00  0.00    +0.033 C 
ATOM     25  C   UNL     1      -1.914   7.653  -0.772  0.00  0.00    +0.100 C 
BRANCH  25  26
ATOM     26  C   UNL     1      -1.334   8.896  -0.147  0.00  0.00    -0.027 A 
ATOM     27  C   UNL     1       0.032   9.004   0.037  0.00  0.00    +0.006 A 
ATOM     28  C   UNL     1       0.564  10.145   0.607  0.00  0.00    +0.015 A 
ATOM     29  C   UNL     1      -0.271  11.175   1.002  0.00  0.00    +0.018 A 
ATOM     30  C   UNL     1      -1.637  11.064   0.822  0.00  0.00    +0.015 A 
ATOM     31  C   UNL     1      -2.169   9.925   0.248  0.00  0.00    +0.006 A 
ATOM     32 BR   UNL     1       0.457  12.733   1.788  0.00  0.00    -0.050 Br
ENDBRANCH  25  26
ENDBRANCH  20  25
ENDBRANCH  19  21
ENDBRANCH  18  19
ENDBRANCH   1  18
TORSDOF 9
