REMARK  Name = ZINC48685047
REMARK  7 active torsions:
REMARK  status: ('A' for Active; 'I' for Inactive)
REMARK    1  A    between atoms: C_1  and  C_2
REMARK    2  A    between atoms: C_5  and  N_9
REMARK    3  A    between atoms: C_6  and  C_8
REMARK    4  A    between atoms: C_10  and  C_12
REMARK    5  A    between atoms: N_14  and  C_15
REMARK    6  A    between atoms: C_20  and  C_25
REMARK    7  A    between atoms: C_22  and  C_24
REMARK                            x       y       z     vdW  Elec       q    Type
REMARK                         _______ _______ _______ _____ _____    ______ ____
ROOT
ATOM      1  N   UNL     1       0.059  -4.168  -0.021  0.00  0.00    -0.278 N 
ATOM      2  C   UNL     1      -0.040  -4.837  -1.187  0.00  0.00    +0.303 C 
ATOM      3  O   UNL     1      -0.054  -4.228  -2.237  0.00  0.00    -0.265 OA
ATOM      4  H   UNL     1       0.135  -4.657   0.814  0.00  0.00    +0.155 HD
ENDROOT
BRANCH   1   9
ATOM      5  C   UNL     1       0.024   1.503   0.005  0.00  0.00    +0.044 C 
ATOM      6  C   UNL     1       0.033  -0.004  -0.002  0.00  0.00    -0.050 A 
ATOM      7  C   UNL     1       0.631  -0.685  -1.046  0.00  0.00    +0.005 A 
ATOM      8  C   UNL     1       0.642  -2.066  -1.056  0.00  0.00    +0.024 A 
ATOM      9  C   UNL     1       0.051  -2.771  -0.014  0.00  0.00    +0.037 A 
ATOM     10  C   UNL     1      -0.549  -2.083   1.033  0.00  0.00    -0.029 A 
ATOM     11  C   UNL     1      -0.551  -0.702   1.039  0.00  0.00    +0.008 A 
ATOM     12  C   UNL     1      -1.191  -2.843   2.165  0.00  0.00    +0.045 C 
ENDBRANCH   1   9
BRANCH   2  13
ATOM     13  C   UNL     1      -0.133  -6.327  -1.187  0.00  0.00    +0.300 C 
ATOM     14  O   UNL     1      -0.119  -6.936  -0.137  0.00  0.00    -0.265 OA
ATOM     15  N   UNL     1      -0.232  -6.996  -2.353  0.00  0.00    -0.304 N 
ATOM     16  H   UNL     1      -0.243  -6.510  -3.192  0.00  0.00    +0.149 HD
BRANCH  15  17
ATOM     17  C   UNL     1      -0.323  -8.458  -2.353  0.00  0.00    +0.076 C 
ATOM     18  C   UNL     1      -1.781  -8.879  -2.157  0.00  0.00    +0.022 C 
ATOM     19  C   UNL     1      -1.876 -10.406  -2.158  0.00  0.00    +0.002 C 
ATOM     20  C   UNL     1      -1.364 -10.948  -3.493  0.00  0.00    +0.003 C 
ATOM     21  C   UNL     1       0.094 -10.528  -3.689  0.00  0.00    -0.009 C 
ATOM     22  C   UNL     1       0.189  -9.001  -3.689  0.00  0.00    +0.009 C 
ATOM     23  C   UNL     1       1.647  -8.581  -3.885  0.00  0.00    +0.009 C 
ATOM     24  C   UNL     1       0.606 -11.071  -5.025  0.00  0.00    +0.008 C 
ENDBRANCH  15  17
ENDBRANCH   2  13
TORSDOF 3
