REMARK  Name = ZINC37076719
REMARK  4 active torsions:
REMARK  status: ('A' for Active; 'I' for Inactive)
REMARK    1  A    between atoms: C_3  and  C_8
REMARK    2  A    between atoms: C_8  and  N_9
REMARK    3  A    between atoms: N_9  and  C_10
REMARK    4  A    between atoms: C_12  and  N_18
REMARK                            x       y       z     vdW  Elec       q    Type
REMARK                         _______ _______ _______ _____ _____    ______ ____
ROOT
ATOM      1  C   UNL     1       5.290   3.130   1.604  0.00  0.00    +0.065 A 
ATOM      2  C   UNL     1       6.051   3.603   0.545  0.00  0.00    +0.061 A 
ATOM      3  C   UNL     1       7.220   4.298   0.791  0.00  0.00    +0.163 A 
ATOM      4  C   UNL     1       7.632   4.523   2.094  0.00  0.00    +0.156 A 
ATOM      5  C   UNL     1       6.875   4.052   3.153  0.00  0.00    +0.081 A 
ATOM      6  C   UNL     1       5.702   3.361   2.912  0.00  0.00    +0.147 A 
ATOM      7  F   UNL     1       4.960   2.906   3.945  0.00  0.00    -0.203 F 
ATOM      8  F   UNL     1       8.775   5.202   2.332  0.00  0.00    -0.203 F 
ENDROOT
BRANCH   3   9
ATOM      9  N   UNL     1       8.033   4.802  -0.339  0.00  0.00    +0.059 N 
ATOM     10  O   UNL     1       7.674   4.606  -1.476  0.00  0.00    -0.126 OA
ATOM     11  O   UNL     1       9.055   5.410  -0.124  0.00  0.00    -0.126 OA
ENDBRANCH   3   9
BRANCH   1  12
ATOM     12  N   UNL     1       4.105   2.426   1.356  0.00  0.00    -0.337 N 
ATOM     13  H   UNL     1       3.571   2.099   2.097  0.00  0.00    +0.146 HD
BRANCH  12  14
ATOM     14  C   UNL     1       3.672   2.183  -0.022  0.00  0.00    +0.137 C 
BRANCH  14  17
ATOM     15  C   UNL     1      -0.017   1.378   0.010  0.00  0.00    +0.001 A 
ATOM     16  C   UNL     1       1.171   2.086   0.002  0.00  0.00    +0.005 A 
ATOM     17  C   UNL     1       2.378   1.411  -0.013  0.00  0.00    -0.029 A 
ATOM     18  C   UNL     1       2.397   0.029  -0.022  0.00  0.00    +0.020 A 
ATOM     19  C   UNL     1       1.210  -0.679  -0.014  0.00  0.00    +0.018 A 
ATOM     20  C   UNL     1       0.002  -0.004   0.002  0.00  0.00    +0.015 A 
ATOM     21 BR   UNL     1       1.236  -2.570  -0.025  0.00  0.00    -0.050 Br
ENDBRANCH  14  17
ENDBRANCH  12  14
ENDBRANCH   1  12
TORSDOF 4
