REMARK  Name = ZINC19646088
REMARK  11 active torsions:
REMARK  status: ('A' for Active; 'I' for Inactive)
REMARK    1  A    between atoms: C_1  and  C_2
REMARK    2  A    between atoms: C_2  and  O_3
REMARK    3  A    between atoms: O_3  and  C_4
REMARK    4  A    between atoms: C_4  and  C_6
REMARK    5  A    between atoms: C_7  and  C_35
REMARK    6  A    between atoms: C_11  and  C_13
REMARK    7  A    between atoms: C_15  and  O_21
REMARK    8  A    between atoms: C_18  and  O_19
REMARK    9  A    between atoms: O_19  and  C_20
REMARK   10  A    between atoms: O_21  and  C_22
REMARK   11  A    between atoms: C_26  and  C_29
REMARK                            x       y       z     vdW  Elec       q    Type
REMARK                         _______ _______ _______ _____ _____    ______ ____
ROOT
ATOM      1  C   UNL     1      -1.222   3.533  -0.384  0.00  0.00    +0.065 C 
ATOM      2  C   UNL     1      -0.030   4.154  -0.374  0.00  0.00    +0.016 C 
ATOM      3  N   UNL     1       1.097   3.483   0.009  0.00  0.00    -0.321 N 
ATOM      4  C   UNL     1       1.130   2.114   0.003  0.00  0.00    +0.016 C 
ATOM      5  C   UNL     1      -0.017   1.402   0.010  0.00  0.00    +0.024 C 
ATOM      6  C   UNL     1      -1.355   2.097   0.033  0.00  0.00    +0.096 C 
ATOM      7  C   UNL     1       0.002  -0.004   0.002  0.00  0.00    +0.162 C 
ATOM      8  O   UNL     1      -1.048  -0.615  -0.011  0.00  0.00    -0.292 OA
ATOM      9  C   UNL     1       1.300  -0.765   0.009  0.00  0.00    +0.088 C 
ATOM     10  C   UNL     1       2.370   0.081   0.706  0.00  0.00    +0.032 C 
ATOM     11  C   UNL     1       2.472   1.426  -0.016  0.00  0.00    +0.059 C 
ATOM     12  C   UNL     1       0.064   5.601  -0.787  0.00  0.00    +0.061 C 
ATOM     13  H   UNL     1       1.990   4.042   0.326  0.00  0.00    +0.152 HD
ENDROOT
BRANCH   6  14
ATOM     14  C   UNL     1      -1.922   2.033   1.427  0.00  0.00    +0.010 A 
ATOM     15  C   UNL     1      -1.226   2.593   2.482  0.00  0.00    +0.053 A 
ATOM     16  C   UNL     1      -1.751   2.540   3.764  0.00  0.00    +0.121 A 
ATOM     17  C   UNL     1      -2.968   1.914   3.991  0.00  0.00    +0.049 A 
ATOM     18  C   UNL     1      -3.660   1.349   2.938  0.00  0.00    +0.049 A 
ATOM     19  C   UNL     1      -3.139   1.408   1.654  0.00  0.00    +0.124 A 
BRANCH  19  20
ATOM     20  O   UNL     1      -3.821   0.852   0.617  0.00  0.00    -0.495 OA
ATOM     21  C   UNL     1      -5.067   0.224   0.923  0.00  0.00    +0.277 C 
ENDBRANCH  19  20
BRANCH  16  22
ATOM     22  O   UNL     1      -1.069   3.096   4.801  0.00  0.00    -0.495 OA
ATOM     23  C   UNL     1      -1.665   2.999   6.096  0.00  0.00    +0.277 C 
ENDBRANCH  16  22
ENDBRANCH   6  14
BRANCH  10  24
ATOM     24  C   UNL     1       3.698  -0.630   0.643  0.00  0.00    -0.044 A 
ATOM     25  C   UNL     1       4.259  -0.939  -0.582  0.00  0.00    +0.004 A 
ATOM     26  C   UNL     1       5.478  -1.587  -0.640  0.00  0.00    +0.000 A 
ATOM     27  C   UNL     1       6.133  -1.934   0.527  0.00  0.00    +0.000 A 
ATOM     28  C   UNL     1       5.569  -1.629   1.752  0.00  0.00    +0.000 A 
ATOM     29  C   UNL     1       4.352  -0.978   1.810  0.00  0.00    +0.004 A 
ENDBRANCH  10  24
BRANCH   1  30
ATOM     30  C   UNL     1      -2.373   4.247  -0.792  0.00  0.00    +0.338 C 
ATOM     31  O   UNL     1      -2.278   5.412  -1.130  0.00  0.00    -0.245 OA
BRANCH  30  32
ATOM     32  O   UNL     1      -3.576   3.636  -0.807  0.00  0.00    -0.462 OA
BRANCH  32  34
ATOM     33  C   UNL     1      -5.962   3.561  -1.182  0.00  0.00    +0.048 C 
ATOM     34  C   UNL     1      -4.695   4.417  -1.230  0.00  0.00    +0.229 C 
ENDBRANCH  32  34
ENDBRANCH  30  32
ENDBRANCH   1  30
TORSDOF 7
