REMARK  Name = ZINC00803137
REMARK  6 active torsions:
REMARK  status: ('A' for Active; 'I' for Inactive)
REMARK    1  A    between atoms: C_1  and  O_2
REMARK    2  A    between atoms: O_2  and  C_3
REMARK    3  A    between atoms: C_6  and  C_11
REMARK    4  A    between atoms: C_8  and  O_9
REMARK    5  A    between atoms: O_9  and  C_10
REMARK    6  A    between atoms: C_14  and  C_23
REMARK                            x       y       z     vdW  Elec       q    Type
REMARK                         _______ _______ _______ _____ _____    ______ ____
ROOT
ATOM      1  C   UNL     1       2.590  -2.548   4.315  0.00  0.00    +0.143 C 
ATOM      2  C   UNL     1       1.905  -2.152   5.630  0.00  0.00    +0.058 C 
ATOM      3  C   UNL     1       2.761  -2.609   6.817  0.00  0.00    +0.106 C 
ATOM      4  N   UNL     1       4.059  -1.910   6.758  0.00  0.00    -0.307 N 
ATOM      5  C   UNL     1       4.656  -1.829   5.506  0.00  0.00    +0.216 A 
ATOM      6  N   UNL     1       3.989  -2.126   4.364  0.00  0.00    -0.224 N 
ATOM      7  N   UNL     1       4.890  -1.942   3.314  0.00  0.00    -0.132 NA
ATOM      8  C   UNL     1       6.025  -1.555   3.852  0.00  0.00    +0.233 A 
ATOM      9  N   UNL     1       5.875  -1.484   5.188  0.00  0.00    -0.180 NA
ATOM     10  N   UNL     1       7.196  -1.261   3.150  0.00  0.00    -0.326 N 
ATOM     11  H   UNL     1       4.472  -1.529   7.548  0.00  0.00    +0.149 HD
ATOM     12  H   UNL     1       7.213  -1.336   2.183  0.00  0.00    +0.145 HD
ATOM     13  H   UNL     1       7.991  -0.982   3.630  0.00  0.00    +0.145 HD
ENDROOT
BRANCH   3  14
ATOM     14  C   UNL     1       2.058  -2.270   8.106  0.00  0.00    -0.026 A 
ATOM     15  C   UNL     1       2.111  -0.981   8.604  0.00  0.00    +0.007 A 
ATOM     16  C   UNL     1       1.468  -0.670   9.787  0.00  0.00    +0.022 A 
ATOM     17  C   UNL     1       0.770  -1.647  10.473  0.00  0.00    +0.059 A 
ATOM     18  C   UNL     1       0.717  -2.938   9.975  0.00  0.00    +0.060 A 
ATOM     19  C   UNL     1       1.357  -3.247   8.788  0.00  0.00    +0.027 A 
ATOM     20 CL   UNL     1      -0.157  -4.166  10.835  0.00  0.00    -0.082 Cl
ATOM     21 CL   UNL     1      -0.038  -1.257  11.960  0.00  0.00    -0.082 Cl
ENDBRANCH   3  14
BRANCH   1  25
ATOM     22  C   UNL     1       0.626  -0.619   1.042  0.00  0.00    +0.162 A 
ATOM     23  C   UNL     1       1.202   0.137   2.051  0.00  0.00    +0.050 A 
ATOM     24  C   UNL     1       1.836  -0.490   3.108  0.00  0.00    +0.009 A 
ATOM     25  C   UNL     1       1.897  -1.870   3.161  0.00  0.00    -0.019 A 
ATOM     26  C   UNL     1       1.325  -2.630   2.158  0.00  0.00    +0.055 A 
ATOM     27  C   UNL     1       0.683  -2.008   1.099  0.00  0.00    +0.162 A 
BRANCH  22  29
ATOM     28  C   UNL     1      -0.017   1.425   0.010  0.00  0.00    +0.277 C 
ATOM     29  O   UNL     1       0.002  -0.004   0.002  0.00  0.00    -0.491 OA
ENDBRANCH  22  29
BRANCH  27  30
ATOM     30  O   UNL     1       0.115  -2.754   0.114  0.00  0.00    -0.491 OA
ATOM     31  C   UNL     1       0.211  -4.174   0.238  0.00  0.00    +0.277 C 
ENDBRANCH  27  30
ENDBRANCH   1  25
TORSDOF 4
