REMARK  Name = ZINC04848822
REMARK  6 active torsions:
REMARK  status: ('A' for Active; 'I' for Inactive)
REMARK    1  A    between atoms: C_1  and  C_2
REMARK    2  A    between atoms: C_2  and  O_3
REMARK    3  A    between atoms: O_3  and  C_4
REMARK    4  A    between atoms: C_12  and  N_30
REMARK    5  A    between atoms: C_13  and  C_17
REMARK    6  A    between atoms: C_27  and  C_29
REMARK                            x       y       z     vdW  Elec       q    Type
REMARK                         _______ _______ _______ _____ _____    ______ ____
ROOT
ATOM      1  C   UNL     1       0.239  -2.753   0.509  0.00  0.00    +0.121 A 
ATOM      2  C   UNL     1       1.169  -3.788   0.647  0.00  0.00    +0.048 A 
ATOM      3  C   UNL     1       0.768  -5.087   0.698  0.00  0.00    +0.032 A 
ATOM      4  C   UNL     1      -0.600  -5.401   0.613  0.00  0.00    +0.073 A 
ATOM      5  C   UNL     1      -1.547  -4.352   0.473  0.00  0.00    +0.005 A 
ATOM      6  C   UNL     1      -1.097  -3.018   0.428  0.00  0.00    +0.055 A 
ATOM      7  C   UNL     1      -2.910  -4.654   0.386  0.00  0.00    +0.022 A 
ATOM      8  C   UNL     1      -3.314  -6.000   0.440  0.00  0.00    +0.030 A 
ATOM      9  C   UNL     1      -4.666  -6.540   0.370  0.00  0.00    +0.053 A 
ATOM     10  C   UNL     1      -4.831  -7.904   0.445  0.00  0.00    +0.098 A 
ATOM     11  S   UNL     1      -3.167  -8.517   0.612  0.00  0.00    -0.062 S 
ATOM     12  C   UNL     1      -2.287  -6.974   0.582  0.00  0.00    +0.111 A 
ATOM     13  N   UNL     1      -1.016  -6.669   0.661  0.00  0.00    -0.239 NA
ENDROOT
BRANCH  10  14
ATOM     14  C   UNL     1      -6.038  -8.644   0.399  0.00  0.00    +0.260 C 
ATOM     15  O   UNL     1      -7.100  -8.091   0.623  0.00  0.00    -0.269 OA
ATOM     16  N   UNL     1      -6.011  -9.960   0.108  0.00  0.00    -0.264 N 
ATOM     17  C   UNL     1      -7.138 -10.776  -0.015  0.00  0.00    +0.040 A 
ATOM     18  C   UNL     1      -8.489 -10.445   0.114  0.00  0.00    +0.024 A 
ATOM     19  C   UNL     1      -9.459 -11.409  -0.055  0.00  0.00    +0.002 A 
ATOM     20  C   UNL     1      -9.103 -12.711  -0.357  0.00  0.00    +0.000 A 
ATOM     21  C   UNL     1      -7.768 -13.045  -0.490  0.00  0.00    +0.005 A 
ATOM     22  C   UNL     1      -6.791 -12.082  -0.323  0.00  0.00    -0.024 A 
ATOM     23  C   UNL     1      -5.285 -12.172  -0.411  0.00  0.00    +0.059 C 
ATOM     24  C   UNL     1      -4.794 -10.745  -0.119  0.00  0.00    +0.083 C 
ATOM     25  C   UNL     1      -4.023 -10.193  -1.320  0.00  0.00    +0.029 C 
ENDBRANCH  10  14
BRANCH   9  26
ATOM     26  N   UNL     1      -5.760  -5.699   0.232  0.00  0.00    -0.356 N 
ATOM     27  H   UNL     1      -5.630  -4.739   0.180  0.00  0.00    +0.142 HD
ATOM     28  H   UNL     1      -6.655  -6.070   0.186  0.00  0.00    +0.142 HD
ENDBRANCH   9  26
BRANCH   1  29
ATOM     29  O   UNL     1       0.670  -1.465   0.461  0.00  0.00    -0.492 OA
BRANCH  29  31
ATOM     30  C   UNL     1       2.372   0.251   0.484  0.00  0.00    +0.048 C 
ATOM     31  C   UNL     1       2.080  -1.249   0.556  0.00  0.00    +0.225 C 
ENDBRANCH  29  31
ENDBRANCH   1  29
TORSDOF 4
