REMARK  Name = ZINC04788747
REMARK  5 active torsions:
REMARK  status: ('A' for Active; 'I' for Inactive)
REMARK    1  A    between atoms: C_1  and  O_2
REMARK    2  A    between atoms: O_2  and  C_3
REMARK    3  A    between atoms: C_8  and  O_9
REMARK    4  A    between atoms: O_9  and  C_10
REMARK    5  A    between atoms: C_11  and  C_16
REMARK                            x       y       z     vdW  Elec       q    Type
REMARK                         _______ _______ _______ _____ _____    ______ ____
ROOT
ATOM      1  C   UNL     1       1.186   2.059   0.002  0.00  0.00    +0.162 A 
ATOM      2  C   UNL     1       2.359   1.324  -0.008  0.00  0.00    +0.053 A 
ATOM      3  C   UNL     1       3.587   1.966  -0.022  0.00  0.00    -0.036 A 
ATOM      4  C   UNL     1       3.644   3.345  -0.020  0.00  0.00    -0.008 A 
ATOM      5  C   UNL     1       2.472   4.085  -0.002  0.00  0.00    +0.056 A 
ATOM      6  C   UNL     1       1.243   3.449   0.009  0.00  0.00    +0.162 A 
ATOM      7  C   UNL     1       4.961   4.077  -0.043  0.00  0.00    +0.179 C 
ATOM      8  O   UNL     1       6.025   3.194   0.310  0.00  0.00    -0.367 OA
ATOM      9  C   UNL     1       6.032   1.986  -0.459  0.00  0.00    +0.166 C 
ATOM     10  C   UNL     1       4.841   1.129  -0.028  0.00  0.00    +0.063 C 
ENDROOT
BRANCH   7  11
ATOM     11  C   UNL     1       4.914   5.220   0.939  0.00  0.00    -0.014 A 
ATOM     12  C   UNL     1       5.204   4.997   2.272  0.00  0.00    +0.007 A 
ATOM     13  C   UNL     1       5.166   6.045   3.172  0.00  0.00    +0.015 A 
ATOM     14  C   UNL     1       4.827   7.315   2.740  0.00  0.00    +0.018 A 
ATOM     15  C   UNL     1       4.531   7.536   1.407  0.00  0.00    +0.015 A 
ATOM     16  C   UNL     1       4.575   6.488   0.507  0.00  0.00    +0.007 A 
ATOM     17 BR   UNL     1       4.766   8.748   3.973  0.00  0.00    -0.050 Br
ENDBRANCH   7  11
BRANCH   1  19
ATOM     18  C   UNL     1       0.002  -0.004   0.002  0.00  0.00    +0.277 C 
ATOM     19  O   UNL     1      -0.017   1.425   0.010  0.00  0.00    -0.491 OA
ENDBRANCH   1  19
BRANCH   6  20
ATOM     20  O   UNL     1       0.097   4.180   0.026  0.00  0.00    -0.491 OA
ATOM     21  C   UNL     1       0.234   5.602   0.033  0.00  0.00    +0.277 C 
ENDBRANCH   6  20
TORSDOF 3
