REMARK  Name = ZINC58856857
REMARK  5 active torsions:
REMARK  status: ('A' for Active; 'I' for Inactive)
REMARK    1  A    between atoms: C_1  and  C_2
REMARK    2  A    between atoms: C_3  and  C_12
REMARK    3  A    between atoms: C_21  and  C_23
REMARK    4  A    between atoms: C_26  and  O_29
REMARK    5  A    between atoms: O_29  and  C_30
REMARK                            x       y       z     vdW  Elec       q    Type
REMARK                         _______ _______ _______ _____ _____    ______ ____
ROOT
ATOM      1  C   UNL     1      -0.061  -0.127  -2.433  0.00  0.00    +0.030 C 
ATOM      2  C   UNL     1      -0.901   0.910  -2.705  0.00  0.00    +0.081 A 
ATOM      3  C   UNL     1      -1.734   1.650  -1.824  0.00  0.00    +0.268 A 
ATOM      4  O   UNL     1      -1.760   1.386  -0.635  0.00  0.00    -0.266 OA
ATOM      5  N   UNL     1      -2.490   2.640  -2.312  0.00  0.00    -0.275 N 
ATOM      6  C   UNL     1      -2.417   2.907  -3.667  0.00  0.00    +0.178 A 
ATOM      7  N   UNL     1      -3.089   3.845  -4.260  0.00  0.00    -0.223 NA
ATOM      8  C   UNL     1      -3.950   4.687  -3.631  0.00  0.00    +0.076 C 
ATOM      9  C   UNL     1      -4.175   4.568  -2.310  0.00  0.00    -0.016 C 
ATOM     10  C   UNL     1      -3.424   3.507  -1.542  0.00  0.00    +0.151 C 
ATOM     11  C   UNL     1      -5.173   5.447  -1.612  0.00  0.00    +0.040 C 
ATOM     12  C   UNL     1      -5.162   6.856  -2.201  0.00  0.00    +0.040 C 
ATOM     13  C   UNL     1      -5.269   6.791  -3.702  0.00  0.00    -0.038 A 
ATOM     14  C   UNL     1      -4.667   5.740  -4.391  0.00  0.00    +0.004 A 
ATOM     15  C   UNL     1      -4.743   5.685  -5.779  0.00  0.00    +0.010 A 
ATOM     16  C   UNL     1      -5.427   6.669  -6.466  0.00  0.00    +0.001 A 
ATOM     17  C   UNL     1      -6.034   7.704  -5.777  0.00  0.00    +0.000 A 
ATOM     18  C   UNL     1      -5.955   7.765  -4.397  0.00  0.00    +0.004 A 
ATOM     19  S   UNL     1      -1.242   1.709  -4.266  0.00  0.00    -0.046 S 
ENDROOT
BRANCH   1  22
ATOM     20  C   UNL     1       2.426  -0.303  -0.572  0.00  0.00    +0.064 C 
ATOM     21  C   UNL     1       1.040  -0.805  -0.258  0.00  0.00    +0.021 A 
ATOM     22  C   UNL     1      -0.038  -0.716  -1.093  0.00  0.00    +0.004 A 
ATOM     23  C   UNL     1      -1.173  -1.330  -0.379  0.00  0.00    +0.007 A 
ATOM     24  C   UNL     1      -2.513  -1.541  -0.693  0.00  0.00    +0.010 A 
ATOM     25  C   UNL     1      -3.338  -2.162   0.219  0.00  0.00    +0.001 A 
ATOM     26  C   UNL     1      -2.839  -2.577   1.446  0.00  0.00    +0.002 A 
ATOM     27  C   UNL     1      -1.516  -2.374   1.770  0.00  0.00    +0.026 A 
ATOM     28  C   UNL     1      -0.666  -1.749   0.862  0.00  0.00    +0.047 A 
ATOM     29  N   UNL     1       0.673  -1.420   0.896  0.00  0.00    -0.358 N 
ATOM     30  H   UNL     1       1.269  -1.601   1.641  0.00  0.00    +0.166 HD
ENDBRANCH   1  22
BRANCH  10  31
ATOM     31  C   UNL     1      -4.437   2.616  -0.872  0.00  0.00    -0.020 A 
ATOM     32  C   UNL     1      -4.949   1.523  -1.547  0.00  0.00    +0.009 A 
ATOM     33  C   UNL     1      -5.878   0.704  -0.935  0.00  0.00    +0.046 A 
ATOM     34  C   UNL     1      -6.298   0.979   0.359  0.00  0.00    +0.120 A 
ATOM     35  C   UNL     1      -5.783   2.076   1.034  0.00  0.00    +0.046 A 
ATOM     36  C   UNL     1      -4.850   2.889   0.420  0.00  0.00    +0.009 A 
BRANCH  34  37
ATOM     37  O   UNL     1      -7.212   0.176   0.963  0.00  0.00    -0.495 OA
ATOM     38  C   UNL     1      -7.598   0.519   2.295  0.00  0.00    +0.277 C 
ENDBRANCH  34  37
ENDBRANCH  10  31
TORSDOF 3
