REMARK  Name = ZINC16043618
REMARK  6 active torsions:
REMARK  status: ('A' for Active; 'I' for Inactive)
REMARK    1  A    between atoms: C_3  and  N_11
REMARK    2  A    between atoms: C_4  and  N_8
REMARK    3  A    between atoms: C_12  and  C_14
REMARK    4  A    between atoms: C_14  and  N_15
REMARK    5  A    between atoms: N_18  and  S_21
REMARK    6  A    between atoms: S_21  and  C_24
REMARK                            x       y       z     vdW  Elec       q    Type
REMARK                         _______ _______ _______ _____ _____    ______ ____
ROOT
ATOM      1  N   UNL     1       4.248   5.615  -0.446  0.00  0.00    -0.291 NA
ATOM      2  C   UNL     1       3.623   6.121   0.784  0.00  0.00    +0.102 C 
ATOM      3  C   UNL     1       3.108   7.544   0.544  0.00  0.00    +0.125 C 
ATOM      4  N   UNL     1       4.218   8.361   0.028  0.00  0.00    -0.174 NA
ATOM      5  C   UNL     1       4.981   7.852  -1.121  0.00  0.00    +0.125 C 
ATOM      6  C   UNL     1       5.422   6.416  -0.815  0.00  0.00    +0.102 C 
ENDROOT
BRANCH   4   7
ATOM      7  S   UNL     1       4.596   9.816   0.723  0.00  0.00    +0.061 S 
ATOM      8  O   UNL     1       5.266  10.579  -0.272  0.00  0.00    -0.153 OA
ATOM      9  O   UNL     1       3.418  10.275   1.371  0.00  0.00    -0.153 OA
BRANCH   7  10
ATOM     10  C   UNL     1       5.776   9.496   1.992  0.00  0.00    +0.109 A 
ATOM     11  C   UNL     1       5.349   9.219   3.277  0.00  0.00    +0.032 A 
ATOM     12  C   UNL     1       6.272   8.969   4.275  0.00  0.00    +0.051 A 
ATOM     13  C   UNL     1       7.629   8.993   3.989  0.00  0.00    +0.162 A 
ATOM     14  C   UNL     1       8.058   9.269   2.696  0.00  0.00    +0.164 A 
ATOM     15  C   UNL     1       7.127   9.516   1.699  0.00  0.00    +0.078 A 
ATOM     16  O   UNL     1       9.384   9.291   2.393  0.00  0.00    -0.485 OA
ATOM     17  C   UNL     1      10.295   9.401   3.492  0.00  0.00    +0.270 C 
ATOM     18  C   UNL     1       9.857   8.411   4.580  0.00  0.00    +0.270 C 
ATOM     19  O   UNL     1       8.526   8.748   4.983  0.00  0.00    -0.485 OA
ENDBRANCH   7  10
ENDBRANCH   4   7
BRANCH   1  20
ATOM     20  C   UNL     1       4.600   4.195  -0.312  0.00  0.00    +0.180 C 
BRANCH  20  22
ATOM     21  N   UNL     1       3.421   2.038  -0.040  0.00  0.00    -0.283 N 
ATOM     22  C   UNL     1       3.342   3.376  -0.176  0.00  0.00    +0.231 C 
ATOM     23  O   UNL     1       2.259   3.921  -0.190  0.00  0.00    -0.274 OA
ATOM     24  H   UNL     1       4.287   1.610   0.052  0.00  0.00    +0.155 HD
BRANCH  21  27
ATOM     25  C   UNL     1      -0.044   0.967  -0.653  0.00  0.00    +0.040 A 
ATOM     26  C   UNL     1       1.107   1.731  -0.661  0.00  0.00    +0.028 A 
ATOM     27  C   UNL     1       2.254   1.264  -0.033  0.00  0.00    +0.064 A 
ATOM     28  C   UNL     1       2.241   0.030   0.604  0.00  0.00    +0.150 A 
ATOM     29  C   UNL     1       1.089  -0.731   0.610  0.00  0.00    +0.073 A 
ATOM     30  C   UNL     1      -0.054  -0.264  -0.018  0.00  0.00    +0.126 A 
ATOM     31  F   UNL     1      -1.180  -1.010  -0.011  0.00  0.00    -0.205 F 
BRANCH  28  32
ATOM     32  N   UNL     1       3.462  -0.470   1.274  0.00  0.00    +0.058 N 
ATOM     33  O   UNL     1       3.481  -1.583   1.744  0.00  0.00    -0.126 OA
ATOM     34  O   UNL     1       4.441   0.236   1.352  0.00  0.00    -0.126 OA
ENDBRANCH  28  32
ENDBRANCH  21  27
ENDBRANCH  20  22
ENDBRANCH   1  20
TORSDOF 6
