REMARK  Name = ZINC41652545
REMARK  4 active torsions:
REMARK  status: ('A' for Active; 'I' for Inactive)
REMARK    1  A    between atoms: C_5  and  C_7
REMARK    2  A    between atoms: C_7  and  C_8
REMARK    3  A    between atoms: C_8  and  N_9
REMARK    4  A    between atoms: C_19  and  C_20
REMARK                            x       y       z     vdW  Elec       q    Type
REMARK                         _______ _______ _______ _____ _____    ______ ____
ROOT
ATOM      1  N   UNL     1       1.500  -4.195   1.334  0.00  0.00    -0.266 NA
ATOM      2  C   UNL     1       1.825  -4.718   2.669  0.00  0.00    +0.130 C 
ATOM      3  C   UNL     1       1.653  -6.215   2.681  0.00  0.00    +0.051 A 
ATOM      4  C   UNL     1       0.921  -6.854   1.694  0.00  0.00    +0.130 A 
ATOM      5  C   UNL     1       0.766  -8.240   1.718  0.00  0.00    +0.047 A 
ATOM      6  C   UNL     1       1.335  -8.981   2.714  0.00  0.00    +0.019 A 
ATOM      7  C   UNL     1       2.077  -8.350   3.712  0.00  0.00    +0.068 A 
ATOM      8  C   UNL     1       2.240  -6.956   3.701  0.00  0.00    +0.147 A 
ATOM      9  O   UNL     1       2.990  -6.576   4.759  0.00  0.00    -0.451 OA
ATOM     10  C   UNL     1       3.364  -7.634   5.516  0.00  0.00    +0.176 C 
ATOM     11  C   UNL     1       4.119  -7.587   6.643  0.00  0.00    +0.058 C 
ATOM     12  C   UNL     1       2.803  -8.844   4.896  0.00  0.00    +0.231 C 
ATOM     13  O   UNL     1       2.913  -9.997   5.275  0.00  0.00    -0.283 OA
ATOM     14  O   UNL     1       0.346  -6.146   0.687  0.00  0.00    -0.476 OA
ATOM     15  C   UNL     1       0.208  -4.736   0.878  0.00  0.00    +0.318 C 
ENDROOT
BRANCH  11  16
ATOM     16  C   UNL     1       4.704  -6.313   7.081  0.00  0.00    -0.021 A 
ATOM     17  C   UNL     1       4.378  -5.124   6.419  0.00  0.00    +0.011 A 
ATOM     18  C   UNL     1       4.931  -3.933   6.836  0.00  0.00    +0.039 A 
ATOM     19  C   UNL     1       5.809  -3.911   7.909  0.00  0.00    +0.123 A 
ATOM     20  C   UNL     1       6.138  -5.085   8.570  0.00  0.00    +0.039 A 
ATOM     21  C   UNL     1       5.587  -6.282   8.168  0.00  0.00    +0.011 A 
ATOM     22  F   UNL     1       6.348  -2.739   8.312  0.00  0.00    -0.205 F 
ENDBRANCH  11  16
BRANCH   1  23
ATOM     23  C   UNL     1       1.485  -2.727   1.333  0.00  0.00    +0.092 C 
BRANCH  23  24
ATOM     24  C   UNL     1       1.365  -2.219  -0.106  0.00  0.00    +0.052 C 
BRANCH  24  29
ATOM     25  C   UNL     1       0.133   1.350  -0.119  0.00  0.00    +0.000 A 
ATOM     26  C   UNL     1       1.323   2.054  -0.110  0.00  0.00    +0.001 A 
ATOM     27  C   UNL     1       2.527   1.375  -0.100  0.00  0.00    +0.020 A 
ATOM     28  C   UNL     1       2.541  -0.008  -0.099  0.00  0.00    +0.044 A 
ATOM     29  C   UNL     1       1.350  -0.712  -0.107  0.00  0.00    -0.028 A 
ATOM     30  C   UNL     1       0.146  -0.032  -0.117  0.00  0.00    +0.005 A 
ATOM     31 CL   UNL     1       4.053  -0.861  -0.087  0.00  0.00    -0.083 Cl
ENDBRANCH  24  29
ENDBRANCH  23  24
ENDBRANCH   1  23
TORSDOF 4
