REMARK  Name = ZINC04475423
REMARK  5 active torsions:
REMARK  status: ('A' for Active; 'I' for Inactive)
REMARK    1  A    between atoms: C_4  and  C_7
REMARK    2  A    between atoms: N_12  and  N_13
REMARK    3  A    between atoms: C_14  and  C_15
REMARK    4  A    between atoms: C_18  and  O_22
REMARK    5  A    between atoms: C_19  and  O_21
REMARK                            x       y       z     vdW  Elec       q    Type
REMARK                         _______ _______ _______ _____ _____    ______ ____
ROOT
ATOM      1  C   UNL     1       1.028   1.962   0.003  0.00  0.00    +0.080 A 
ATOM      2  C   UNL     1      -0.013   1.076   0.008  0.00  0.00    +0.077 A 
ATOM      3  S   UNL     1      -1.405   2.198   0.019  0.00  0.00    -0.059 S 
ATOM      4  C   UNL     1      -0.466   3.719   0.026  0.00  0.00    +0.178 A 
ATOM      5  N   UNL     1       0.774   3.263   0.012  0.00  0.00    -0.224 NA
ATOM      6  N   UNL     1      -0.917   5.027   0.036  0.00  0.00    -0.215 N 
ATOM      7  H   UNL     1      -0.282   5.760   0.034  0.00  0.00    +0.176 HD
ENDROOT
BRANCH   1  11
ATOM      8  C   UNL     1       5.041   0.559  -0.040  0.00  0.00    +0.000 A 
ATOM      9  C   UNL     1       4.787   1.919  -0.032  0.00  0.00    +0.001 A 
ATOM     10  C   UNL     1       3.486   2.380  -0.018  0.00  0.00    +0.010 A 
ATOM     11  C   UNL     1       2.428   1.473  -0.012  0.00  0.00    +0.001 A 
ATOM     12  C   UNL     1       2.690   0.104  -0.015  0.00  0.00    +0.010 A 
ATOM     13  C   UNL     1       3.995  -0.346  -0.035  0.00  0.00    +0.001 A 
ENDBRANCH   1  11
BRANCH   6  14
ATOM     14  N   UNL     1      -2.293   5.293   0.050  0.00  0.00    -0.188 NA
ATOM     15  C   UNL     1      -2.717   6.521   0.060  0.00  0.00    +0.138 C 
BRANCH  15  16
ATOM     16  C   UNL     1      -4.164   6.801   0.075  0.00  0.00    -0.002 A 
ATOM     17  C   UNL     1      -5.081   5.747   0.073  0.00  0.00    +0.013 A 
ATOM     18  C   UNL     1      -6.435   6.011   0.093  0.00  0.00    +0.050 A 
ATOM     19  C   UNL     1      -6.889   7.322   0.104  0.00  0.00    +0.158 A 
ATOM     20  C   UNL     1      -5.980   8.377   0.100  0.00  0.00    +0.159 A 
ATOM     21  C   UNL     1      -4.622   8.121   0.086  0.00  0.00    +0.058 A 
BRANCH  20  22
ATOM     22  O   UNL     1      -6.429   9.661   0.110  0.00  0.00    -0.503 OA
ATOM     23  H   UNL     1      -6.568  10.036  -0.770  0.00  0.00    +0.292 HD
ENDBRANCH  20  22
BRANCH  19  24
ATOM     24  O   UNL     1      -8.224   7.576   0.118  0.00  0.00    -0.503 OA
ATOM     25  H   UNL     1      -8.619   7.654  -0.761  0.00  0.00    +0.292 HD
ENDBRANCH  19  24
ENDBRANCH  15  16
ENDBRANCH   6  14
TORSDOF 5
