REMARK  Name = ZINC15054551
REMARK  6 active torsions:
REMARK  status: ('A' for Active; 'I' for Inactive)
REMARK    1  A    between atoms: C_1  and  O_2
REMARK    2  A    between atoms: O_2  and  C_3
REMARK    3  A    between atoms: C_6  and  C_9
REMARK    4  A    between atoms: C_9  and  C_11
REMARK    5  A    between atoms: C_11  and  C_12
REMARK    6  A    between atoms: N_18  and  N_19
REMARK                            x       y       z     vdW  Elec       q    Type
REMARK                         _______ _______ _______ _____ _____    ______ ____
ROOT
ATOM      1  C   UNL     1       0.002  -0.004   0.002  0.00  0.00    +0.147 C 
ATOM      2  C   UNL     1       1.502  -0.253  -0.014  0.00  0.00    +0.232 C 
ATOM      3  O   UNL     1       1.983  -1.366  -0.025  0.00  0.00    -0.274 OA
ATOM      4  N   UNL     1       2.240   0.846  -0.015  0.00  0.00    -0.263 N 
ATOM      5  C   UNL     1       1.691   2.100  -0.003  0.00  0.00    +0.183 C 
ATOM      6  N   UNL     1       2.330   3.266  -0.003  0.00  0.00    -0.126 NA
ATOM      7  S   UNL     1      -0.023   1.831   0.012  0.00  0.00    -0.075 S 
ATOM      8  H   UNL     1       3.206   0.760  -0.025  0.00  0.00    +0.157 HD
ENDROOT
BRANCH   6   9
ATOM      9  N   UNL     1       1.661   4.368   0.010  0.00  0.00    -0.142 NA
ATOM     10  C   UNL     1       2.296   5.528   0.010  0.00  0.00    +0.157 C 
ATOM     11  C   UNL     1       3.758   5.753  -0.003  0.00  0.00    +0.029 A 
ATOM     12  C   UNL     1       4.855   4.896  -0.019  0.00  0.00    +0.027 A 
ATOM     13  C   UNL     1       6.132   5.420  -0.029  0.00  0.00    +0.019 A 
ATOM     14  C   UNL     1       6.320   6.793  -0.024  0.00  0.00    +0.017 A 
ATOM     15  C   UNL     1       5.239   7.651  -0.009  0.00  0.00    +0.025 A 
ATOM     16  C   UNL     1       3.945   7.142   0.003  0.00  0.00    +0.043 A 
ATOM     17  N   UNL     1       2.704   7.768   0.018  0.00  0.00    -0.280 N 
ATOM     18  C   UNL     1       1.703   6.872   0.016  0.00  0.00    +0.269 C 
ATOM     19  O   UNL     1       0.512   7.128   0.022  0.00  0.00    -0.268 OA
ATOM     20 BR   UNL     1       7.628   4.263  -0.050  0.00  0.00    -0.050 Br
ATOM     21  H   UNL     1       2.577   8.730   0.024  0.00  0.00    +0.155 HD
ENDBRANCH   6   9
BRANCH   1  22
ATOM     22  C   UNL     1      -0.642  -0.575   1.267  0.00  0.00    +0.103 C 
BRANCH  22  23
ATOM     23  C   UNL     1      -2.113  -0.248   1.273  0.00  0.00    +0.165 C 
ATOM     24  O   UNL     1      -2.599   0.380   0.356  0.00  0.00    -0.292 OA
BRANCH  23  28
ATOM     25  C   UNL     1      -4.552  -1.521   4.494  0.00  0.00    +0.120 A 
ATOM     26  C   UNL     1      -5.111  -0.801   3.443  0.00  0.00    +0.046 A 
ATOM     27  C   UNL     1      -4.326  -0.387   2.398  0.00  0.00    +0.015 A 
ATOM     28  C   UNL     1      -2.959  -0.689   2.390  0.00  0.00    +0.018 A 
ATOM     29  C   UNL     1      -2.401  -1.419   3.447  0.00  0.00    +0.015 A 
ATOM     30  C   UNL     1      -3.194  -1.824   4.490  0.00  0.00    +0.046 A 
BRANCH  25  32
ATOM     31  C   UNL     1      -4.694  -2.663   6.572  0.00  0.00    +0.277 C 
ATOM     32  O   UNL     1      -5.333  -1.928   5.525  0.00  0.00    -0.495 OA
ENDBRANCH  25  32
ENDBRANCH  23  28
ENDBRANCH  22  23
ENDBRANCH   1  22
TORSDOF 5
