REMARK  Name = ZINC39836598
REMARK  6 active torsions:
REMARK  status: ('A' for Active; 'I' for Inactive)
REMARK    1  A    between atoms: C_6  and  C_7
REMARK    2  A    between atoms: C_7  and  N_8
REMARK    3  A    between atoms: C_12  and  C_13
REMARK    4  A    between atoms: C_15  and  C_27
REMARK    5  A    between atoms: C_16  and  N_18
REMARK    6  A    between atoms: C_21  and  C_24
REMARK                            x       y       z     vdW  Elec       q    Type
REMARK                         _______ _______ _______ _____ _____    ______ ____
ROOT
ATOM      1  N   UNL     1      -1.142  -0.596  -1.696  0.00  0.00    -0.251 N 
ATOM      2  C   UNL     1      -2.044   0.200  -2.244  0.00  0.00    +0.259 C 
ATOM      3  O   UNL     1      -2.280   1.306  -1.793  0.00  0.00    -0.269 OA
ATOM      4  C   UNL     1      -2.751  -0.319  -3.432  0.00  0.00    +0.082 C 
ATOM      5  C   UNL     1      -3.715   0.268  -4.194  0.00  0.00    +0.088 C 
ATOM      6  S   UNL     1      -1.992  -1.929  -3.596  0.00  0.00    -0.061 S 
ATOM      7  C   UNL     1      -0.880  -1.818  -2.203  0.00  0.00    +0.121 C 
ATOM      8  S   UNL     1       0.245  -2.982  -1.645  0.00  0.00    -0.027 S 
ENDROOT
BRANCH   5   9
ATOM      9  C   UNL     1      -4.341   1.458  -3.751  0.00  0.00    +0.225 A 
ATOM     10  N   UNL     1      -4.151   2.025  -2.581  0.00  0.00    -0.197 NA
ATOM     11  C   UNL     1      -4.908   3.136  -2.510  0.00  0.00    +0.201 A 
ATOM     12  C   UNL     1      -5.596   3.241  -3.717  0.00  0.00    +0.227 A 
ATOM     13  O   UNL     1      -5.219   2.190  -4.468  0.00  0.00    -0.421 OA
BRANCH  12  14
ATOM     14  N   UNL     1      -6.481   4.228  -4.074  0.00  0.00    -0.299 N 
ATOM     15  C   UNL     1      -7.901   4.125  -3.713  0.00  0.00    +0.109 C 
ATOM     16  C   UNL     1      -8.745   4.290  -4.981  0.00  0.00    +0.032 C 
ATOM     17  C   UNL     1      -8.366   5.601  -5.674  0.00  0.00    +0.078 C 
ATOM     18  C   UNL     1      -6.891   5.558  -6.079  0.00  0.00    +0.032 C 
ATOM     19  C   UNL     1      -6.025   5.409  -4.818  0.00  0.00    +0.109 C 
BRANCH  17  20
ATOM     20  C   UNL     1      -9.218   5.783  -6.904  0.00  0.00    +0.214 C 
ATOM     21  O   UNL     1     -10.047   4.948  -7.196  0.00  0.00    -0.276 OA
ATOM     22  N   UNL     1      -9.059   6.875  -7.678  0.00  0.00    -0.329 N 
ATOM     23  H   UNL     1      -8.396   7.543  -7.444  0.00  0.00    +0.145 HD
ATOM     24  H   UNL     1      -9.608   6.992  -8.469  0.00  0.00    +0.145 HD
ENDBRANCH  17  20
ENDBRANCH  12  14
BRANCH  11  25
ATOM     25  C   UNL     1      -4.991   4.040  -1.402  0.00  0.00    +0.124 C 
ATOM     26  N   UNL     1      -5.057   4.756  -0.523  0.00  0.00    -0.189 NA
ENDBRANCH  11  25
ENDBRANCH   5   9
BRANCH   1  27
ATOM     27  C   UNL     1      -0.406  -0.138  -0.515  0.00  0.00    +0.150 C 
BRANCH  27  33
ATOM     28  C   UNL     1       0.813   1.944  -1.174  0.00  0.00    +0.009 A 
ATOM     29  C   UNL     1       1.958   2.609  -1.573  0.00  0.00    +0.050 A 
ATOM     30  C   UNL     1       3.140   1.909  -1.749  0.00  0.00    +0.166 A 
ATOM     31  C   UNL     1       3.172   0.534  -1.524  0.00  0.00    +0.167 A 
ATOM     32  C   UNL     1       2.021  -0.125  -1.124  0.00  0.00    +0.054 A 
ATOM     33  C   UNL     1       0.844   0.581  -0.950  0.00  0.00    -0.026 A 
ATOM     34  O   UNL     1       4.437   0.082  -1.763  0.00  0.00    -0.453 OA
ATOM     35  C   UNL     1       5.077   1.119  -2.530  0.00  0.00    +0.466 C 
ATOM     36  O   UNL     1       4.386   2.317  -2.130  0.00  0.00    -0.453 OA
ENDBRANCH  27  33
ENDBRANCH   1  27
TORSDOF 6
