REMARK  Name = ZINC39362150
REMARK  10 active torsions:
REMARK  status: ('A' for Active; 'I' for Inactive)
REMARK    1  A    between atoms: C_1  and  C_2
REMARK    2  A    between atoms: C_5  and  C_33
REMARK    3  A    between atoms: C_6  and  C_8
REMARK    4  A    between atoms: C_8  and  S_9
REMARK    5  A    between atoms: S_9  and  C_10
REMARK    6  A    between atoms: C_13  and  C_24
REMARK    7  A    between atoms: N_15  and  C_16
REMARK    8  A    between atoms: C_20  and  O_22
REMARK    9  A    between atoms: O_22  and  C_23
REMARK   10  A    between atoms: C_24  and  C_25
REMARK                            x       y       z     vdW  Elec       q    Type
REMARK                         _______ _______ _______ _____ _____    ______ ____
ROOT
ATOM      1  C   UNL     1       1.629  -4.220   4.423  0.00  0.00    +0.180 C 
ATOM      2  N   UNL     1       0.501  -4.491   4.988  0.00  0.00    -0.162 NA
ATOM      3  N   UNL     1       0.680  -4.931   6.305  0.00  0.00    -0.246 N 
ATOM      4  C   UNL     1       2.133  -4.917   6.548  0.00  0.00    +0.187 C 
ATOM      5  N   UNL     1       2.701  -4.447   5.274  0.00  0.00    -0.258 N 
ATOM      6  H   UNL     1      -0.013  -5.193   6.931  0.00  0.00    +0.170 HD
ENDROOT
BRANCH   5   7
ATOM      7  C   UNL     1       4.055  -4.262   4.980  0.00  0.00    +0.041 A 
ATOM      8  C   UNL     1       4.551  -2.983   4.759  0.00  0.00    +0.024 A 
ATOM      9  C   UNL     1       5.889  -2.801   4.469  0.00  0.00    +0.005 A 
ATOM     10  C   UNL     1       6.738  -3.889   4.399  0.00  0.00    +0.046 A 
ATOM     11  C   UNL     1       6.248  -5.169   4.619  0.00  0.00    +0.122 A 
ATOM     12  C   UNL     1       4.907  -5.356   4.915  0.00  0.00    +0.069 A 
BRANCH  11  13
ATOM     13  O   UNL     1       7.085  -6.238   4.548  0.00  0.00    -0.495 OA
ATOM     14  C   UNL     1       8.455  -5.971   4.244  0.00  0.00    +0.277 C 
ENDBRANCH  11  13
ENDBRANCH   5   7
BRANCH   1  15
ATOM     15  S   UNL     1       1.789  -3.640   2.767  0.00  0.00    -0.084 S 
BRANCH  15  16
ATOM     16  C   UNL     1       0.079  -3.540   2.169  0.00  0.00    +0.112 C 
BRANCH  16  22
ATOM     17  C   UNL     1      -0.089   0.232  -1.115  0.00  0.00    +0.044 C 
ATOM     18  C   UNL     1      -0.009  -1.245  -0.827  0.00  0.00    -0.050 A 
ATOM     19  C   UNL     1       0.059  -2.150  -1.870  0.00  0.00    +0.003 A 
ATOM     20  C   UNL     1       0.134  -3.505  -1.606  0.00  0.00    +0.004 A 
ATOM     21  C   UNL     1       0.140  -3.955  -0.298  0.00  0.00    -0.046 A 
ATOM     22  C   UNL     1       0.073  -3.050   0.744  0.00  0.00    -0.034 A 
ATOM     23  C   UNL     1       0.003  -1.694   0.480  0.00  0.00    +0.008 A 
ATOM     24  C   UNL     1       0.220  -5.432  -0.010  0.00  0.00    +0.044 C 
ENDBRANCH  16  22
ENDBRANCH  15  16
ENDBRANCH   1  15
BRANCH   4  25
ATOM     25  C   UNL     1       2.477  -3.954   7.687  0.00  0.00    +0.097 C 
BRANCH  25  26
ATOM     26  C   UNL     1       1.905  -4.479   8.979  0.00  0.00    +0.029 A 
ATOM     27  N   UNL     1       0.606  -4.211   9.314  0.00  0.00    -0.311 N 
ATOM     28  C   UNL     1       0.086  -4.675  10.465  0.00  0.00    +0.327 A 
ATOM     29  O   UNL     1      -1.071  -4.425  10.744  0.00  0.00    -0.247 OA
ATOM     30  N   UNL     1       0.827  -5.413  11.312  0.00  0.00    -0.275 N 
ATOM     31  C   UNL     1       2.112  -5.699  11.017  0.00  0.00    +0.254 A 
ATOM     32  O   UNL     1       2.784  -6.366  11.783  0.00  0.00    -0.268 OA
ATOM     33  C   UNL     1       2.670  -5.221   9.808  0.00  0.00    +0.091 A 
ATOM     34  H   UNL     1       0.437  -5.739  12.137  0.00  0.00    +0.173 HD
ATOM     35  H   UNL     1       0.055  -3.681   8.717  0.00  0.00    +0.170 HD
ENDBRANCH  25  26
ENDBRANCH   4  25
TORSDOF 7
