REMARK  Name = ZINC65406291
REMARK  11 active torsions:
REMARK  status: ('A' for Active; 'I' for Inactive)
REMARK    1  A    between atoms: C_1  and  C_2
REMARK    2  A    between atoms: C_2  and  N_3
REMARK    3  A    between atoms: N_3  and  C_4
REMARK    4  A    between atoms: C_4  and  C_5
REMARK    5  A    between atoms: C_5  and  C_6
REMARK    6  A    between atoms: C_12  and  C_16
REMARK    7  A    between atoms: C_17  and  C_19
REMARK    8  A    between atoms: C_21  and  C_31
REMARK    9  A    between atoms: C_23  and  C_28
REMARK   10  A    between atoms: C_26  and  C_27
REMARK   11  A    between atoms: C_28  and  C_30
REMARK                            x       y       z     vdW  Elec       q    Type
REMARK                         _______ _______ _______ _____ _____    ______ ____
ROOT
ATOM      1  N   UNL     1       1.060  -0.541   1.568  0.00  0.00    -0.298 N 
ATOM      2  C   UNL     1       2.384  -0.472   1.326  0.00  0.00    +0.244 C 
ATOM      3  O   UNL     1       3.179  -0.699   2.219  0.00  0.00    -0.270 OA
ENDROOT
BRANCH   2   4
ATOM      4  C   UNL     1       2.850  -0.136   0.033  0.00  0.00    +0.036 C 
ATOM      5  H   UNL     1       3.338  -0.772  -3.045  0.00  0.00    +0.146 HD
ATOM      6  C   UNL     1       3.511   1.168  -0.357  0.00  0.00    +0.050 C 
ATOM      7  C   UNL     1       3.807   0.992  -1.859  0.00  0.00    +0.144 C 
ATOM      8  N   UNL     1       3.303  -0.352  -2.171  0.00  0.00    -0.337 N 
ATOM      9  C   UNL     1       2.785  -0.921  -1.053  0.00  0.00    +0.010 C 
ATOM     10  C   UNL     1       2.189  -2.305  -1.033  0.00  0.00    +0.061 C 
ATOM     11  C   UNL     1       2.559   2.344  -0.128  0.00  0.00    +0.015 C 
BRANCH   7  12
ATOM     12  C   UNL     1       3.076   2.033  -2.667  0.00  0.00    +0.151 C 
ATOM     13  O   UNL     1       2.046   1.748  -3.228  0.00  0.00    -0.296 OA
ATOM     14  C   UNL     1       3.631   3.430  -2.774  0.00  0.00    +0.088 C 
ENDBRANCH   7  12
ENDBRANCH   2   4
BRANCH   1  16
ATOM     15  C   UNL     1      -0.384   1.080   0.442  0.00  0.00    +0.024 C 
ATOM     16  C   UNL     1       0.104  -0.369   0.471  0.00  0.00    +0.104 C 
ENDBRANCH   1  16
BRANCH   1  17
ATOM     17  C   UNL     1       0.576  -0.787   2.929  0.00  0.00    +0.112 C 
BRANCH  17  18
ATOM     18  C   UNL     1       0.436  -2.294   3.155  0.00  0.00    +0.065 C 
BRANCH  18  19
ATOM     19  C   UNL     1      -0.069  -2.551   4.577  0.00  0.00    +0.175 C 
ATOM     20  N   UNL     1       0.903  -2.049   5.556  0.00  0.00    -0.363 N 
ATOM     21  C   UNL     1       1.298  -3.063   6.270  0.00  0.00    +0.060 A 
ATOM     22  C   UNL     1       2.246  -3.190   7.385  0.00  0.00    +0.027 A 
ATOM     23  C   UNL     1       2.459  -4.399   7.942  0.00  0.00    +0.005 A 
ATOM     24  C   UNL     1       1.806  -5.564   7.499  0.00  0.00    -0.048 A 
ATOM     25  C   UNL     1       0.919  -5.558   6.485  0.00  0.00    +0.030 A 
ATOM     26  C   UNL     1       0.607  -4.295   5.801  0.00  0.00    +0.060 A 
ATOM     27  N   UNL     1      -0.190  -3.995   4.815  0.00  0.00    -0.363 N 
ATOM     28  C   UNL     1       2.111  -6.870   8.187  0.00  0.00    +0.044 C 
ATOM     29  H   UNL     1       1.198  -1.129   5.652  0.00  0.00    +0.162 HD
ATOM     30  H   UNL     1      -0.758  -4.611   4.328  0.00  0.00    +0.162 HD
ENDBRANCH  18  19
ENDBRANCH  17  18
ENDBRANCH   1  17
TORSDOF 6
