REMARK  Name = ZINC67533090
REMARK  9 active torsions:
REMARK  status: ('A' for Active; 'I' for Inactive)
REMARK    1  A    between atoms: C_1  and  C_2
REMARK    2  A    between atoms: C_2  and  C_4
REMARK    3  A    between atoms: C_2  and  N_11
REMARK    4  A    between atoms: C_4  and  O_5
REMARK    5  A    between atoms: O_5  and  C_6
REMARK    6  A    between atoms: C_6  and  C_7
REMARK    7  A    between atoms: N_14  and  C_15
REMARK    8  A    between atoms: C_15  and  C_17
REMARK    9  A    between atoms: C_15  and  C_24
REMARK                            x       y       z     vdW  Elec       q    Type
REMARK                         _______ _______ _______ _____ _____    ______ ____
ROOT
ATOM      1  N   UNL     1       0.711  -0.489   1.189  0.00  0.00    -0.295 N 
ATOM      2  C   UNL     1       0.051  -0.633   2.355  0.00  0.00    +0.300 C 
ATOM      3  O   UNL     1      -1.132  -0.361   2.423  0.00  0.00    -0.253 OA
ATOM      4  N   UNL     1       0.703  -1.080   3.447  0.00  0.00    -0.292 N 
ATOM      5  H   UNL     1       1.654  -0.707   1.135  0.00  0.00    +0.151 HD
ATOM      6  H   UNL     1       1.647  -1.298   3.394  0.00  0.00    +0.151 HD
ENDROOT
BRANCH   1   8
ATOM      7  C   UNL     1      -0.019   1.526   0.010  0.00  0.00    +0.030 C 
ATOM      8  C   UNL     1       0.002  -0.004   0.002  0.00  0.00    +0.097 C 
BRANCH   8   9
ATOM      9  C   UNL     1       0.718  -0.497  -1.257  0.00  0.00    +0.182 C 
BRANCH   9  10
ATOM     10  O   UNL     1       2.019   0.090  -1.326  0.00  0.00    -0.369 OA
BRANCH  10  11
ATOM     11  C   UNL     1       2.776  -0.307  -2.471  0.00  0.00    +0.273 C 
BRANCH  11  12
ATOM     12  C   UNL     1       4.143   0.379  -2.442  0.00  0.00    +0.413 C 
ATOM     13  F   UNL     1       4.827   0.008  -1.279  0.00  0.00    -0.168 F 
ATOM     14  F   UNL     1       4.884  -0.009  -3.563  0.00  0.00    -0.168 F 
ATOM     15  F   UNL     1       3.968   1.767  -2.457  0.00  0.00    -0.168 F 
ENDBRANCH  11  12
ENDBRANCH  10  11
ENDBRANCH   9  10
ENDBRANCH   8   9
ENDBRANCH   1   8
BRANCH   4  16
ATOM     16  C   UNL     1      -0.014  -1.237   4.715  0.00  0.00    +0.108 C 
BRANCH  16  17
ATOM     17  C   UNL     1       0.685  -2.268   5.563  0.00  0.00    -0.027 A 
ATOM     18  C   UNL     1       2.066  -2.304   5.610  0.00  0.00    +0.007 A 
ATOM     19  C   UNL     1       2.707  -3.250   6.388  0.00  0.00    +0.020 A 
ATOM     20  C   UNL     1       1.966  -4.162   7.118  0.00  0.00    +0.041 A 
ATOM     21  C   UNL     1       0.584  -4.126   7.071  0.00  0.00    +0.020 A 
ATOM     22  C   UNL     1      -0.056  -3.176   6.297  0.00  0.00    +0.007 A 
ATOM     23 CL   UNL     1       2.771  -5.351   8.094  0.00  0.00    -0.084 Cl
ENDBRANCH  16  17
BRANCH  16  24
ATOM     24  C   UNL     1      -0.037   0.102   5.457  0.00  0.00    +0.014 C 
ATOM     25  C   UNL     1      -1.392   0.613   5.949  0.00  0.00    +0.006 C 
ATOM     26  C   UNL     1      -0.708   1.286   4.757  0.00  0.00    +0.006 C 
ENDBRANCH  16  24
ENDBRANCH   4  16
TORSDOF 8
