REMARK  Name = ZINC63406122
REMARK  9 active torsions:
REMARK  status: ('A' for Active; 'I' for Inactive)
REMARK    1  A    between atoms: C_1  and  N_2
REMARK    2  A    between atoms: N_2  and  C_3
REMARK    3  A    between atoms: N_2  and  C_4
REMARK    4  A    between atoms: C_7  and  C_10
REMARK    5  A    between atoms: C_11  and  C_12
REMARK    6  A    between atoms: C_11  and  N_26
REMARK    7  A    between atoms: N_14  and  N_15
REMARK    8  A    between atoms: C_16  and  C_17
REMARK    9  A    between atoms: C_27  and  C_29
REMARK                            x       y       z     vdW  Elec       q    Type
REMARK                         _______ _______ _______ _____ _____    ______ ____
ROOT
ATOM      1  C   UNL     1      -0.054  -2.824  -4.888  0.00  0.00    +0.036 C 
ATOM      2  C   UNL     1      -0.123  -2.064  -6.010  0.00  0.00    +0.098 C 
ENDROOT
BRANCH   1   6
ATOM      3  C   UNL     1      -0.406  -1.009  -1.072  0.00  0.00    +0.029 A 
ATOM      4  C   UNL     1       0.241  -2.235  -1.200  0.00  0.00    +0.023 A 
ATOM      5  C   UNL     1       0.358  -2.828  -2.437  0.00  0.00    +0.010 A 
ATOM      6  C   UNL     1      -0.176  -2.196  -3.567  0.00  0.00    -0.023 A 
ATOM      7  C   UNL     1      -0.826  -0.963  -3.433  0.00  0.00    +0.010 A 
ATOM      8  C   UNL     1      -0.943  -0.380  -2.192  0.00  0.00    +0.023 A 
BRANCH   3  10
ATOM      9  C   UNL     1      -1.208   0.873   0.320  0.00  0.00    +0.129 C 
ATOM     10  N   UNL     1      -0.521  -0.414   0.181  0.00  0.00    -0.336 N 
ATOM     11  C   UNL     1       0.043  -1.074   1.361  0.00  0.00    +0.129 C 
ENDBRANCH   3  10
ENDBRANCH   1   6
BRANCH   2  12
ATOM     12  C   UNL     1      -0.165  -2.705  -7.328  0.00  0.00    +0.277 C 
ATOM     13  O   UNL     1      -0.249  -3.916  -7.414  0.00  0.00    -0.267 OA
ATOM     14  N   UNL     1      -0.110  -1.952  -8.445  0.00  0.00    -0.202 N 
ATOM     15  H   UNL     1       0.031  -0.995  -8.378  0.00  0.00    +0.178 HD
BRANCH  14  16
ATOM     16  N   UNL     1      -0.257  -2.553  -9.702  0.00  0.00    -0.188 NA
ATOM     17  C   UNL     1      -0.203  -1.821 -10.788  0.00  0.00    +0.136 C 
BRANCH  17  18
ATOM     18  C   UNL     1      -0.350  -2.422 -12.045  0.00  0.00    +0.000 C 
ATOM     19  C   UNL     1      -0.313  -1.793 -13.288  0.00  0.00    +0.004 A 
ATOM     20  C   UNL     1      -0.131  -0.447 -13.672  0.00  0.00    +0.010 A 
ATOM     21  C   UNL     1      -0.142  -0.114 -14.988  0.00  0.00    +0.001 A 
ATOM     22  C   UNL     1      -0.330  -1.075 -15.984  0.00  0.00    +0.002 A 
ATOM     23  C   UNL     1      -0.511  -2.385 -15.690  0.00  0.00    +0.026 A 
ATOM     24  C   UNL     1      -0.512  -2.811 -14.335  0.00  0.00    +0.043 A 
ATOM     25  N   UNL     1      -0.664  -4.002 -13.796  0.00  0.00    -0.380 N 
ATOM     26  C   UNL     1      -0.574  -3.889 -12.337  0.00  0.00    +0.150 C 
ATOM     27  H   UNL     1      -0.809  -4.826 -14.287  0.00  0.00    +0.160 HD
ENDBRANCH  17  18
ENDBRANCH  14  16
ENDBRANCH   2  12
BRANCH   2  28
ATOM     28  N   UNL     1      -0.155  -0.669  -5.908  0.00  0.00    -0.277 N 
ATOM     29  C   UNL     1      -1.158   0.025  -6.481  0.00  0.00    +0.248 C 
ATOM     30  O   UNL     1      -2.080  -0.564  -7.012  0.00  0.00    -0.270 OA
ATOM     31  H   UNL     1       0.544  -0.202  -5.426  0.00  0.00    +0.155 HD
BRANCH  29  32
ATOM     32  C   UNL     1      -1.138   1.503  -6.465  0.00  0.00    +0.037 A 
ATOM     33  C   UNL     1      -0.078   2.183  -5.862  0.00  0.00    +0.013 A 
ATOM     34  C   UNL     1      -0.065   3.562  -5.850  0.00  0.00    +0.001 A 
ATOM     35  C   UNL     1      -1.098   4.272  -6.435  0.00  0.00    +0.000 A 
ATOM     36  C   UNL     1      -2.152   3.604  -7.034  0.00  0.00    +0.001 A 
ATOM     37  C   UNL     1      -2.175   2.225  -7.057  0.00  0.00    +0.013 A 
ENDBRANCH  29  32
ENDBRANCH   2  28
TORSDOF 7
