REMARK  Name = ZINC00086133
REMARK  4 active torsions:
REMARK  status: ('A' for Active; 'I' for Inactive)
REMARK    1  A    between atoms: C_4  and  C_7
REMARK    2  A    between atoms: C_7  and  C_9
REMARK    3  A    between atoms: C_7  and  N_20
REMARK    4  A    between atoms: C_18  and  O_19
REMARK                            x       y       z     vdW  Elec       q    Type
REMARK                         _______ _______ _______ _____ _____    ______ ____
ROOT
ATOM      1  C   UNL     1      -3.653   3.406   0.147  0.00  0.00    +0.136 C 
ENDROOT
BRANCH   1   2
ATOM      2  C   UNL     1      -3.665   2.498  -1.056  0.00  0.00    +0.021 A 
ATOM      3  C   UNL     1      -2.459   2.108  -1.632  0.00  0.00    +0.010 A 
ATOM      4  C   UNL     1      -2.436   1.288  -2.719  0.00  0.00    +0.010 A 
ATOM      5  C   UNL     1      -3.643   0.827  -3.270  0.00  0.00    +0.004 A 
ATOM      6  C   UNL     1      -3.659  -0.022  -4.393  0.00  0.00    +0.011 A 
ATOM      7  C   UNL     1      -4.870  -0.431  -4.874  0.00  0.00    +0.020 A 
ATOM      8  C   UNL     1      -6.043  -0.007  -4.254  0.00  0.00    +0.111 A 
ATOM      9  N   UNL     1      -6.024   0.784  -3.209  0.00  0.00    -0.251 NA
ATOM     10  C   UNL     1      -4.873   1.220  -2.689  0.00  0.00    +0.113 A 
ATOM     11  C   UNL     1      -4.858   2.066  -1.560  0.00  0.00    +0.148 A 
BRANCH  11  12
ATOM     12  O   UNL     1      -6.025   2.453  -0.981  0.00  0.00    -0.504 OA
ATOM     13  H   UNL     1      -6.393   3.270  -1.345  0.00  0.00    +0.292 HD
ENDBRANCH  11  12
ENDBRANCH   1   2
BRANCH   1  14
ATOM     14  N   UNL     1      -2.419   4.196   0.150  0.00  0.00    -0.313 N 
ATOM     15  C   UNL     1      -2.360   5.392  -0.548  0.00  0.00    +0.159 A 
ATOM     16  N   UNL     1      -3.267   5.939  -1.334  0.00  0.00    -0.233 NA
ATOM     17  C   UNL     1      -3.046   7.095  -1.932  0.00  0.00    +0.120 A 
ATOM     18  C   UNL     1      -1.865   7.720  -1.712  0.00  0.00    +0.068 A 
ATOM     19  S   UNL     1      -1.076   6.560  -0.605  0.00  0.00    -0.061 S 
ATOM     20  H   UNL     1      -1.643   3.882   0.641  0.00  0.00    +0.149 HD
ENDBRANCH   1  14
BRANCH   1  24
ATOM     21  C   UNL     1      -3.848   1.055   3.708  0.00  0.00    +0.000 A 
ATOM     22  C   UNL     1      -4.960   1.757   3.281  0.00  0.00    +0.000 A 
ATOM     23  C   UNL     1      -4.897   2.518   2.129  0.00  0.00    +0.006 A 
ATOM     24  C   UNL     1      -3.722   2.577   1.403  0.00  0.00    -0.023 A 
ATOM     25  C   UNL     1      -2.611   1.871   1.827  0.00  0.00    +0.006 A 
ATOM     26  C   UNL     1      -2.673   1.114   2.982  0.00  0.00    +0.000 A 
ENDBRANCH   1  24
TORSDOF 4
