REMARK  Name = ZINC03873789
REMARK  4 active torsions:
REMARK  status: ('A' for Active; 'I' for Inactive)
REMARK    1  A    between atoms: N_15  and  C_16
REMARK    2  A    between atoms: C_16  and  C_17
REMARK    3  A    between atoms: C_17  and  C_18
REMARK    4  A    between atoms: C_18  and  N_19
REMARK                            x       y       z     vdW  Elec       q    Type
REMARK                         _______ _______ _______ _____ _____    ______ ____
ROOT
ATOM      1  C   UNL     1       5.786  -0.298   3.005  0.00  0.00    -0.077 C 
ENDROOT
BRANCH   1   2
ATOM      2  N   UNL     1       5.769  -1.025   4.281  0.00  0.00    +0.380 N 
ATOM      3  C   UNL     1       6.104  -2.435   4.043  0.00  0.00    -0.080 C 
ATOM      4  C   UNL     1       5.996  -3.216   5.356  0.00  0.00    -0.021 C 
ATOM      5  C   UNL     1       6.948  -2.611   6.382  0.00  0.00    +0.012 C 
ATOM      6  C   UNL     1       6.668  -1.122   6.559  0.00  0.00    -0.021 C 
ATOM      7  C   UNL     1       6.748  -0.427   5.197  0.00  0.00    -0.080 C 
ATOM      8  C   UNL     1       8.388  -2.823   5.947  0.00  0.00    +0.201 C 
ATOM      9  O   UNL     1       8.819  -2.695   4.820  0.00  0.00    -0.277 OA
ATOM     10  N   UNL     1       9.110  -3.182   7.047  0.00  0.00    -0.330 N 
ATOM     11  C   UNL     1       8.233  -3.071   8.201  0.00  0.00    +0.020 C 
ATOM     12  N   UNL     1       6.867  -3.319   7.660  0.00  0.00    +0.401 N 
ATOM     13  C   UNL     1       5.917  -2.811   8.637  0.00  0.00    -0.075 C 
ATOM     14  C   UNL     1       6.024  -3.694   9.890  0.00  0.00    -0.018 C 
ATOM     15  C   UNL     1       7.450  -3.701  10.440  0.00  0.00    -0.002 C 
ATOM     16  C   UNL     1       8.442  -4.075   9.322  0.00  0.00    +0.003 C 
ATOM     17  H   UNL     1      10.039  -3.461   7.057  0.00  0.00    +0.147 HD
ATOM     18  H   UNL     1       4.848  -0.965   4.689  0.00  0.00    -0.082 HD
ATOM     19  H   UNL     1       6.726  -4.306   7.503  0.00  0.00    -0.078 HD
ENDBRANCH   1   2
BRANCH   1  20
ATOM     20  C   UNL     1       4.682  -0.839   2.095  0.00  0.00    +0.001 C 
BRANCH  20  21
ATOM     21  C   UNL     1       4.699  -0.081   0.766  0.00  0.00    +0.109 C 
BRANCH  21  36
ATOM     22  C   UNL     1      -0.017   1.371   0.010  0.00  0.00    +0.000 A 
ATOM     23  C   UNL     1       1.173   2.077   0.002  0.00  0.00    +0.002 A 
ATOM     24  C   UNL     1       2.364   1.389  -0.027  0.00  0.00    +0.024 A 
ATOM     25  C   UNL     1       2.386  -0.011  -0.040  0.00  0.00    +0.037 A 
ATOM     26  C   UNL     1       1.204  -0.718  -0.010  0.00  0.00    -0.026 A 
ATOM     27  C   UNL     1       0.002  -0.004   0.002  0.00  0.00    +0.005 A 
ATOM     28  C   UNL     1       1.040  -2.215   0.047  0.00  0.00    +0.042 C 
ATOM     29  C   UNL     1       2.306  -2.974   0.362  0.00  0.00    +0.042 C 
ATOM     30  C   UNL     1       3.326  -2.855  -0.730  0.00  0.00    -0.026 A 
ATOM     31  C   UNL     1       3.640  -3.955  -1.512  0.00  0.00    +0.007 A 
ATOM     32  C   UNL     1       4.569  -3.827  -2.529  0.00  0.00    +0.020 A 
ATOM     33  C   UNL     1       5.183  -2.609  -2.769  0.00  0.00    +0.043 A 
ATOM     34  C   UNL     1       4.874  -1.513  -1.983  0.00  0.00    +0.043 A 
ATOM     35  C   UNL     1       3.948  -1.655  -0.958  0.00  0.00    +0.039 A 
ATOM     36  N   UNL     1       3.642  -0.599  -0.106  0.00  0.00    -0.300 N 
ATOM     37 CL   UNL     1       6.338  -2.458  -4.056  0.00  0.00    -0.083 Cl
ENDBRANCH  21  36
ENDBRANCH  20  21
ENDBRANCH   1  20
TORSDOF 4
