REMARK  Name = ZINC51396566
REMARK  4 active torsions:
REMARK  status: ('A' for Active; 'I' for Inactive)
REMARK    1  A    between atoms: C_6  and  N_7
REMARK    2  A    between atoms: N_10  and  C_13
REMARK    3  A    between atoms: C_17  and  C_19
REMARK    4  A    between atoms: C_19  and  N_20
REMARK                            x       y       z     vdW  Elec       q    Type
REMARK                         _______ _______ _______ _____ _____    ______ ____
ROOT
ATOM      1  N   UNL     1      -1.190  -0.733   0.009  0.00  0.00    -0.327 N 
ATOM      2  C   UNL     1      -2.477  -0.036   0.144  0.00  0.00    +0.124 C 
ATOM      3  C   UNL     1      -3.373  -0.426  -1.038  0.00  0.00    +0.124 C 
ATOM      4  N   UNL     1      -3.371  -1.890  -1.165  0.00  0.00    -0.327 N 
ATOM      5  C   UNL     1      -2.084  -2.587  -1.301  0.00  0.00    +0.124 C 
ATOM      6  C   UNL     1      -1.189  -2.196  -0.125  0.00  0.00    +0.124 C 
ENDROOT
BRANCH   1  12
ATOM      7  C   UNL     1       1.223  -0.692  -0.012  0.00  0.00    +0.024 A 
ATOM      8  C   UNL     1       2.407   0.019  -0.021  0.00  0.00    +0.022 A 
ATOM      9  C   UNL     1       2.385   1.402  -0.016  0.00  0.00    +0.041 A 
ATOM     10  C   UNL     1       1.178   2.078  -0.003  0.00  0.00    +0.022 A 
ATOM     11  C   UNL     1      -0.009   1.373   0.005  0.00  0.00    +0.024 A 
ATOM     12  C   UNL     1       0.009  -0.016   0.001  0.00  0.00    +0.030 A 
ATOM     13 CL   UNL     1       3.876   2.292  -0.026  0.00  0.00    -0.084 Cl
ENDBRANCH   1  12
BRANCH   4  14
ATOM     14  C   UNL     1      -4.566  -2.603  -1.157  0.00  0.00    +0.033 A 
ATOM     15  C   UNL     1      -4.566  -3.998  -1.153  0.00  0.00    +0.040 A 
ATOM     16  C   UNL     1      -5.772  -4.668  -1.145  0.00  0.00    +0.084 A 
ATOM     17  N   UNL     1      -6.913  -4.005  -1.141  0.00  0.00    -0.363 N 
ATOM     18  C   UNL     1      -6.955  -2.686  -1.145  0.00  0.00    +0.031 A 
ATOM     19  C   UNL     1      -5.794  -1.942  -1.147  0.00  0.00    +0.045 A 
ATOM     20  H   UNL     1      -7.746  -4.503  -1.135  0.00  0.00    +0.165 HD
BRANCH  18  21
ATOM     21  C   UNL     1      -8.288  -1.984  -1.140  0.00  0.00    +0.131 C 
BRANCH  21  22
ATOM     22  N   UNL     1      -8.771  -1.858   0.241  0.00  0.00    -0.325 NA
ATOM     23  H   UNL     1      -8.094  -1.383   0.819  0.00  0.00    +0.119 HD
ATOM     24  H   UNL     1      -9.664  -1.390   0.271  0.00  0.00    +0.119 HD
ENDBRANCH  21  22
ENDBRANCH  18  21
ENDBRANCH   4  14
TORSDOF 4
