REMARK  Name = ZINC63075070
REMARK  7 active torsions:
REMARK  status: ('A' for Active; 'I' for Inactive)
REMARK    1  A    between atoms: C_1  and  C_2
REMARK    2  A    between atoms: C_9  and  N_12
REMARK    3  A    between atoms: C_13  and  C_15
REMARK    4  A    between atoms: C_15  and  S_16
REMARK    5  A    between atoms: S_16  and  C_17
REMARK    6  A    between atoms: C_23  and  O_27
REMARK    7  A    between atoms: O_27  and  C_28
REMARK                            x       y       z     vdW  Elec       q    Type
REMARK                         _______ _______ _______ _____ _____    ______ ____
ROOT
ATOM      1  N   UNL     1      -1.152  -0.851   4.471  0.00  0.00    -0.288 N 
ATOM      2  C   UNL     1      -1.189  -1.351   5.723  0.00  0.00    +0.225 C 
ATOM      3  O   UNL     1      -0.228  -1.940   6.169  0.00  0.00    -0.275 OA
ATOM      4  H   UNL     1      -1.921  -0.380   4.115  0.00  0.00    +0.151 HD
ENDROOT
BRANCH   1  13
ATOM      5  C   UNL     1      -0.018   1.503   0.010  0.00  0.00    +0.046 C 
ATOM      6  C   UNL     1       0.002  -0.004   0.002  0.00  0.00    -0.028 A 
ATOM      7  C   UNL     1       0.005  -0.673  -1.200  0.00  0.00    +0.005 A 
ATOM      8  C   UNL     1       0.024  -2.054  -1.249  0.00  0.00    +0.001 A 
ATOM      9  C   UNL     1       0.039  -2.767  -0.061  0.00  0.00    +0.016 A 
ATOM     10  C   UNL     1       0.036  -2.097   1.141  0.00  0.00    +0.032 A 
ATOM     11  C   UNL     1       0.023  -0.701   1.223  0.00  0.00    +0.046 A 
ATOM     12  N   UNL     1       0.027  -0.119   2.490  0.00  0.00    -0.316 N 
ATOM     13  C   UNL     1       0.050  -1.019   3.651  0.00  0.00    +0.224 C 
ATOM     14  S   UNL     1       0.051  -2.662   2.827  0.00  0.00    -0.082 S 
ATOM     15  H   UNL     1       0.015   0.845   2.600  0.00  0.00    +0.149 HD
ENDBRANCH   1  13
BRANCH   2  16
ATOM     16  C   UNL     1      -2.425  -1.178   6.567  0.00  0.00    +0.168 C 
BRANCH  16  17
ATOM     17  S   UNL     1      -2.166  -1.954   8.185  0.00  0.00    -0.106 S 
BRANCH  17  18
ATOM     18  C   UNL     1      -3.723  -1.662   9.068  0.00  0.00    +0.236 C 
ATOM     19  N   UNL     1      -3.998  -0.222   9.141  0.00  0.00    -0.355 N 
ATOM     20  C   UNL     1      -5.125  -0.005   8.526  0.00  0.00    +0.061 A 
ATOM     21  C   UNL     1      -5.898   1.221   8.279  0.00  0.00    +0.031 A 
ATOM     22  C   UNL     1      -7.059   1.155   7.601  0.00  0.00    +0.048 A 
ATOM     23  C   UNL     1      -7.585  -0.106   7.096  0.00  0.00    +0.122 A 
ATOM     24  C   UNL     1      -6.931  -1.279   7.283  0.00  0.00    +0.073 A 
ATOM     25  C   UNL     1      -5.661  -1.294   8.011  0.00  0.00    +0.064 A 
ATOM     26  N   UNL     1      -4.841  -2.261   8.329  0.00  0.00    -0.355 N 
ATOM     27  H   UNL     1      -3.441   0.447   9.569  0.00  0.00    +0.162 HD
ATOM     28  H   UNL     1      -4.950  -3.201   8.116  0.00  0.00    +0.162 HD
BRANCH  23  29
ATOM     29  O   UNL     1      -8.761  -0.107   6.420  0.00  0.00    -0.495 OA
ATOM     30  C   UNL     1      -9.411   1.154   6.249  0.00  0.00    +0.277 C 
ENDBRANCH  23  29
ENDBRANCH  17  18
ENDBRANCH  16  17
ENDBRANCH   2  16
TORSDOF 5
