REMARK  Name = ZINC05116995
REMARK  8 active torsions:
REMARK  status: ('A' for Active; 'I' for Inactive)
REMARK    1  A    between atoms: C_1  and  C_2
REMARK    2  A    between atoms: C_5  and  C_8
REMARK    3  A    between atoms: N_13  and  C_16
REMARK    4  A    between atoms: C_16  and  C_17
REMARK    5  A    between atoms: C_17  and  C_18
REMARK    6  A    between atoms: C_18  and  C_19
REMARK    7  A    between atoms: C_18  and  C_20
REMARK    8  A    between atoms: N_21  and  C_25
REMARK                            x       y       z     vdW  Elec       q    Type
REMARK                         _______ _______ _______ _____ _____    ______ ____
ROOT
ATOM      1  C   UNL     1      -1.293  -0.775   0.011  0.00  0.00    +0.142 C 
ATOM      2  C   UNL     1      -1.673  -1.066  -1.427  0.00  0.00    +0.058 C 
ATOM      3  C   UNL     1      -1.830  -2.357  -1.785  0.00  0.00    +0.042 C 
ATOM      4  C   UNL     1      -2.201  -2.349  -3.251  0.00  0.00    +0.159 C 
ATOM      5  N   UNL     1      -2.224  -0.928  -3.628  0.00  0.00    -0.292 N 
ATOM      6  C   UNL     1      -1.909  -0.219  -2.529  0.00  0.00    +0.247 C 
ATOM      7  O   UNL     1      -1.837   0.996  -2.491  0.00  0.00    -0.270 OA
ATOM      8  N   UNL     1      -1.652  -3.368  -0.885  0.00  0.00    -0.260 N 
ATOM      9  C   UNL     1      -1.316  -3.168   0.397  0.00  0.00    +0.307 C 
ATOM     10  O   UNL     1      -1.181  -4.131   1.126  0.00  0.00    -0.252 OA
ATOM     11  N   UNL     1      -1.125  -1.935   0.903  0.00  0.00    -0.288 N 
ATOM     12  C   UNL     1      -1.840  -4.746  -1.345  0.00  0.00    +0.139 C 
ATOM     13  H   UNL     1      -0.882  -1.813   1.835  0.00  0.00    +0.151 HD
ENDROOT
BRANCH   1  18
ATOM     14  C   UNL     1       3.672   2.182  -0.024  0.00  0.00    +0.044 C 
ATOM     15  C   UNL     1       2.377   1.411  -0.015  0.00  0.00    -0.050 A 
ATOM     16  C   UNL     1       1.171   2.086   0.002  0.00  0.00    +0.004 A 
ATOM     17  C   UNL     1      -0.017   1.378   0.010  0.00  0.00    +0.006 A 
ATOM     18  C   UNL     1       0.002  -0.004   0.002  0.00  0.00    -0.023 A 
ATOM     19  C   UNL     1       1.208  -0.679  -0.013  0.00  0.00    +0.006 A 
ATOM     20  C   UNL     1       2.396   0.029  -0.022  0.00  0.00    +0.004 A 
ENDBRANCH   1  18
BRANCH   5  21
ATOM     21  C   UNL     1      -2.533  -0.385  -4.953  0.00  0.00    +0.109 C 
BRANCH  21  22
ATOM     22  C   UNL     1      -4.037  -0.125  -5.060  0.00  0.00    +0.022 C 
BRANCH  22  23
ATOM     23  C   UNL     1      -4.359   0.442  -6.445  0.00  0.00    -0.016 C 
ATOM     24  C   UNL     1      -5.875   0.585  -6.597  0.00  0.00    +0.007 C 
ATOM     25  C   UNL     1      -3.699   1.813  -6.601  0.00  0.00    +0.007 C 
ENDBRANCH  22  23
ENDBRANCH  21  22
ENDBRANCH   5  21
TORSDOF 4
