REMARK  Name = ZINC06559787
REMARK  10 active torsions:
REMARK  status: ('A' for Active; 'I' for Inactive)
REMARK    1  A    between atoms: C_1  and  C_2
REMARK    2  A    between atoms: C_7  and  C_8
REMARK    3  A    between atoms: C_8  and  C_10
REMARK    4  A    between atoms: C_8  and  O_16
REMARK    5  A    between atoms: O_16  and  C_17
REMARK    6  A    between atoms: C_17  and  C_18
REMARK    7  A    between atoms: C_18  and  C_20
REMARK    8  A    between atoms: C_18  and  O_30
REMARK    9  A    between atoms: C_20  and  N_21
REMARK   10  A    between atoms: C_24  and  C_27
REMARK                            x       y       z     vdW  Elec       q    Type
REMARK                         _______ _______ _______ _____ _____    ______ ____
ROOT
ATOM      1  C   UNL     1       2.096   0.512   3.868  0.00  0.00    +0.190 C 
ENDROOT
BRANCH   1   2
ATOM      2  O   UNL     1       1.629  -0.543   3.025  0.00  0.00    -0.365 OA
BRANCH   2   3
ATOM      3  C   UNL     1       0.670  -0.127   2.050  0.00  0.00    +0.179 C 
BRANCH   3  10
ATOM      4  C   UNL     1      -0.118   0.897  -0.534  0.00  0.00    +0.044 C 
ATOM      5  C   UNL     1       0.409  -0.510  -0.409  0.00  0.00    -0.044 A 
ATOM      6  C   UNL     1       0.520  -1.308  -1.532  0.00  0.00    +0.004 A 
ATOM      7  C   UNL     1       1.003  -2.598  -1.418  0.00  0.00    +0.000 A 
ATOM      8  C   UNL     1       1.376  -3.090  -0.181  0.00  0.00    +0.000 A 
ATOM      9  C   UNL     1       1.265  -2.291   0.942  0.00  0.00    +0.007 A 
ATOM     10  C   UNL     1       0.786  -0.999   0.827  0.00  0.00    -0.012 A 
ENDBRANCH   3  10
BRANCH   3  11
ATOM     11  C   UNL     1      -0.717  -0.251   2.626  0.00  0.00    -0.014 A 
ATOM     12  C   UNL     1      -1.067  -1.374   3.352  0.00  0.00    +0.006 A 
ATOM     13  C   UNL     1      -2.339  -1.487   3.881  0.00  0.00    +0.000 A 
ATOM     14  C   UNL     1      -3.262  -0.477   3.683  0.00  0.00    +0.000 A 
ATOM     15  C   UNL     1      -2.912   0.646   2.957  0.00  0.00    +0.000 A 
ATOM     16  C   UNL     1      -1.639   0.762   2.433  0.00  0.00    +0.006 A 
ENDBRANCH   3  11
ENDBRANCH   2   3
ENDBRANCH   1   2
BRANCH   1  17
ATOM     17  C   UNL     1       3.112  -0.046   4.867  0.00  0.00    +0.124 C 
BRANCH  17  18
ATOM     18  O   UNL     1       4.268  -0.506   4.163  0.00  0.00    -0.391 OA
ATOM     19  H   UNL     1       4.717   0.181   3.652  0.00  0.00    +0.210 HD
ENDBRANCH  17  18
BRANCH  17  20
ATOM     20  C   UNL     1       3.518   1.055   5.849  0.00  0.00    -0.045 C 
BRANCH  20  21
ATOM     21  N   UNL     1       4.460   0.508   6.835  0.00  0.00    +0.381 N 
ATOM     22  C   UNL     1       5.016   1.603   7.639  0.00  0.00    -0.078 C 
ATOM     23  C   UNL     1       6.058   1.048   8.613  0.00  0.00    -0.006 C 
ATOM     24  C   UNL     1       5.391   0.024   9.535  0.00  0.00    +0.071 C 
ATOM     25  C   UNL     1       4.751  -1.075   8.682  0.00  0.00    -0.006 C 
ATOM     26  C   UNL     1       3.757  -0.442   7.706  0.00  0.00    -0.078 C 
ATOM     27  H   UNL     1       5.209   0.032   6.355  0.00  0.00    -0.082 HD
BRANCH  24  28
ATOM     28  C   UNL     1       6.428  -0.584  10.445  0.00  0.00    +0.213 C 
ATOM     29  O   UNL     1       7.586  -0.233  10.365  0.00  0.00    -0.276 OA
ATOM     30  N   UNL     1       6.067  -1.518  11.348  0.00  0.00    -0.329 N 
ATOM     31  H   UNL     1       5.141  -1.798  11.412  0.00  0.00    +0.145 HD
ATOM     32  H   UNL     1       6.734  -1.909  11.934  0.00  0.00    +0.145 HD
ENDBRANCH  24  28
ENDBRANCH  20  21
ENDBRANCH  17  20
ENDBRANCH   1  17
TORSDOF 9
