REMARK  Name = ZINC24595558
REMARK  7 active torsions:
REMARK  status: ('A' for Active; 'I' for Inactive)
REMARK    1  A    between atoms: C_1  and  C_2
REMARK    2  A    between atoms: C_2  and  C_4
REMARK    3  A    between atoms: C_2  and  N_13
REMARK    4  A    between atoms: N_9  and  C_10
REMARK    5  A    between atoms: C_10  and  C_11
REMARK    6  A    between atoms: N_16  and  C_19
REMARK    7  A    between atoms: C_19  and  C_20
REMARK                            x       y       z     vdW  Elec       q    Type
REMARK                         _______ _______ _______ _____ _____    ______ ____
ROOT
ATOM      1  N   UNL     1       0.256  -0.576   1.331  0.00  0.00    -0.295 NA
ATOM      2  C   UNL     1       0.284  -2.044   1.276  0.00  0.00    +0.066 C 
ATOM      3  C   UNL     1       0.491  -2.600   2.687  0.00  0.00    -0.063 C 
ATOM      4  N   UNL     1       1.754  -2.089   3.235  0.00  0.00    +0.384 N 
ATOM      5  C   UNL     1       1.701  -0.623   3.306  0.00  0.00    -0.063 C 
ATOM      6  C   UNL     1       1.504  -0.050   1.901  0.00  0.00    +0.066 C 
ATOM      7  H   UNL     1       2.518  -2.369   2.638  0.00  0.00    -0.081 HD
ENDROOT
BRANCH   1   9
ATOM      8  C   UNL     1       1.274  -0.095  -0.843  0.00  0.00    +0.034 C 
ATOM      9  C   UNL     1       0.002  -0.004   0.002  0.00  0.00    +0.140 C 
BRANCH   9  10
ATOM     10  C   UNL     1      -0.404   1.440   0.145  0.00  0.00    +0.237 C 
ATOM     11  O   UNL     1      -0.218   2.021   1.193  0.00  0.00    -0.274 OA
ATOM     12  N   UNL     1      -0.973   2.086  -0.891  0.00  0.00    -0.239 N 
ATOM     13  C   UNL     1      -1.336   3.378  -0.763  0.00  0.00    +0.306 C 
ATOM     14  O   UNL     1      -1.150   3.960   0.287  0.00  0.00    -0.252 OA
ATOM     15  N   UNL     1      -1.905   4.024  -1.800  0.00  0.00    -0.296 N 
ATOM     16  H   UNL     1      -1.121   1.622  -1.730  0.00  0.00    +0.159 HD
ATOM     17  H   UNL     1      -2.053   3.559  -2.639  0.00  0.00    +0.151 HD
BRANCH  15  18
ATOM     18  C   UNL     1      -2.300   5.428  -1.661  0.00  0.00    +0.132 C 
BRANCH  18  19
ATOM     19  C   UNL     1      -2.907   5.910  -2.953  0.00  0.00    -0.016 C 
ATOM     20  C   UNL     1      -4.104   6.442  -2.956  0.00  0.00    +0.005 C 
ENDBRANCH  18  19
ENDBRANCH  15  18
ENDBRANCH   9  10
ENDBRANCH   1   9
BRANCH   4  21
ATOM     21  C   UNL     1       1.961  -2.637   4.582  0.00  0.00    -0.035 C 
BRANCH  21  22
ATOM     22  C   UNL     1       3.313  -2.212   5.095  0.00  0.00    -0.025 A 
ATOM     23  C   UNL     1       3.646  -1.109   5.809  0.00  0.00    +0.011 A 
ATOM     24  C   UNL     1       4.966  -0.922   6.176  0.00  0.00    +0.028 A 
ATOM     25  C   UNL     1       5.887  -1.848   5.811  0.00  0.00    +0.078 A 
ATOM     26  S   UNL     1       4.888  -3.035   4.928  0.00  0.00    -0.084 S 
ATOM     27 CL   UNL     1       7.594  -1.875   6.127  0.00  0.00    -0.076 Cl
ENDBRANCH  21  22
ENDBRANCH   4  21
TORSDOF 6
