REMARK  Name = ZINC49077434
REMARK  5 active torsions:
REMARK  status: ('A' for Active; 'I' for Inactive)
REMARK    1  A    between atoms: C_5  and  C_6
REMARK    2  A    between atoms: C_6  and  C_7
REMARK    3  A    between atoms: C_7  and  N_8
REMARK    4  A    between atoms: N_11  and  C_12
REMARK    5  A    between atoms: C_12  and  C_13
REMARK                            x       y       z     vdW  Elec       q    Type
REMARK                         _______ _______ _______ _____ _____    ______ ____
ROOT
ATOM      1  N   UNL     1      -2.688  -2.225  -1.425  0.00  0.00    -0.299 N 
ATOM      2  C   UNL     1      -3.217  -2.650  -2.589  0.00  0.00    +0.300 C 
ATOM      3  O   UNL     1      -2.761  -2.256  -3.645  0.00  0.00    -0.253 OA
ATOM      4  N   UNL     1      -4.253  -3.513  -2.583  0.00  0.00    -0.299 N 
ATOM      5  H   UNL     1      -3.052  -2.540  -0.583  0.00  0.00    +0.150 HD
ATOM      6  H   UNL     1      -4.617  -3.828  -1.741  0.00  0.00    +0.150 HD
ENDROOT
BRANCH   1   7
ATOM      7  C   UNL     1      -1.562  -1.288  -1.432  0.00  0.00    +0.111 C 
BRANCH   7   8
ATOM      8  C   UNL     1      -1.156  -0.969   0.009  0.00  0.00    +0.061 C 
BRANCH   8  13
ATOM      9  C   UNL     1      -0.016   1.351   0.009  0.00  0.00    +0.012 A 
ATOM     10  C   UNL     1       1.183   2.038   0.002  0.00  0.00    +0.023 A 
ATOM     11  C   UNL     1       2.343   1.335  -0.013  0.00  0.00    +0.055 A 
ATOM     12  S   UNL     1       1.753  -0.350  -0.017  0.00  0.00    -0.086 S 
ATOM     13  C   UNL     1       0.002  -0.004   0.002  0.00  0.00    -0.008 A 
ATOM     14 BR   UNL     1       4.123   1.974  -0.027  0.00  0.00    -0.043 Br
ENDBRANCH   8  13
ENDBRANCH   7   8
ENDBRANCH   1   7
BRANCH   4  15
ATOM     15  C   UNL     1      -4.828  -3.975  -3.849  0.00  0.00    +0.111 C 
BRANCH  15  16
ATOM     16  C   UNL     1      -5.981  -4.940  -3.563  0.00  0.00    +0.032 C 
ATOM     17  C   UNL     1      -6.505  -5.517  -4.881  0.00  0.00    +0.009 C 
ATOM     18  C   UNL     1      -7.707  -6.420  -4.589  0.00  0.00    +0.028 C 
ATOM     19  C   UNL     1      -8.773  -5.611  -3.845  0.00  0.00    +0.160 C 
ATOM     20  O   UNL     1      -8.212  -5.077  -2.644  0.00  0.00    -0.379 OA
ATOM     21  C   UNL     1      -7.113  -4.189  -2.857  0.00  0.00    +0.164 C 
ENDBRANCH  15  16
ENDBRANCH   4  15
TORSDOF 5
