REMARK  Name = ZINC61461450
REMARK  6 active torsions:
REMARK  status: ('A' for Active; 'I' for Inactive)
REMARK    1  A    between atoms: C_1  and  C_2
REMARK    2  A    between atoms: C_9  and  C_11
REMARK    3  A    between atoms: C_16  and  C_18
REMARK    4  A    between atoms: C_18  and  C_19
REMARK    5  A    between atoms: C_19  and  C_20
REMARK    6  A    between atoms: C_19  and  N_25
REMARK                            x       y       z     vdW  Elec       q    Type
REMARK                         _______ _______ _______ _____ _____    ______ ____
ROOT
ATOM      1  C   UNL     1       0.090  -5.594   2.249  0.00  0.00    +0.142 C 
ATOM      2  C   UNL     1       1.547  -6.005   2.550  0.00  0.00    +0.032 C 
ATOM      3  C   UNL     1       1.537  -7.535   2.292  0.00  0.00    +0.021 C 
ATOM      4  C   UNL     1       0.549  -7.643   1.103  0.00  0.00    +0.108 C 
ATOM      5  N   UNL     1      -0.484  -6.628   1.378  0.00  0.00    -0.291 N 
ATOM      6  C   UNL     1      -1.747  -6.647   0.907  0.00  0.00    +0.218 C 
ATOM      7  O   UNL     1      -2.516  -5.755   1.200  0.00  0.00    -0.276 OA
ENDROOT
BRANCH   1  16
ATOM      8  C   UNL     1      -0.018   1.503   0.010  0.00  0.00    +0.044 C 
ATOM      9  C   UNL     1       0.002  -0.004   0.002  0.00  0.00    -0.048 A 
ATOM     10  C   UNL     1       0.006  -0.687  -1.206  0.00  0.00    +0.005 A 
ATOM     11  C   UNL     1       0.024  -2.052  -1.235  0.00  0.00    +0.030 A 
ATOM     12  C   UNL     1       0.040  -2.774  -0.039  0.00  0.00    +0.089 A 
ATOM     13  C   UNL     1       0.037  -2.083   1.185  0.00  0.00    +0.067 A 
ATOM     14  C   UNL     1       0.023  -0.695   1.195  0.00  0.00    +0.031 A 
ATOM     15  N   UNL     1       0.055  -3.051   2.169  0.00  0.00    -0.340 N 
ATOM     16  C   UNL     1       0.068  -4.261   1.546  0.00  0.00    +0.129 A 
ATOM     17  N   UNL     1       0.059  -4.099   0.255  0.00  0.00    -0.231 NA
ATOM     18  H   UNL     1       0.058  -2.898   3.127  0.00  0.00    +0.167 HD
ENDBRANCH   1  16
BRANCH   6  19
ATOM     19  C   UNL     1      -2.204  -7.775   0.019  0.00  0.00    +0.123 C 
BRANCH  19  20
ATOM     20  C   UNL     1      -3.667  -7.556  -0.372  0.00  0.00    +0.120 C 
BRANCH  20  21
ATOM     21  N   UNL     1      -3.778  -6.347  -1.192  0.00  0.00    -0.292 N 
ATOM     22  C   UNL     1      -4.942  -5.669  -1.239  0.00  0.00    +0.298 C 
ATOM     23  O   UNL     1      -5.900  -6.061  -0.601  0.00  0.00    -0.253 OA
ATOM     24  N   UNL     1      -5.044  -4.557  -1.994  0.00  0.00    -0.313 N 
ATOM     25  H   UNL     1      -3.014  -6.035  -1.701  0.00  0.00    +0.151 HD
ATOM     26  H   UNL     1      -4.279  -4.244  -2.503  0.00  0.00    +0.146 HD
ATOM     27  H   UNL     1      -5.881  -4.069  -2.028  0.00  0.00    +0.146 HD
ENDBRANCH  20  21
BRANCH  20  28
ATOM     28  C   UNL     1      -4.160  -8.743  -1.158  0.00  0.00    +0.010 A 
ATOM     29  C   UNL     1      -4.912  -9.791  -0.740  0.00  0.00    +0.013 A 
ATOM     30  C   UNL     1      -5.250 -10.777  -1.648  0.00  0.00    +0.008 A 
ATOM     31  C   UNL     1      -4.820 -10.668  -2.929  0.00  0.00    +0.045 A 
ATOM     32  S   UNL     1      -3.913  -9.131  -2.883  0.00  0.00    -0.100 S 
ENDBRANCH  20  28
ENDBRANCH  19  20
ENDBRANCH   6  19
TORSDOF 5
