REMARK  Name = ZINC01094573
REMARK  4 active torsions:
REMARK  status: ('A' for Active; 'I' for Inactive)
REMARK    1  A    between atoms: C_1  and  C_2
REMARK    2  A    between atoms: C_9  and  N_13
REMARK    3  A    between atoms: C_10  and  C_11
REMARK    4  A    between atoms: C_14  and  C_15
REMARK                            x       y       z     vdW  Elec       q    Type
REMARK                         _______ _______ _______ _____ _____    ______ ____
ROOT
ATOM      1  C   UNL     1      -0.019   1.526   0.010  0.00  0.00    +0.008 C 
ATOM      2  C   UNL     1       0.002  -0.004   0.002  0.00  0.00    -0.009 C 
ATOM      3  C   UNL     1      -1.433  -0.537   0.021  0.00  0.00    +0.008 C 
ATOM      4  C   UNL     1      -1.433  -2.044  -0.239  0.00  0.00    +0.037 C 
ATOM      5  C   UNL     1      -0.474  -2.714   0.743  0.00  0.00    -0.018 A 
ATOM      6  C   UNL     1       0.474  -1.985   1.382  0.00  0.00    -0.003 A 
ATOM      7  S   UNL     1       1.333  -3.157   2.398  0.00  0.00    -0.073 S 
ATOM      8  C   UNL     1       0.402  -4.613   1.946  0.00  0.00    +0.119 A 
ATOM      9  C   UNL     1      -0.520  -4.090   1.031  0.00  0.00    +0.088 A 
ATOM     10  C   UNL     1       0.737  -0.516   1.249  0.00  0.00    +0.046 C 
ENDROOT
BRANCH   9  11
ATOM     11  C   UNL     1      -1.488  -4.937   0.402  0.00  0.00    +0.102 C 
ATOM     12  N   UNL     1      -2.256  -5.609  -0.097  0.00  0.00    -0.191 NA
ENDBRANCH   9  11
BRANCH   8  13
ATOM     13  N   UNL     1       0.549  -5.883   2.374  0.00  0.00    -0.243 NA
ATOM     14  C   UNL     1       1.484  -6.178   3.246  0.00  0.00    +0.158 C 
BRANCH  14  15
ATOM     15  C   UNL     1       1.638  -7.510   3.695  0.00  0.00    +0.147 A 
ATOM     16  C   UNL     1       2.570  -7.957   4.609  0.00  0.00    +0.052 A 
ATOM     17  C   UNL     1       2.358  -9.337   4.753  0.00  0.00    +0.056 A 
ATOM     18  C   UNL     1       1.329  -9.670   3.941  0.00  0.00    +0.165 A 
ATOM     19  O   UNL     1       0.895  -8.569   3.311  0.00  0.00    -0.448 OA
ATOM     20  I   UNL     1       0.536 -11.596   3.712  0.00  0.00    -0.001 I 
ENDBRANCH  14  15
ENDBRANCH   8  13
TORSDOF 3
