REMARK  Name = ZINC11865566
REMARK  10 active torsions:
REMARK  status: ('A' for Active; 'I' for Inactive)
REMARK    1  A    between atoms: CD1_1  and  CG1_2
REMARK    2  A    between atoms: CG1_2  and  CB_3
REMARK    3  A    between atoms: CB_3  and  CG2_5
REMARK    4  A    between atoms: CB_3  and  CA_6
REMARK    5  A    between atoms: CA_6  and  C_8
REMARK    6  A    between atoms: CA_6  and  N_10
REMARK    7  A    between atoms: C_11  and  C_13
REMARK    8  A    between atoms: C_13  and  C_14
REMARK    9  A    between atoms: C_15  and  C_35
REMARK   10  A    between atoms: C_27  and  C_28
REMARK                            x       y       z     vdW  Elec       q    Type
REMARK                         _______ _______ _______ _____ _____    ______ ____
ROOT
ATOM      1  C   UNK A   0       2.926  -0.386  -0.022  0.00  0.00    +0.049 A 
ATOM      2  C   UNK A   0       3.397   0.508   0.883  0.00  0.00    -0.029 A 
ATOM      3  C   UNK A   0       4.270   0.016   1.954  0.00  0.00    +0.022 A 
ATOM      4  C   UNK A   0       4.780   0.888   2.917  0.00  0.00    +0.024 A 
ATOM      5  C   UNK A   0       5.601   0.390   3.916  0.00  0.00    +0.029 A 
ATOM      6  C   UNK A   0       5.921  -0.981   3.962  0.00  0.00    +0.139 A 
ATOM      7  C   UNK A   0       5.411  -1.842   3.001  0.00  0.00    +0.093 A 
ATOM      8  C   UNK A   0       4.589  -1.357   1.999  0.00  0.00    +0.143 A 
ATOM      9  O   UNK A   0       4.089  -2.191   1.061  0.00  0.00    -0.422 OA
ATOM     10  C   UNK A   0       3.290  -1.745   0.079  0.00  0.00    +0.341 A 
ATOM     11  O   UNK A   0       2.863  -2.536  -0.743  0.00  0.00    -0.245 OA
ATOM     12  O   UNK A   0       6.726  -1.171   5.028  0.00  0.00    -0.462 OA
ATOM     13  C   UNK A   0       6.952  -0.017   5.679  0.00  0.00    +0.204 A 
ATOM     14  C   UNK A   0       6.300   0.996   5.066  0.00  0.00    +0.028 A 
ATOM     15  C   UNK A   0       3.028   1.967   0.795  0.00  0.00    +0.045 C 
ENDROOT
BRANCH  14  16
ATOM     16  C   UNK A   0       6.288   2.424   5.466  0.00  0.00    -0.014 A 
ATOM     17  C   UNK A   0       6.564   3.416   4.527  0.00  0.00    +0.011 A 
ATOM     18  C   UNK A   0       6.548   4.743   4.904  0.00  0.00    +0.039 A 
ATOM     19  C   UNK A   0       6.269   5.090   6.216  0.00  0.00    +0.123 A 
ATOM     20  C   UNK A   0       5.999   4.107   7.154  0.00  0.00    +0.039 A 
ATOM     21  C   UNK A   0       6.008   2.777   6.785  0.00  0.00    +0.011 A 
ATOM     22  F   UNK A   0       6.259   6.390   6.581  0.00  0.00    -0.205 F 
ENDBRANCH  14  16
BRANCH   1  23
ATOM     23  C   UNK A   0       2.021   0.073  -1.136  0.00  0.00    +0.138 C 
BRANCH  23  25
ATOM     24  N   ILE A   1       2.253   0.907  -3.454  0.00  0.00    -0.302 N 
ATOM     25  C   UNK A   0       2.852   0.462  -2.331  0.00  0.00    +0.218 C 
ATOM     26  O   UNK A   0       4.061   0.376  -2.283  0.00  0.00    -0.275 OA
ATOM     27  H   ILE A   1       1.286   0.976  -3.492  0.00  0.00    +0.150 HD
BRANCH  24  28
ATOM     28  CA  ILE A   1       3.061   1.286  -4.615  0.00  0.00    +0.189 C 
BRANCH  28  29
ATOM     29  C   ILE A   1       3.366   0.059  -5.436  0.00  0.00    +0.376 C 
ATOM     30  O   ILE A   1       2.657  -0.915  -5.353  0.00  0.00    -0.244 OA
ATOM     31  OXT ILE A   1       4.426   0.050  -6.260  0.00  0.00    -0.244 OA
ENDBRANCH  28  29
BRANCH  28  32
ATOM     32  CB  ILE A   1       2.287   2.292  -5.469  0.00  0.00    +0.017 C 
ATOM     33  CG2 ILE A   1       0.959   1.672  -5.910  0.00  0.00    +0.010 C 
BRANCH  32  35
ATOM     34  CD1 ILE A   1       1.362   4.612  -5.541  0.00  0.00    +0.004 C 
ATOM     35  CG1 ILE A   1       2.013   3.553  -4.648  0.00  0.00    +0.002 C 
ENDBRANCH  32  35
ENDBRANCH  28  32
ENDBRANCH  24  28
ENDBRANCH  23  25
ENDBRANCH   1  23
TORSDOF 7
