REMARK  Name = ZINC40285876
REMARK  2 active torsions:
REMARK  status: ('A' for Active; 'I' for Inactive)
REMARK    1  A    between atoms: C_3  and  C_6
REMARK    2  A    between atoms: C_6  and  C_8
REMARK                            x       y       z     vdW  Elec       q    Type
REMARK                         _______ _______ _______ _____ _____    ______ ____
ROOT
ATOM      1  C   UNL     1       4.074   0.020  -1.325  0.00  0.00    -0.023 A 
ATOM      2  C   UNL     1       3.787  -1.303  -1.614  0.00  0.00    +0.007 A 
ATOM      3  C   UNL     1       4.220  -1.865  -2.799  0.00  0.00    +0.030 A 
ATOM      4  C   UNL     1       4.943  -1.101  -3.701  0.00  0.00    +0.087 A 
ATOM      5  C   UNL     1       5.232   0.233  -3.411  0.00  0.00    +0.157 A 
ATOM      6  C   UNL     1       4.790   0.789  -2.221  0.00  0.00    +0.053 A 
ATOM      7  O   UNL     1       5.941   0.727  -4.456  0.00  0.00    -0.408 OA
ATOM      8  C   UNL     1       6.102  -0.238  -5.375  0.00  0.00    +0.419 A 
ATOM      9  O   UNL     1       6.694  -0.111  -6.430  0.00  0.00    -0.223 OA
ATOM     10  N   UNL     1       5.505  -1.369  -4.949  0.00  0.00    -0.288 N 
ATOM     11  H   UNL     1       5.473  -2.214  -5.423  0.00  0.00    +0.172 HD
ENDROOT
BRANCH   1  12
ATOM     12  C   UNL     1       3.599   0.625  -0.029  0.00  0.00    +0.152 C 
ATOM     13 BR   UNL     1       4.244  -0.461   1.477  0.00  0.00    -0.075 Br
BRANCH  12  16
ATOM     14  C   UNL     1      -0.016   1.341   0.009  0.00  0.00    +0.041 A 
ATOM     15  C   UNL     1       1.331   1.769  -0.001  0.00  0.00    +0.046 A 
ATOM     16  C   UNL     1       2.092   0.660  -0.014  0.00  0.00    +0.123 A 
ATOM     17  O   UNL     1       1.282  -0.411  -0.012  0.00  0.00    -0.466 OA
ATOM     18  C   UNL     1       0.002  -0.004   0.002  0.00  0.00    +0.195 A 
ENDBRANCH  12  16
ENDBRANCH   1  12
TORSDOF 2
