REMARK  Name = ZINC12540863
REMARK  8 active torsions:
REMARK  status: ('A' for Active; 'I' for Inactive)
REMARK    1  A    between atoms: C_1  and  C_2
REMARK    2  A    between atoms: C_3  and  C_28
REMARK    3  A    between atoms: C_6  and  O_10
REMARK    4  A    between atoms: C_7  and  C_8
REMARK    5  A    between atoms: O_10  and  C_11
REMARK    6  A    between atoms: C_14  and  O_17
REMARK    7  A    between atoms: O_17  and  C_18
REMARK    8  A    between atoms: C_21  and  C_24
REMARK                            x       y       z     vdW  Elec       q    Type
REMARK                         _______ _______ _______ _____ _____    ______ ____
ROOT
ATOM      1  C   UNL     1      -6.823   3.550   3.946  0.00  0.00    +0.131 A 
ATOM      2  C   UNL     1      -6.315   3.857   5.200  0.00  0.00    +0.050 A 
ATOM      3  C   UNL     1      -4.961   3.743   5.444  0.00  0.00    +0.050 A 
ATOM      4  C   UNL     1      -4.108   3.319   4.435  0.00  0.00    +0.131 A 
ATOM      5  C   UNL     1      -4.615   3.017   3.179  0.00  0.00    +0.050 A 
ATOM      6  C   UNL     1      -5.970   3.127   2.937  0.00  0.00    +0.050 A 
ENDROOT
BRANCH   1   7
ATOM      7  O   UNL     1      -8.157   3.662   3.707  0.00  0.00    -0.436 OA
BRANCH   7  13
ATOM      8  C   UNL     1     -11.937   6.644   2.668  0.00  0.00    +0.047 C 
ATOM      9  C   UNL     1     -10.494   6.376   3.012  0.00  0.00    -0.005 A 
ATOM     10  C   UNL     1      -9.590   7.415   3.157  0.00  0.00    +0.065 A 
ATOM     11  N   UNL     1      -8.332   7.160   3.459  0.00  0.00    -0.151 NA
ATOM     12  N   UNL     1      -7.889   5.968   3.631  0.00  0.00    -0.110 NA
ATOM     13  C   UNL     1      -8.666   4.903   3.517  0.00  0.00    +0.258 A 
ATOM     14  C   UNL     1     -10.024   5.069   3.191  0.00  0.00    +0.120 A 
ATOM     15  C   UNL     1     -10.044   8.839   2.969  0.00  0.00    +0.068 C 
BRANCH  14  16
ATOM     16  C   UNL     1     -10.897   3.942   3.053  0.00  0.00    +0.105 C 
ATOM     17  N   UNL     1     -11.589   3.047   2.943  0.00  0.00    -0.191 NA
ENDBRANCH  14  16
ENDBRANCH   7  13
ENDBRANCH   1   7
BRANCH   4  18
ATOM     18  O   UNL     1      -2.775   3.206   4.675  0.00  0.00    -0.438 OA
BRANCH  18  19
ATOM     19  C   UNL     1      -2.343   2.128   5.377  0.00  0.00    +0.220 A 
ATOM     20  C   UNL     1      -0.980   1.924   5.555  0.00  0.00    +0.068 A 
ATOM     21  C   UNL     1      -0.553   0.821   6.273  0.00  0.00    +0.019 A 
ATOM     22  C   UNL     1      -1.509  -0.044   6.789  0.00  0.00    +0.073 A 
ATOM     23  C   UNL     1      -2.846   0.218   6.567  0.00  0.00    +0.127 A 
ATOM     24  N   UNL     1      -3.223   1.281   5.883  0.00  0.00    -0.220 NA
BRANCH  22  25
ATOM     25  C   UNL     1      -1.091  -1.259   7.577  0.00  0.00    +0.419 C 
ATOM     26  F   UNL     1      -1.001  -0.927   8.933  0.00  0.00    -0.166 F 
ATOM     27  F   UNL     1       0.155  -1.703   7.122  0.00  0.00    -0.166 F 
ATOM     28  F   UNL     1      -2.038  -2.274   7.407  0.00  0.00    -0.166 F 
ENDBRANCH  22  25
ENDBRANCH  18  19
ENDBRANCH   4  18
TORSDOF 6
