REMARK  Name = ZINC02535056
REMARK  6 active torsions:
REMARK  status: ('A' for Active; 'I' for Inactive)
REMARK    1  A    between atoms: C_1  and  C_2
REMARK    2  A    between atoms: C_3  and  N_18
REMARK    3  A    between atoms: C_4  and  C_17
REMARK    4  A    between atoms: N_5  and  C_7
REMARK    5  A    between atoms: C_7  and  O_8
REMARK    6  A    between atoms: O_8  and  C_9
REMARK                            x       y       z     vdW  Elec       q    Type
REMARK                         _______ _______ _______ _____ _____    ______ ____
ROOT
ATOM      1  C   UNL     1       7.832   5.400   1.586  0.00  0.00    +0.069 C 
ATOM      2  C   UNL     1       6.710   4.926   0.699  0.00  0.00    +0.081 A 
ATOM      3  C   UNL     1       6.711   4.939  -0.703  0.00  0.00    +0.069 A 
ATOM      4  C   UNL     1       5.525   4.433  -1.126  0.00  0.00    +0.061 A 
ATOM      5  N   UNL     1       4.800   4.111  -0.021  0.00  0.00    -0.230 N 
ATOM      6  N   UNL     1       5.566   4.436   1.105  0.00  0.00    -0.171 NA
ATOM      7  C   UNL     1       5.091   4.259  -2.558  0.00  0.00    +0.067 C 
ENDROOT
BRANCH   3   8
ATOM      8  N   UNL     1       7.757   5.397  -1.527  0.00  0.00    -0.355 N 
ATOM      9  H   UNL     1       7.664   5.367  -2.492  0.00  0.00    +0.142 HD
ATOM     10  H   UNL     1       8.571   5.744  -1.129  0.00  0.00    +0.142 HD
ENDBRANCH   3   8
BRANCH   5  11
ATOM     11  C   UNL     1       3.454   3.532  -0.012  0.00  0.00    +0.374 C 
BRANCH  11  12
ATOM     12  O   UNL     1       3.548   2.107  -0.020  0.00  0.00    -0.470 OA
BRANCH  12  13
ATOM     13  C   UNL     1       2.381   1.411  -0.013  0.00  0.00    +0.125 A 
ATOM     14  C   UNL     1       1.169   2.087   0.002  0.00  0.00    +0.047 A 
ATOM     15  C   UNL     1      -0.017   1.379   0.010  0.00  0.00    +0.025 A 
ATOM     16  C   UNL     1       0.002  -0.004   0.002  0.00  0.00    +0.059 A 
ATOM     17  C   UNL     1       1.210  -0.681  -0.013  0.00  0.00    +0.063 A 
ATOM     18  C   UNL     1       2.399   0.024  -0.020  0.00  0.00    +0.067 A 
ATOM     19 CL   UNL     1       1.231  -2.417  -0.023  0.00  0.00    -0.082 Cl
ATOM     20 CL   UNL     1      -1.490  -0.891   0.011  0.00  0.00    -0.082 Cl
ENDBRANCH  12  13
ENDBRANCH  11  12
ENDBRANCH   5  11
TORSDOF 4
