REMARK  Name = ZINC03177393
REMARK  9 active torsions:
REMARK  status: ('A' for Active; 'I' for Inactive)
REMARK    1  A    between atoms: C_1  and  C_2
REMARK    2  A    between atoms: C_5  and  C_8
REMARK    3  A    between atoms: C_8  and  C_32
REMARK    4  A    between atoms: N_12  and  C_24
REMARK    5  A    between atoms: N_14  and  C_15
REMARK    6  A    between atoms: C_18  and  O_21
REMARK    7  A    between atoms: O_21  and  C_22
REMARK    8  A    between atoms: C_27  and  O_30
REMARK    9  A    between atoms: O_30  and  C_31
REMARK                            x       y       z     vdW  Elec       q    Type
REMARK                         _______ _______ _______ _____ _____    ______ ____
ROOT
ATOM      1  C   UNL     1      -7.369  -4.200   0.211  0.00  0.00    +0.210 C 
ATOM      2  N   UNL     1      -6.012  -4.686  -0.038  0.00  0.00    -0.273 N 
ATOM      3  C   UNL     1      -4.932  -3.913  -0.072  0.00  0.00    +0.314 C 
ATOM      4  O   UNL     1      -3.865  -4.478  -0.217  0.00  0.00    -0.252 OA
ATOM      5  N   UNL     1      -4.892  -2.582   0.036  0.00  0.00    -0.203 N 
ATOM      6  C   UNL     1      -6.054  -1.834   0.163  0.00  0.00    +0.171 C 
ATOM      7  N   UNL     1      -6.053  -0.659   0.746  0.00  0.00    -0.225 NA
ATOM      8  S   UNL     1      -7.538  -2.540  -0.504  0.00  0.00    -0.050 S 
ATOM      9  H   UNL     1      -5.893  -5.636  -0.190  0.00  0.00    +0.152 HD
ENDROOT
BRANCH   1  14
ATOM     10  C   UNL     1      -8.326  -3.964   5.905  0.00  0.00    +0.044 C 
ATOM     11  C   UNL     1      -8.077  -4.026   4.420  0.00  0.00    -0.050 A 
ATOM     12  C   UNL     1      -8.794  -3.212   3.564  0.00  0.00    +0.004 A 
ATOM     13  C   UNL     1      -8.566  -3.268   2.202  0.00  0.00    +0.007 A 
ATOM     14  C   UNL     1      -7.618  -4.139   1.696  0.00  0.00    -0.005 A 
ATOM     15  C   UNL     1      -6.904  -4.956   2.551  0.00  0.00    +0.007 A 
ATOM     16  C   UNL     1      -7.130  -4.896   3.914  0.00  0.00    +0.004 A 
ENDBRANCH   1  14
BRANCH   7  17
ATOM     17  C   UNL     1      -7.219   0.054   0.855  0.00  0.00    +0.067 A 
ATOM     18  C   UNL     1      -8.074   0.169  -0.243  0.00  0.00    +0.031 A 
ATOM     19  C   UNL     1      -9.248   0.883  -0.128  0.00  0.00    +0.048 A 
ATOM     20  C   UNL     1      -9.575   1.496   1.073  0.00  0.00    +0.120 A 
ATOM     21  C   UNL     1      -8.726   1.388   2.166  0.00  0.00    +0.048 A 
ATOM     22  C   UNL     1      -7.552   0.671   2.061  0.00  0.00    +0.031 A 
BRANCH  20  23
ATOM     23  O   UNL     1     -10.732   2.203   1.181  0.00  0.00    -0.495 OA
ATOM     24  C   UNL     1     -11.559   2.273   0.018  0.00  0.00    +0.277 C 
ENDBRANCH  20  23
ENDBRANCH   7  17
BRANCH   5  25
ATOM     25  C   UNL     1      -3.650  -1.928   0.027  0.00  0.00    +0.045 A 
ATOM     26  C   UNL     1      -3.120  -1.461  -1.168  0.00  0.00    +0.027 A 
ATOM     27  C   UNL     1      -1.898  -0.818  -1.176  0.00  0.00    +0.047 A 
ATOM     28  C   UNL     1      -1.201  -0.638   0.010  0.00  0.00    +0.120 A 
ATOM     29  C   UNL     1      -1.728  -1.109   1.203  0.00  0.00    +0.047 A 
ATOM     30  C   UNL     1      -2.952  -1.748   1.213  0.00  0.00    +0.027 A 
BRANCH  28  31
ATOM     31  O   UNL     1       0.003  -0.005   0.001  0.00  0.00    -0.495 OA
ATOM     32  C   UNL     1       0.665   0.146   1.258  0.00  0.00    +0.277 C 
ENDBRANCH  28  31
ENDBRANCH   5  25
BRANCH   1  33
ATOM     33  C   UNL     1      -8.379  -5.145  -0.443  0.00  0.00    +0.425 C 
ATOM     34  F   UNL     1      -8.237  -6.427   0.099  0.00  0.00    -0.167 F 
ATOM     35  F   UNL     1      -9.677  -4.679  -0.203  0.00  0.00    -0.167 F 
ATOM     36  F   UNL     1      -8.149  -5.194  -1.822  0.00  0.00    -0.167 F 
ENDBRANCH   1  33
TORSDOF 6
