REMARK  Name = ZINC19357218
REMARK  13 active torsions:
REMARK  status: ('A' for Active; 'I' for Inactive)
REMARK    1  A    between atoms: C_1  and  C_2
REMARK    2  A    between atoms: C_2  and  C_3
REMARK    3  A    between atoms: C_2  and  C_4
REMARK    4  A    between atoms: C_4  and  C_6
REMARK    5  A    between atoms: C_4  and  N_25
REMARK    6  A    between atoms: C_6  and  O_8
REMARK    7  A    between atoms: O_8  and  C_9
REMARK    8  A    between atoms: C_9  and  C_10
REMARK    9  A    between atoms: N_12  and  C_13
REMARK   10  A    between atoms: C_13  and  C_14
REMARK   11  A    between atoms: N_16  and  C_17
REMARK   12  A    between atoms: N_25  and  S_26
REMARK   13  A    between atoms: S_26  and  C_29
REMARK                            x       y       z     vdW  Elec       q    Type
REMARK                         _______ _______ _______ _____ _____    ______ ____
ROOT
ATOM      1  O   UNL     1       6.078   1.288   0.387  0.00  0.00    -0.454 OA
ENDROOT
BRANCH   1   2
ATOM      2  C   UNL     1       7.201   0.574   0.213  0.00  0.00    +0.327 C 
ATOM      3  O   UNL     1       7.136  -0.618   0.025  0.00  0.00    -0.249 OA
BRANCH   2   4
ATOM      4  C   UNL     1       8.543   1.259   0.250  0.00  0.00    +0.187 C 
BRANCH   4   6
ATOM      5  C   UNL     1       8.288   1.674  -2.200  0.00  0.00    +0.009 C 
ATOM      6  C   UNL     1       8.605   2.320  -0.850  0.00  0.00    +0.012 C 
ATOM      7  C   UNL     1       7.582   3.419  -0.557  0.00  0.00    +0.009 C 
ENDBRANCH   4   6
BRANCH   4   8
ATOM      8  N   UNL     1       9.602   0.270   0.035  0.00  0.00    -0.176 NA
ATOM      9  H   UNL     1       9.389  -0.652  -0.526  0.00  0.00    +0.149 HD
BRANCH   8  10
ATOM     10  S   UNL     1      11.044   0.413   0.837  0.00  0.00    +0.059 S 
ATOM     11  O   UNL     1      11.821  -0.723   0.482  0.00  0.00    -0.153 OA
ATOM     12  O   UNL     1      11.498   1.742   0.624  0.00  0.00    -0.153 OA
BRANCH  10  13
ATOM     13  C   UNL     1      10.699   0.269   2.559  0.00  0.00    +0.105 A 
ATOM     14  C   UNL     1      10.414   1.398   3.304  0.00  0.00    +0.028 A 
ATOM     15  C   UNL     1      10.138   1.285   4.653  0.00  0.00    +0.002 A 
ATOM     16  C   UNL     1      10.157   0.043   5.261  0.00  0.00    +0.000 A 
ATOM     17  C   UNL     1      10.448  -1.085   4.518  0.00  0.00    +0.002 A 
ATOM     18  C   UNL     1      10.719  -0.973   3.167  0.00  0.00    +0.028 A 
ENDBRANCH  10  13
ENDBRANCH   8  10
ENDBRANCH   4   8
ENDBRANCH   2   4
ENDBRANCH   1   2
BRANCH   1  19
ATOM     19  C   UNL     1       4.822   0.563   0.338  0.00  0.00    +0.327 C 
BRANCH  19  20
ATOM     20  C   UNL     1       3.679   1.522   0.553  0.00  0.00    +0.251 C 
ATOM     21  O   UNL     1       3.902   2.701   0.730  0.00  0.00    -0.272 OA
ATOM     22  N   UNL     1       2.410   1.070   0.549  0.00  0.00    -0.304 N 
ATOM     23  H   UNL     1       2.207   0.000   0.388  0.00  0.00    +0.149 HD
BRANCH  22  24
ATOM     24  C   UNL     1       1.299   2.002   0.758  0.00  0.00    +0.200 C 
BRANCH  24  25
ATOM     25  C   UNL     1      -0.005   1.249   0.707  0.00  0.00    +0.234 C 
ATOM     26  O   UNL     1      -0.007   0.051   0.515  0.00  0.00    -0.274 OA
ATOM     27  N   UNL     1      -1.170   1.907   0.869  0.00  0.00    -0.284 N 
ATOM     28  H   UNL     1      -1.166   2.979   1.117  0.00  0.00    +0.155 HD
BRANCH  27  29
ATOM     29  C   UNL     1      -2.385   1.227   0.722  0.00  0.00    +0.036 A 
ATOM     30  C   UNL     1      -3.482   1.875   0.169  0.00  0.00    +0.026 A 
ATOM     31  C   UNL     1      -4.679   1.202   0.019  0.00  0.00    +0.043 A 
ATOM     32  C   UNL     1      -4.789  -0.116   0.429  0.00  0.00    +0.159 A 
ATOM     33  C   UNL     1      -3.697  -0.764   0.987  0.00  0.00    +0.160 A 
ATOM     34  C   UNL     1      -2.496  -0.094   1.133  0.00  0.00    +0.064 A 
ATOM     35  F   UNL     1      -3.807  -2.050   1.387  0.00  0.00    -0.202 F 
ATOM     36  F   UNL     1      -5.962  -0.771   0.286  0.00  0.00    -0.202 F 
ENDBRANCH  27  29
ENDBRANCH  24  25
ENDBRANCH  22  24
ENDBRANCH  19  20
ENDBRANCH   1  19
TORSDOF 11
