REMARK  Name = ZINC16150939
REMARK  7 active torsions:
REMARK  status: ('A' for Active; 'I' for Inactive)
REMARK    1  A    between atoms: C_4  and  N_21
REMARK    2  A    between atoms: C_5  and  C_7
REMARK    3  A    between atoms: N_9  and  N_10
REMARK    4  A    between atoms: N_10  and  S_11
REMARK    5  A    between atoms: S_11  and  C_14
REMARK    6  A    between atoms: N_21  and  S_22
REMARK    7  A    between atoms: S_22  and  C_25
REMARK                            x       y       z     vdW  Elec       q    Type
REMARK                         _______ _______ _______ _____ _____    ______ ____
ROOT
ATOM      1  C   UNL     1       1.276   3.269  -0.504  0.00  0.00    +0.001 A 
ATOM      2  C   UNL     1       0.132   4.042  -0.391  0.00  0.00    +0.002 A 
ATOM      3  C   UNL     1      -1.099   3.445  -0.213  0.00  0.00    +0.025 A 
ATOM      4  C   UNL     1      -1.199   2.061  -0.152  0.00  0.00    +0.060 A 
ATOM      5  C   UNL     1      -0.041   1.275  -0.261  0.00  0.00    +0.060 A 
ATOM      6  C   UNL     1       1.198   1.895  -0.441  0.00  0.00    +0.015 A 
ENDROOT
BRANCH   5   7
ATOM      7  C   UNL     1      -0.132  -0.195  -0.192  0.00  0.00    +0.261 C 
ATOM      8  O   UNL     1      -1.213  -0.730  -0.035  0.00  0.00    -0.269 OA
ATOM      9  N   UNL     1       0.982  -0.945  -0.302  0.00  0.00    -0.228 N 
ATOM     10  H   UNL     1       1.844  -0.517  -0.427  0.00  0.00    +0.171 HD
BRANCH   9  11
ATOM     11  N   UNL     1       0.895  -2.341  -0.237  0.00  0.00    -0.108 NA
ATOM     12  H   UNL     1       0.474  -2.766   0.527  0.00  0.00    +0.172 HD
BRANCH  11  13
ATOM     13  S   UNL     1       1.512  -3.268  -1.463  0.00  0.00    +0.074 S 
ATOM     14  O   UNL     1       1.404  -4.621  -1.044  0.00  0.00    -0.152 OA
ATOM     15  O   UNL     1       0.923  -2.794  -2.666  0.00  0.00    -0.152 OA
BRANCH  13  16
ATOM     16  C   UNL     1       3.234  -2.910  -1.571  0.00  0.00    +0.110 A 
ATOM     17  C   UNL     1       3.679  -1.894  -2.397  0.00  0.00    +0.029 A 
ATOM     18  C   UNL     1       5.029  -1.609  -2.479  0.00  0.00    +0.005 A 
ATOM     19  C   UNL     1       5.937  -2.346  -1.742  0.00  0.00    +0.038 A 
ATOM     20  C   UNL     1       5.494  -3.366  -0.918  0.00  0.00    +0.125 A 
ATOM     21  C   UNL     1       4.140  -3.647  -0.833  0.00  0.00    +0.067 A 
ATOM     22  F   UNL     1       6.381  -4.087  -0.198  0.00  0.00    -0.205 F 
ENDBRANCH  13  16
ENDBRANCH  11  13
ENDBRANCH   9  11
ENDBRANCH   5   7
BRANCH   4  23
ATOM     23  N   UNL     1      -2.438   1.457   0.021  0.00  0.00    -0.215 N 
ATOM     24  H   UNL     1      -2.514   0.649   0.553  0.00  0.00    +0.174 HD
BRANCH  23  25
ATOM     25  S   UNL     1      -3.786   2.116  -0.680  0.00  0.00    +0.079 S 
ATOM     26  O   UNL     1      -4.854   1.210  -0.438  0.00  0.00    -0.149 OA
ATOM     27  O   UNL     1      -3.833   3.476  -0.271  0.00  0.00    -0.149 OA
BRANCH  25  28
ATOM     28  C   UNL     1      -3.516   2.123  -2.421  0.00  0.00    +0.146 A 
ATOM     29  C   UNL     1      -3.817   1.168  -3.335  0.00  0.00    +0.036 A 
ATOM     30  C   UNL     1      -3.511   1.392  -4.665  0.00  0.00    +0.010 A 
ATOM     31  C   UNL     1      -2.919   2.560  -5.015  0.00  0.00    +0.047 A 
ATOM     32  S   UNL     1      -2.783   3.392  -3.441  0.00  0.00    -0.077 S 
ENDBRANCH  25  28
ENDBRANCH  23  25
ENDBRANCH   4  23
TORSDOF 7
