REMARK  Name = ZINC16972759
REMARK  5 active torsions:
REMARK  status: ('A' for Active; 'I' for Inactive)
REMARK    1  A    between atoms: C_10  and  S_11
REMARK    2  A    between atoms: S_11  and  N_14
REMARK    3  A    between atoms: N_14  and  C_15
REMARK    4  A    between atoms: C_15  and  C_16
REMARK    5  A    between atoms: C_16  and  C_22
REMARK                            x       y       z     vdW  Elec       q    Type
REMARK                         _______ _______ _______ _____ _____    ______ ____
ROOT
ATOM      1  N   UNL     1      -0.238   4.318   2.235  0.00  0.00    -0.189 NA
ATOM      2  H   UNL     1       0.335   3.983   2.942  0.00  0.00    +0.148 HD
ENDROOT
BRANCH   1   3
ATOM      3  S   UNL     1      -1.192   3.271   1.376  0.00  0.00    +0.059 S 
ATOM      4  O   UNL     1      -2.509   3.803   1.408  0.00  0.00    -0.153 OA
ATOM      5  O   UNL     1      -0.886   1.965   1.846  0.00  0.00    -0.153 OA
BRANCH   3  15
ATOM      6  C   UNL     1       3.171   2.082  -1.395  0.00  0.00    +0.001 A 
ATOM      7  C   UNL     1       2.769   2.020  -0.062  0.00  0.00    +0.001 A 
ATOM      8  C   UNL     1       1.526   2.425   0.315  0.00  0.00    +0.010 A 
ATOM      9  C   UNL     1       0.631   2.913  -0.653  0.00  0.00    +0.008 A 
ATOM     10  C   UNL     1       1.042   2.981  -2.008  0.00  0.00    -0.016 A 
ATOM     11  C   UNL     1       2.332   2.549  -2.359  0.00  0.00    +0.008 A 
ATOM     12  C   UNL     1       0.149   3.474  -2.974  0.00  0.00    +0.008 A 
ATOM     13  C   UNL     1      -1.093   3.884  -2.597  0.00  0.00    +0.003 A 
ATOM     14  C   UNL     1      -1.495   3.821  -1.264  0.00  0.00    +0.029 A 
ATOM     15  C   UNL     1      -0.661   3.340  -0.302  0.00  0.00    +0.113 A 
ENDBRANCH   3  15
ENDBRANCH   1   3
BRANCH   1  16
ATOM     16  C   UNL     1      -0.259   5.750   1.925  0.00  0.00    +0.117 C 
BRANCH  16  17
ATOM     17  C   UNL     1       0.397   6.528   3.068  0.00  0.00    +0.014 C 
ATOM     18  C   UNL     1       0.341   8.028   2.763  0.00  0.00    +0.041 C 
ATOM     19  C   UNL     1       1.155   8.313   1.496  0.00  0.00    +0.160 C 
ATOM     20  O   UNL     1       2.498   7.861   1.681  0.00  0.00    -0.380 OA
ATOM     21  C   UNL     1       2.614   6.457   1.923  0.00  0.00    +0.160 C 
ATOM     22  C   UNL     1       1.861   6.098   3.207  0.00  0.00    +0.041 C 
BRANCH  17  23
ATOM     23  C   UNL     1      -0.336   6.247   4.354  0.00  0.00    -0.040 A 
ATOM     24  C   UNL     1       0.350   5.744   5.444  0.00  0.00    +0.005 A 
ATOM     25  C   UNL     1      -0.320   5.492   6.626  0.00  0.00    +0.020 A 
ATOM     26  C   UNL     1      -1.679   5.732   6.715  0.00  0.00    +0.041 A 
ATOM     27  C   UNL     1      -2.366   6.230   5.623  0.00  0.00    +0.020 A 
ATOM     28  C   UNL     1      -1.694   6.487   4.443  0.00  0.00    +0.005 A 
ATOM     29 CL   UNL     1      -2.523   5.409   8.198  0.00  0.00    -0.084 Cl
ENDBRANCH  17  23
ENDBRANCH  16  17
ENDBRANCH   1  16
TORSDOF 5
