REMARK  Name = ZINC17169742
REMARK  8 active torsions:
REMARK  status: ('A' for Active; 'I' for Inactive)
REMARK    1  A    between atoms: C_3  and  C_6
REMARK    2  A    between atoms: C_6  and  C_8
REMARK    3  A    between atoms: C_6  and  S_25
REMARK    4  A    between atoms: C_8  and  N_9
REMARK    5  A    between atoms: C_10  and  C_12
REMARK    6  A    between atoms: N_14  and  C_15
REMARK    7  A    between atoms: C_15  and  C_16
REMARK    8  A    between atoms: S_25  and  C_28
REMARK                            x       y       z     vdW  Elec       q    Type
REMARK                         _______ _______ _______ _____ _____    ______ ____
ROOT
ATOM      1  N   UNL     1       9.622  -1.824   0.766  0.00  0.00    -0.305 N 
ATOM      2  C   UNL     1       8.318  -1.661   0.466  0.00  0.00    +0.299 C 
ATOM      3  O   UNL     1       7.927  -1.860  -0.665  0.00  0.00    -0.265 OA
ATOM      4  H   UNL     1       9.935  -1.665   1.671  0.00  0.00    +0.149 HD
ENDROOT
BRANCH   2   5
ATOM      5  C   UNL     1       7.355  -1.236   1.526  0.00  0.00    +0.299 C 
ATOM      6  O   UNL     1       7.746  -1.037   2.658  0.00  0.00    -0.265 OA
ATOM      7  N   UNL     1       6.051  -1.073   1.226  0.00  0.00    -0.303 N 
ATOM      8  H   UNL     1       5.738  -1.231   0.322  0.00  0.00    +0.149 HD
BRANCH   7   9
ATOM      9  C   UNL     1       5.107  -0.655   2.265  0.00  0.00    +0.140 C 
BRANCH   9  10
ATOM     10  C   UNL     1       3.725  -0.548   1.674  0.00  0.00    -0.027 A 
ATOM     11  C   UNL     1       2.885  -1.646   1.677  0.00  0.00    +0.009 A 
ATOM     12  C   UNL     1       1.617  -1.553   1.135  0.00  0.00    +0.050 A 
ATOM     13  C   UNL     1       1.183  -0.356   0.589  0.00  0.00    +0.166 A 
ATOM     14  C   UNL     1       2.028   0.751   0.586  0.00  0.00    +0.167 A 
ATOM     15  C   UNL     1       3.298   0.650   1.131  0.00  0.00    +0.054 A 
ATOM     16  O   UNL     1       1.376   1.797  -0.001  0.00  0.00    -0.453 OA
ATOM     17  C   UNL     1      -0.018   1.436   0.010  0.00  0.00    +0.466 C 
ATOM     18  O   UNL     1       0.002  -0.004   0.002  0.00  0.00    -0.453 OA
ENDBRANCH   9  10
ENDBRANCH   7   9
ENDBRANCH   2   5
BRANCH   1  19
ATOM     19  C   UNL     1      10.567  -2.241  -0.273  0.00  0.00    +0.139 C 
BRANCH  19  20
ATOM     20  C   UNL     1      11.970  -2.350   0.327  0.00  0.00    +0.218 C 
BRANCH  20  23
ATOM     21  C   UNL     1      14.452  -3.901  -1.913  0.00  0.00    +0.041 A 
ATOM     22  C   UNL     1      13.696  -3.893  -0.718  0.00  0.00    +0.047 A 
ATOM     23  C   UNL     1      12.941  -2.780  -0.742  0.00  0.00    +0.131 A 
ATOM     24  O   UNL     1      13.205  -2.112  -1.877  0.00  0.00    -0.466 OA
ATOM     25  C   UNL     1      14.120  -2.788  -2.591  0.00  0.00    +0.195 A 
ENDBRANCH  20  23
BRANCH  20  26
ATOM     26  S   UNL     1      12.472  -0.738   0.989  0.00  0.00    +0.008 S 
ATOM     27  O   UNL     1      12.544   0.220  -0.059  0.00  0.00    -0.169 OA
ATOM     28  O   UNL     1      11.755  -0.453   2.182  0.00  0.00    -0.169 OA
BRANCH  26  29
ATOM     29  C   UNL     1      14.140  -0.962   1.510  0.00  0.00    +0.089 A 
ATOM     30  C   UNL     1      14.412  -1.370   2.802  0.00  0.00    +0.028 A 
ATOM     31  C   UNL     1      15.720  -1.552   3.209  0.00  0.00    +0.022 A 
ATOM     32  C   UNL     1      16.758  -1.313   2.327  0.00  0.00    +0.041 A 
ATOM     33  C   UNL     1      16.486  -0.898   1.035  0.00  0.00    +0.022 A 
ATOM     34  C   UNL     1      15.177  -0.723   0.627  0.00  0.00    +0.028 A 
ATOM     35 CL   UNL     1      18.402  -1.534   2.840  0.00  0.00    -0.084 Cl
ENDBRANCH  26  29
ENDBRANCH  20  26
ENDBRANCH  19  20
ENDBRANCH   1  19
TORSDOF 8
