REMARK  Name = ZINC63237156
REMARK  8 active torsions:
REMARK  status: ('A' for Active; 'I' for Inactive)
REMARK    1  A    between atoms: C_1  and  O_2
REMARK    2  A    between atoms: O_2  and  C_3
REMARK    3  A    between atoms: C_5  and  C_13
REMARK    4  A    between atoms: C_7  and  O_11
REMARK    5  A    between atoms: C_8  and  O_9
REMARK    6  A    between atoms: O_9  and  C_10
REMARK    7  A    between atoms: O_11  and  C_12
REMARK    8  A    between atoms: C_25  and  C_29
REMARK                            x       y       z     vdW  Elec       q    Type
REMARK                         _______ _______ _______ _____ _____    ______ ____
ROOT
ATOM      1  C   UNL     1       2.402   0.386  -4.230  0.00  0.00    +0.111 C 
ATOM      2  C   UNL     1       3.917   0.461  -4.032  0.00  0.00    +0.128 C 
ATOM      3  C   UNL     1       4.473   1.173  -5.259  0.00  0.00    -0.028 C 
ATOM      4  C   UNL     1       5.194   2.191  -4.808  0.00  0.00    -0.000 A 
ATOM      5  C   UNL     1       6.036   3.180  -5.500  0.00  0.00    +0.010 A 
ATOM      6  C   UNL     1       6.633   4.114  -4.713  0.00  0.00    +0.001 A 
ATOM      7  C   UNL     1       6.479   4.162  -3.324  0.00  0.00    +0.002 A 
ATOM      8  C   UNL     1       5.729   3.289  -2.605  0.00  0.00    +0.026 A 
ATOM      9  C   UNL     1       5.055   2.258  -3.321  0.00  0.00    +0.043 A 
ATOM     10  N   UNL     1       4.294   1.276  -2.878  0.00  0.00    -0.376 N 
ATOM     11  C   UNL     1       4.101   0.747  -6.659  0.00  0.00    +0.063 C 
ATOM     12  C   UNL     1       2.569   0.596  -6.668  0.00  0.00    +0.094 C 
ATOM     13  N   UNL     1       2.136  -0.232  -5.539  0.00  0.00    -0.307 NA
ATOM     14  H   UNL     1       2.540  -1.155  -5.592  0.00  0.00    +0.123 HD
ATOM     15  H   UNL     1       4.025   1.118  -1.959  0.00  0.00    +0.160 HD
ENDROOT
BRANCH  11  16
ATOM     16  C   UNL     1       4.527   1.798  -7.651  0.00  0.00    -0.021 A 
ATOM     17  C   UNL     1       4.025   3.083  -7.554  0.00  0.00    +0.007 A 
ATOM     18  C   UNL     1       4.415   4.048  -8.463  0.00  0.00    +0.020 A 
ATOM     19  C   UNL     1       5.307   3.729  -9.472  0.00  0.00    +0.042 A 
ATOM     20  C   UNL     1       5.809   2.444  -9.569  0.00  0.00    +0.040 A 
ATOM     21  C   UNL     1       5.423   1.480  -8.655  0.00  0.00    +0.046 A 
ATOM     22 CL   UNL     1       6.057  -0.132  -8.773  0.00  0.00    -0.083 Cl
ATOM     23 CL   UNL     1       5.796   4.941 -10.614  0.00  0.00    -0.083 Cl
ENDBRANCH  11  16
BRANCH   1  26
ATOM     24  C   UNL     1       0.606  -0.608  -1.056  0.00  0.00    +0.165 A 
ATOM     25  C   UNL     1       1.173   0.160  -2.063  0.00  0.00    +0.055 A 
ATOM     26  C   UNL     1       1.787  -0.452  -3.139  0.00  0.00    -0.021 A 
ATOM     27  C   UNL     1       1.839  -1.831  -3.217  0.00  0.00    +0.055 A 
ATOM     28  C   UNL     1       1.275  -2.606  -2.215  0.00  0.00    +0.165 A 
ATOM     29  C   UNL     1       0.661  -1.994  -1.128  0.00  0.00    +0.204 A 
BRANCH  24  31
ATOM     30  C   UNL     1      -0.017   1.425   0.010  0.00  0.00    +0.277 C 
ATOM     31  O   UNL     1       0.002  -0.004   0.002  0.00  0.00    -0.491 OA
ENDBRANCH  24  31
BRANCH  29  32
ATOM     32  O   UNL     1       0.111  -2.751  -0.140  0.00  0.00    -0.488 OA
ATOM     33  C   UNL     1      -1.260  -3.124  -0.295  0.00  0.00    +0.277 C 
ENDBRANCH  29  32
BRANCH  28  34
ATOM     34  O   UNL     1       1.326  -3.963  -2.293  0.00  0.00    -0.491 OA
ATOM     35  C   UNL     1       1.977  -4.523  -3.435  0.00  0.00    +0.277 C 
ENDBRANCH  28  34
ENDBRANCH   1  26
TORSDOF 5
