REMARK  Name = ZINC60355021
REMARK  7 active torsions:
REMARK  status: ('A' for Active; 'I' for Inactive)
REMARK    1  A    between atoms: C_1  and  C_2
REMARK    2  A    between atoms: C_5  and  C_7
REMARK    3  A    between atoms: C_7  and  C_9
REMARK    4  A    between atoms: C_7  and  N_29
REMARK    5  A    between atoms: C_9  and  N_10
REMARK    6  A    between atoms: C_11  and  C_13
REMARK    7  A    between atoms: C_19  and  C_21
REMARK                            x       y       z     vdW  Elec       q    Type
REMARK                         _______ _______ _______ _____ _____    ______ ____
ROOT
ATOM      1  N   UNL     1       3.242  -4.567  -1.195  0.00  0.00    -0.315 N 
ATOM      2  C   UNL     1       3.918  -4.866  -2.321  0.00  0.00    +0.234 C 
ATOM      3  O   UNL     1       3.591  -4.365  -3.376  0.00  0.00    -0.274 OA
ATOM      4  H   UNL     1       3.504  -4.967  -0.351  0.00  0.00    +0.149 HD
ENDROOT
BRANCH   2   5
ATOM      5  C   UNL     1       5.081  -5.823  -2.271  0.00  0.00    +0.162 C 
ATOM      6  C   UNL     1       4.600  -7.209  -1.793  0.00  0.00    +0.033 C 
ATOM      7  C   UNL     1       4.404  -7.986  -3.122  0.00  0.00    +0.021 C 
ATOM      8  C   UNL     1       5.560  -7.421  -3.985  0.00  0.00    +0.109 C 
ATOM      9  N   UNL     1       5.648  -5.993  -3.616  0.00  0.00    -0.286 N 
ATOM     10  C   UNL     1       6.159  -5.010  -4.384  0.00  0.00    +0.247 C 
ATOM     11  O   UNL     1       6.089  -3.854  -4.017  0.00  0.00    -0.270 OA
BRANCH  10  12
ATOM     12  C   UNL     1       6.804  -5.339  -5.673  0.00  0.00    +0.040 A 
ATOM     13  C   UNL     1       6.902  -4.371  -6.674  0.00  0.00    +0.033 A 
ATOM     14  C   UNL     1       7.505  -4.684  -7.876  0.00  0.00    +0.043 A 
ATOM     15  C   UNL     1       8.013  -5.955  -8.089  0.00  0.00    +0.040 A 
ATOM     16  C   UNL     1       7.918  -6.919  -7.100  0.00  0.00    +0.043 A 
ATOM     17  C   UNL     1       7.322  -6.616  -5.892  0.00  0.00    +0.033 A 
ATOM     18 CL   UNL     1       8.556  -8.509  -7.377  0.00  0.00    -0.083 Cl
ATOM     19 CL   UNL     1       7.628  -3.482  -9.123  0.00  0.00    -0.083 Cl
ENDBRANCH  10  12
ENDBRANCH   2   5
BRANCH   1  20
ATOM     20  C   UNL     1       2.111  -3.637  -1.244  0.00  0.00    +0.096 C 
BRANCH  20  21
ATOM     21  C   UNL     1       1.602  -3.376   0.175  0.00  0.00    +0.016 C 
BRANCH  21  26
ATOM     22  C   UNL     1      -1.577  -7.167   1.158  0.00  0.00    +0.086 C 
ATOM     23  C   UNL     1      -0.345  -6.298   1.175  0.00  0.00    +0.102 A 
ATOM     24  C   UNL     1       0.777  -6.540   1.877  0.00  0.00    +0.044 A 
ATOM     25  C   UNL     1       1.668  -5.477   1.601  0.00  0.00    +0.043 A 
ATOM     26  C   UNL     1       1.037  -4.651   0.748  0.00  0.00    +0.093 A 
ATOM     27  O   UNL     1      -0.180  -5.156   0.489  0.00  0.00    -0.466 OA
ENDBRANCH  21  26
BRANCH  21  28
ATOM     28  N   UNL     1       0.553  -2.349   0.138  0.00  0.00    +0.387 N 
ATOM     29  C   UNL     1       0.181  -1.948   1.519  0.00  0.00    -0.078 C 
ATOM     30  C   UNL     1      -0.454  -0.548   1.323  0.00  0.00    -0.020 C 
ATOM     31  C   UNL     1       0.419   0.075   0.209  0.00  0.00    -0.020 C 
ATOM     32  C   UNL     1       1.063  -1.123  -0.514  0.00  0.00    -0.078 C 
ATOM     33  H   UNL     1      -0.256  -2.694  -0.355  0.00  0.00    -0.081 HD
ENDBRANCH  21  28
ENDBRANCH  20  21
ENDBRANCH   1  20
TORSDOF 6
