REMARK  Name = ZINC21897547
REMARK  5 active torsions:
REMARK  status: ('A' for Active; 'I' for Inactive)
REMARK    1  A    between atoms: C_7  and  C_11
REMARK    2  A    between atoms: C_11  and  C_12
REMARK    3  A    between atoms: C_12  and  C_14
REMARK    4  A    between atoms: C_12  and  N_23
REMARK    5  A    between atoms: C_24  and  C_26
REMARK                            x       y       z     vdW  Elec       q    Type
REMARK                         _______ _______ _______ _____ _____    ______ ____
ROOT
ATOM      1  C   UNL     1      -3.398   3.304   2.154  0.00  0.00    +0.164 C 
ENDROOT
BRANCH   1   2
ATOM      2  C   UNL     1      -3.582   2.754   0.763  0.00  0.00    +0.236 C 
ATOM      3  O   UNL     1      -4.304   3.326  -0.025  0.00  0.00    -0.274 OA
ATOM      4  N   UNL     1      -2.943   1.626   0.395  0.00  0.00    -0.300 N 
ATOM      5  C   UNL     1      -2.089   0.967   1.358  0.00  0.00    +0.108 C 
ATOM      6  C   UNL     1      -0.655   1.537   1.252  0.00  0.00    +0.019 C 
ATOM      7  C   UNL     1      -0.013   1.086   0.008  0.00  0.00    +0.002 C 
ATOM      8  C   UNL     1      -0.704   1.568  -1.264  0.00  0.00    +0.002 C 
ATOM      9  C   UNL     1      -1.829   0.625  -1.610  0.00  0.00    +0.019 C 
ATOM     10  C   UNL     1      -3.143   1.114  -0.975  0.00  0.00    +0.108 C 
ENDBRANCH   1   2
BRANCH   1  11
ATOM     11  N   UNL     1      -3.774   4.720   2.173  0.00  0.00    -0.299 N 
ATOM     12  C   UNL     1      -5.026   5.089   1.839  0.00  0.00    +0.251 C 
ATOM     13  O   UNL     1      -5.845   4.247   1.522  0.00  0.00    -0.270 OA
ATOM     14  H   UNL     1      -3.034   5.481   2.459  0.00  0.00    +0.150 HD
BRANCH  12  15
ATOM     15  C   UNL     1      -5.402   6.506   1.858  0.00  0.00    +0.074 A 
ATOM     16  C   UNL     1      -6.621   7.091   1.553  0.00  0.00    +0.021 A 
ATOM     17  C   UNL     1      -6.702   8.457   1.655  0.00  0.00    +0.008 A 
ATOM     18  C   UNL     1      -5.605   9.160   2.041  0.00  0.00    +0.046 A 
ATOM     19  S   UNL     1      -4.411   7.927   2.286  0.00  0.00    -0.092 S 
ENDBRANCH  12  15
ENDBRANCH   1  11
BRANCH   1  20
ATOM     20  C   UNL     1      -4.285   2.528   3.130  0.00  0.00    +0.069 C 
BRANCH  20  27
ATOM     21  C   UNL     1      -5.924   6.087   5.704  0.00  0.00    +0.001 A 
ATOM     22  C   UNL     1      -5.376   6.129   6.979  0.00  0.00    +0.002 A 
ATOM     23  C   UNL     1      -4.451   5.189   7.378  0.00  0.00    +0.026 A 
ATOM     24  C   UNL     1      -4.061   4.187   6.497  0.00  0.00    +0.047 A 
ATOM     25  C   UNL     1      -4.619   4.148   5.206  0.00  0.00    +0.003 A 
ATOM     26  C   UNL     1      -5.554   5.111   4.822  0.00  0.00    +0.010 A 
ATOM     27  C   UNL     1      -4.012   2.995   4.537  0.00  0.00    -0.020 A 
ATOM     28  C   UNL     1      -3.171   2.429   5.417  0.00  0.00    +0.087 A 
ATOM     29  N   UNL     1      -3.182   3.130   6.591  0.00  0.00    -0.360 N 
ATOM     30  H   UNL     1      -2.621   2.964   7.522  0.00  0.00    +0.165 HD
ENDBRANCH  20  27
ENDBRANCH   1  20
TORSDOF 5
