REMARK  Name = ZINC59044117
REMARK  9 active torsions:
REMARK  status: ('A' for Active; 'I' for Inactive)
REMARK    1  A    between atoms: C_4  and  S_24
REMARK    2  A    between atoms: C_5  and  N_7
REMARK    3  A    between atoms: C_8  and  C_10
REMARK    4  A    between atoms: C_10  and  S_11
REMARK    5  A    between atoms: S_11  and  C_12
REMARK    6  A    between atoms: C_15  and  C_18
REMARK    7  A    between atoms: N_16  and  N_17
REMARK    8  A    between atoms: S_24  and  C_25
REMARK    9  A    between atoms: C_25  and  C_26
REMARK                            x       y       z     vdW  Elec       q    Type
REMARK                         _______ _______ _______ _____ _____    ______ ____
ROOT
ATOM      1  N   UNL     1       0.984  -1.977   0.023  0.00  0.00    -0.284 N 
ATOM      2  C   UNL     1      -0.136  -2.719   0.121  0.00  0.00    +0.228 C 
ATOM      3  O   UNL     1      -1.223  -2.179   0.130  0.00  0.00    -0.275 OA
ATOM      4  H   UNL     1       1.847  -2.410  -0.067  0.00  0.00    +0.155 HD
ENDROOT
BRANCH   1   9
ATOM      5  C   UNL     1      -0.250   1.423   0.698  0.00  0.00    +0.002 A 
ATOM      6  C   UNL     1       0.741   2.188   0.110  0.00  0.00    +0.001 A 
ATOM      7  C   UNL     1       1.815   1.578  -0.509  0.00  0.00    +0.016 A 
ATOM      8  C   UNL     1       1.902   0.194  -0.541  0.00  0.00    +0.029 A 
ATOM      9  C   UNL     1       0.903  -0.578   0.052  0.00  0.00    +0.047 A 
ATOM     10  C   UNL     1      -0.172   0.043   0.671  0.00  0.00    +0.024 A 
BRANCH   8  11
ATOM     11  S   UNL     1       3.270  -0.588  -1.330  0.00  0.00    -0.119 S 
BRANCH  11  12
ATOM     12  C   UNL     1       4.276   0.795  -1.936  0.00  0.00    +0.109 C 
BRANCH  12  13
ATOM     13  C   UNL     1       5.495   0.259  -2.641  0.00  0.00    -0.037 A 
ATOM     14  C   UNL     1       6.656   0.021  -1.930  0.00  0.00    +0.006 A 
ATOM     15  C   UNL     1       7.774  -0.470  -2.576  0.00  0.00    +0.020 A 
ATOM     16  C   UNL     1       7.732  -0.725  -3.935  0.00  0.00    +0.041 A 
ATOM     17  C   UNL     1       6.569  -0.487  -4.647  0.00  0.00    +0.020 A 
ATOM     18  C   UNL     1       5.450  -0.001  -3.998  0.00  0.00    +0.006 A 
ATOM     19 CL   UNL     1       9.136  -1.343  -4.748  0.00  0.00    -0.084 Cl
ENDBRANCH  12  13
ENDBRANCH  11  12
ENDBRANCH   8  11
ENDBRANCH   1   9
BRANCH   2  20
ATOM     20  C   UNL     1      -0.040  -4.220   0.220  0.00  0.00    +0.173 C 
BRANCH  20  21
ATOM     21  S   UNL     1      -1.706  -4.926   0.338  0.00  0.00    -0.075 S 
BRANCH  21  22
ATOM     22  C   UNL     1      -1.426  -6.663   0.445  0.00  0.00    +0.209 A 
ATOM     23  N   UNL     1      -0.259  -7.266   0.443  0.00  0.00    -0.121 NA
ATOM     24  N   UNL     1      -0.418  -8.538   0.535  0.00  0.00    -0.127 NA
ATOM     25  C   UNL     1      -1.698  -8.825   0.601  0.00  0.00    +0.183 A 
ATOM     26  N   UNL     1      -2.382  -7.633   0.551  0.00  0.00    -0.224 N 
BRANCH  25  27
ATOM     27  C   UNL     1      -2.291 -10.174   0.714  0.00  0.00    +0.039 A 
ATOM     28  C   UNL     1      -3.630 -10.395   0.370  0.00  0.00    +0.014 A 
ATOM     29  C   UNL     1      -4.136 -11.676   0.493  0.00  0.00    +0.020 A 
ATOM     30  C   UNL     1      -3.311 -12.690   0.947  0.00  0.00    +0.111 A 
ATOM     31  N   UNL     1      -2.053 -12.453   1.264  0.00  0.00    -0.263 NA
ATOM     32  C   UNL     1      -1.523 -11.252   1.159  0.00  0.00    +0.122 A 
ENDBRANCH  25  27
BRANCH  26  33
ATOM     33  N   UNL     1      -3.736  -7.456   0.595  0.00  0.00    -0.295 N 
ATOM     34  H   UNL     1      -4.123  -7.396  -0.335  0.00  0.00    +0.163 HD
ATOM     35  H   UNL     1      -4.180  -8.191   1.125  0.00  0.00    +0.163 HD
ENDBRANCH  26  33
ENDBRANCH  21  22
ENDBRANCH  20  21
ENDBRANCH   2  20
TORSDOF 9
