REMARK  Name = ZINC11852724
REMARK  10 active torsions:
REMARK  status: ('A' for Active; 'I' for Inactive)
REMARK    1  A    between atoms: C_1  and  C_2
REMARK    2  A    between atoms: C_3  and  N_15
REMARK    3  A    between atoms: N_6  and  C_9
REMARK    4  A    between atoms: N_7  and  C_8
REMARK    5  A    between atoms: C_16  and  S_35
REMARK    6  A    between atoms: N_17  and  C_18
REMARK    7  A    between atoms: C_21  and  S_24
REMARK    8  A    between atoms: S_24  and  C_25
REMARK    9  A    between atoms: C_25  and  C_26
REMARK   10  A    between atoms: C_26  and  C_27
REMARK                            x       y       z     vdW  Elec       q    Type
REMARK                         _______ _______ _______ _____ _____    ______ ____
ROOT
ATOM      1  N   UNL     1       2.798   3.054  -1.144  0.00  0.00    -0.219 NA
ATOM      2  C   UNL     1       2.174   1.968  -0.757  0.00  0.00    +0.156 C 
ATOM      3  N   UNL     1       2.864   0.976  -0.094  0.00  0.00    -0.294 N 
ATOM      4  H   UNL     1       2.428   0.134   0.109  0.00  0.00    +0.154 HD
ENDROOT
BRANCH   1   7
ATOM      5  C   UNL     1       1.438   5.284   0.450  0.00  0.00    +0.067 C 
ATOM      6  C   UNL     1       1.470   5.101  -1.046  0.00  0.00    +0.064 A 
ATOM      7  C   UNL     1       2.090   4.090  -1.709  0.00  0.00    +0.153 A 
ATOM      8  C   UNL     1       1.867   4.315  -3.143  0.00  0.00    +0.298 A 
ATOM      9  O   UNL     1       2.273   3.621  -4.057  0.00  0.00    -0.264 OA
ATOM     10  N   UNL     1       1.123   5.435  -3.253  0.00  0.00    -0.215 N 
ATOM     11  N   UNL     1       0.878   5.927  -1.967  0.00  0.00    -0.282 N 
ATOM     12  C   UNL     1       0.110   7.135  -1.653  0.00  0.00    +0.171 C 
BRANCH  10  13
ATOM     13  C   UNL     1       0.679   6.010  -4.449  0.00  0.00    +0.067 A 
ATOM     14  C   UNL     1      -0.654   6.370  -4.595  0.00  0.00    +0.028 A 
ATOM     15  C   UNL     1      -1.087   6.943  -5.774  0.00  0.00    +0.002 A 
ATOM     16  C   UNL     1      -0.198   7.147  -6.814  0.00  0.00    +0.000 A 
ATOM     17  C   UNL     1       1.129   6.783  -6.674  0.00  0.00    +0.002 A 
ATOM     18  C   UNL     1       1.570   6.215  -5.495  0.00  0.00    +0.028 A 
ENDBRANCH  10  13
ENDBRANCH   1   7
BRANCH   3  19
ATOM     19  C   UNL     1       4.196   1.184   0.287  0.00  0.00    +0.033 A 
ATOM     20  C   UNL     1       4.625   2.455   0.647  0.00  0.00    +0.024 A 
ATOM     21  C   UNL     1       5.936   2.659   1.028  0.00  0.00    +0.017 A 
ATOM     22  C   UNL     1       6.829   1.595   1.040  0.00  0.00    +0.014 A 
ATOM     23  C   UNL     1       6.402   0.325   0.675  0.00  0.00    +0.017 A 
ATOM     24  C   UNL     1       5.089   0.120   0.300  0.00  0.00    +0.024 A 
BRANCH  22  25
ATOM     25  S   UNL     1       8.505   1.857   1.520  0.00  0.00    -0.046 S 
BRANCH  25  26
ATOM     26  C   UNL     1       8.581   3.629   1.897  0.00  0.00    +0.370 C 
ATOM     27  F   UNL     1       8.239   4.364   0.757  0.00  0.00    -0.186 F 
ATOM     28  F   UNL     1       7.685   3.925   2.930  0.00  0.00    -0.186 F 
BRANCH  26  29
ATOM     29  C   UNL     1      10.001   3.997   2.333  0.00  0.00    +0.413 C 
ATOM     30  F   UNL     1      10.344   3.262   3.474  0.00  0.00    -0.188 F 
ATOM     31  F   UNL     1      10.897   3.700   1.301  0.00  0.00    -0.188 F 
BRANCH  29  32
ATOM     32  C   UNL     1      10.066   5.492   2.652  0.00  0.00    +0.461 C 
ATOM     33  F   UNL     1       9.169   5.788   3.684  0.00  0.00    -0.165 F 
ATOM     34  F   UNL     1      11.364   5.828   3.050  0.00  0.00    -0.165 F 
ATOM     35  F   UNL     1       9.723   6.227   1.511  0.00  0.00    -0.165 F 
ENDBRANCH  29  32
ENDBRANCH  26  29
ENDBRANCH  25  26
ENDBRANCH  22  25
ENDBRANCH   3  19
BRANCH   2  36
ATOM     36  S   UNL     1       0.454   1.776  -1.086  0.00  0.00    -0.108 S 
ATOM     37  H   UNL     1       0.261   0.460  -0.618  0.00  0.00    +0.110 HD
ENDBRANCH   2  36
TORSDOF 8
