REMARK  Name = ZINC49481241
REMARK  4 active torsions:
REMARK  status: ('A' for Active; 'I' for Inactive)
REMARK    1  A    between atoms: C_4  and  C_7
REMARK    2  A    between atoms: C_9  and  C_12
REMARK    3  A    between atoms: C_16  and  C_18
REMARK    4  A    between atoms: C_18  and  C_19
REMARK                            x       y       z     vdW  Elec       q    Type
REMARK                         _______ _______ _______ _____ _____    ______ ____
ROOT
ATOM      1  C   UNL     1       5.692  -3.722  -0.082  0.00  0.00    +0.112 C 
ATOM      2  C   UNL     1       6.980  -3.874   0.748  0.00  0.00    +0.122 C 
ATOM      3  N   UNL     1       7.486  -4.691  -0.372  0.00  0.00    -0.300 N 
ATOM      4  C   UNL     1       6.569  -4.017  -1.312  0.00  0.00    +0.122 C 
ATOM      5  C   UNL     1       8.412  -5.662  -0.490  0.00  0.00    +0.220 C 
ATOM      6  O   UNL     1       9.034  -6.028   0.485  0.00  0.00    -0.275 OA
ENDROOT
BRANCH   1   9
ATOM      7  C   UNL     1       3.699  -0.689  -0.037  0.00  0.00    +0.202 A 
ATOM      8  N   UNL     1       3.853  -2.025  -0.051  0.00  0.00    -0.191 NA
ATOM      9  C   UNL     1       5.120  -2.328  -0.065  0.00  0.00    +0.234 A 
ATOM     10  O   UNL     1       5.828  -1.191  -0.059  0.00  0.00    -0.337 OA
ATOM     11  N   UNL     1       4.884  -0.131  -0.046  0.00  0.00    -0.056 NA
BRANCH   7  15
ATOM     12  C   UNL     1      -0.017   1.379   0.010  0.00  0.00    +0.000 A 
ATOM     13  C   UNL     1       1.169   2.092   0.002  0.00  0.00    +0.001 A 
ATOM     14  C   UNL     1       2.377   1.426  -0.013  0.00  0.00    +0.012 A 
ATOM     15  C   UNL     1       2.402   0.033  -0.021  0.00  0.00    +0.022 A 
ATOM     16  C   UNL     1       1.205  -0.680  -0.013  0.00  0.00    +0.012 A 
ATOM     17  C   UNL     1       0.002  -0.004   0.002  0.00  0.00    +0.001 A 
ENDBRANCH   7  15
ENDBRANCH   1   9
BRANCH   5  18
ATOM     18  C   UNL     1       8.676  -6.294  -1.832  0.00  0.00    +0.133 C 
BRANCH  18  19
ATOM     19  C   UNL     1       9.749  -7.343  -1.692  0.00  0.00    -0.014 A 
ATOM     20  C   UNL     1      11.063  -7.175  -1.905  0.00  0.00    +0.087 A 
ATOM     21  N   UNL     1      11.727  -8.350  -1.679  0.00  0.00    -0.360 N 
ATOM     22  H   UNL     1      12.685  -8.475  -1.769  0.00  0.00    +0.165 HD
ATOM     23  C   UNL     1      10.833  -9.328  -1.305  0.00  0.00    +0.047 A 
ATOM     24  C   UNL     1       9.555  -8.739  -1.290  0.00  0.00    +0.003 A 
ATOM     25  C   UNL     1       8.441  -9.501  -0.938  0.00  0.00    +0.010 A 
ATOM     26  C   UNL     1       8.597 -10.818  -0.605  0.00  0.00    +0.001 A 
ATOM     27  C   UNL     1       9.856 -11.402  -0.613  0.00  0.00    +0.002 A 
ATOM     28  C   UNL     1      10.968 -10.670  -0.967  0.00  0.00    +0.026 A 
ENDBRANCH  18  19
ENDBRANCH   5  18
TORSDOF 4
