REMARK  Name = ZINC16850881
REMARK  8 active torsions:
REMARK  status: ('A' for Active; 'I' for Inactive)
REMARK    1  A    between atoms: C_1  and  C_2
REMARK    2  A    between atoms: C_2  and  C_3
REMARK    3  A    between atoms: C_3  and  C_28
REMARK    4  A    between atoms: C_4  and  C_10
REMARK    5  A    between atoms: N_12  and  C_13
REMARK    6  A    between atoms: C_13  and  C_15
REMARK    7  A    between atoms: C_13  and  C_16
REMARK    8  A    between atoms: C_16  and  C_17
REMARK                            x       y       z     vdW  Elec       q    Type
REMARK                         _______ _______ _______ _____ _____    ______ ____
ROOT
ATOM      1  C   UNL     1      -4.038   3.958   2.074  0.00  0.00    +0.074 C 
ATOM      2  C   UNL     1      -5.527   3.758   1.780  0.00  0.00    +0.028 C 
ENDROOT
BRANCH   1   5
ATOM      3  C   UNL     1      -3.985   5.437   4.009  0.00  0.00    +0.221 C 
ATOM      4  O   UNL     1      -4.291   4.492   4.704  0.00  0.00    -0.275 OA
ATOM      5  N   UNL     1      -3.833   5.276   2.680  0.00  0.00    -0.312 N 
ATOM      6  H   UNL     1      -3.588   6.032   2.124  0.00  0.00    +0.149 HD
BRANCH   3   8
ATOM      7  C   UNL     1      -5.109   7.560   4.735  0.00  0.00    +0.122 C 
ATOM      8  C   UNL     1      -3.774   6.793   4.633  0.00  0.00    +0.129 C 
ATOM      9  C   UNL     1      -3.336   6.654   6.108  0.00  0.00    +0.137 C 
ATOM     10  C   UNL     1      -4.193   7.677   6.831  0.00  0.00    +0.308 C 
ATOM     11  O   UNL     1      -3.890   8.291   7.827  0.00  0.00    -0.251 OA
ATOM     12  O   UNL     1      -5.352   7.773   6.155  0.00  0.00    -0.458 OA
ATOM     13  C   UNL     1      -4.999   8.904   4.013  0.00  0.00    +0.056 C 
BRANCH   7  15
ATOM     14  C   UNL     1      -7.560   7.490   4.257  0.00  0.00    +0.008 C 
ATOM     15  C   UNL     1      -6.240   6.728   4.128  0.00  0.00    +0.045 C 
ENDBRANCH   7  15
ENDBRANCH   3   8
ENDBRANCH   1   5
BRANCH   1  16
ATOM     16  C   UNL     1      -3.244   3.867   0.769  0.00  0.00    +0.059 C 
BRANCH  16  17
ATOM     17  C   UNL     1      -1.770   3.942   1.073  0.00  0.00    -0.021 A 
ATOM     18  C   UNL     1      -1.004   5.044   1.046  0.00  0.00    +0.087 A 
ATOM     19  N   UNL     1       0.285   4.724   1.377  0.00  0.00    -0.360 N 
ATOM     20  H   UNL     1       1.020   5.355   1.425  0.00  0.00    +0.165 HD
ATOM     21  C   UNL     1       0.382   3.374   1.631  0.00  0.00    +0.047 A 
ATOM     22  C   UNL     1      -0.901   2.825   1.452  0.00  0.00    +0.004 A 
ATOM     23  C   UNL     1      -1.106   1.457   1.639  0.00  0.00    +0.025 A 
ATOM     24  C   UNL     1      -0.050   0.654   2.009  0.00  0.00    +0.019 A 
ATOM     25  C   UNL     1       1.216   1.197   2.186  0.00  0.00    +0.017 A 
ATOM     26  C   UNL     1       1.435   2.544   2.000  0.00  0.00    +0.027 A 
ATOM     27 BR   UNL     1      -0.323  -1.199   2.270  0.00  0.00    -0.050 Br
ENDBRANCH  16  17
ENDBRANCH   1  16
TORSDOF 5
