REMARK  Name = ZINC27239826
REMARK  13 active torsions:
REMARK  status: ('A' for Active; 'I' for Inactive)
REMARK    1  A    between atoms: C_1  and  C_2
REMARK    2  A    between atoms: C_2  and  C_3
REMARK    3  A    between atoms: C_6  and  C_9
REMARK    4  A    between atoms: C_9  and  C_10
REMARK    5  A    between atoms: C_9  and  C_18
REMARK    6  A    between atoms: C_9  and  O_37
REMARK    7  A    between atoms: C_13  and  O_16
REMARK    8  A    between atoms: O_16  and  C_17
REMARK    9  A    between atoms: C_18  and  C_20
REMARK   10  A    between atoms: C_18  and  O_28
REMARK   11  A    between atoms: C_20  and  N_21
REMARK   12  A    between atoms: O_28  and  C_29
REMARK   13  A    between atoms: C_34  and  C_35
REMARK                            x       y       z     vdW  Elec       q    Type
REMARK                         _______ _______ _______ _____ _____    ______ ____
ROOT
ATOM      1  C   UNL     1       2.406   1.462   0.181  0.00  0.00    +0.151 C 
ENDROOT
BRANCH   1   5
ATOM      2  C   UNL     1      -0.117   4.851   0.813  0.00  0.00    -0.048 A 
ATOM      3  C   UNL     1      -0.674   3.607   0.584  0.00  0.00    +0.004 A 
ATOM      4  C   UNL     1       0.142   2.509   0.384  0.00  0.00    +0.007 A 
ATOM      5  C   UNL     1       1.516   2.657   0.404  0.00  0.00    -0.008 A 
ATOM      6  C   UNL     1       2.074   3.902   0.629  0.00  0.00    +0.007 A 
ATOM      7  C   UNL     1       1.258   4.998   0.833  0.00  0.00    +0.004 A 
BRANCH   2   9
ATOM      8  C   UNL     1      -1.314   6.710  -0.309  0.00  0.00    +0.009 C 
ATOM      9  C   UNL     1      -1.007   6.046   1.035  0.00  0.00    +0.032 C 
ENDBRANCH   2   9
ENDBRANCH   1   5
BRANCH   1  10
ATOM     10  C   UNL     1       2.711   0.808   1.505  0.00  0.00    -0.008 A 
ATOM     11  C   UNL     1       3.820   1.202   2.230  0.00  0.00    +0.010 A 
ATOM     12  C   UNL     1       4.097   0.608   3.446  0.00  0.00    +0.046 A 
ATOM     13  C   UNL     1       3.269  -0.393   3.934  0.00  0.00    +0.120 A 
ATOM     14  C   UNL     1       2.160  -0.790   3.201  0.00  0.00    +0.046 A 
ATOM     15  C   UNL     1       1.883  -0.188   1.988  0.00  0.00    +0.010 A 
BRANCH  13  16
ATOM     16  O   UNL     1       3.543  -0.983   5.127  0.00  0.00    -0.495 OA
ATOM     17  C   UNL     1       4.702  -0.523   5.826  0.00  0.00    +0.277 C 
ENDBRANCH  13  16
ENDBRANCH   1  10
BRANCH   1  18
ATOM     18  O   UNL     1       1.743   0.526  -0.671  0.00  0.00    -0.376 OA
ATOM     19  H   UNL     1       2.241  -0.415  -0.948  0.00  0.00    +0.211 HD
ENDBRANCH   1  18
BRANCH   1  20
ATOM     20  C   UNL     1       3.712   1.914  -0.476  0.00  0.00    +0.198 C 
BRANCH  20  21
ATOM     21  C   UNL     1       4.616   0.700  -0.703  0.00  0.00    -0.030 C 
BRANCH  21  22
ATOM     22  N   UNL     1       5.885   1.139  -1.298  0.00  0.00    +0.382 N 
ATOM     23  C   UNL     1       5.726   1.413  -2.744  0.00  0.00    -0.079 C 
ATOM     24  C   UNL     1       7.040   1.601  -3.450  0.00  0.00    -0.019 C 
ATOM     25  C   UNL     1       7.476   0.243  -4.041  0.00  0.00    -0.002 C 
ATOM     26  C   UNL     1       8.053  -0.637  -3.031  0.00  0.00    -0.002 C 
ATOM     27  C   UNL     1       7.050  -0.972  -1.907  0.00  0.00    -0.019 C 
ATOM     28  C   UNL     1       6.979   0.200  -0.966  0.00  0.00    -0.079 C 
ATOM     29  H   UNL     1       6.176   2.099  -0.847  0.00  0.00    -0.082 HD
ENDBRANCH  21  22
ENDBRANCH  20  21
BRANCH  20  30
ATOM     30  O   UNL     1       3.424   2.534  -1.731  0.00  0.00    -0.487 OA
BRANCH  30  31
ATOM     31  C   UNL     1       3.984   3.751  -1.961  0.00  0.00    +0.124 A 
ATOM     32  C   UNL     1       4.901   4.274  -1.061  0.00  0.00    +0.047 A 
ATOM     33  C   UNL     1       5.472   5.510  -1.299  0.00  0.00    +0.023 A 
ATOM     34  C   UNL     1       5.122   6.229  -2.429  0.00  0.00    +0.041 A 
ATOM     35  C   UNL     1       4.204   5.710  -3.324  0.00  0.00    +0.027 A 
ATOM     36  C   UNL     1       3.635   4.473  -3.092  0.00  0.00    -0.007 A 
ATOM     37  C   UNL     1       2.635   3.909  -4.068  0.00  0.00    +0.047 C 
ATOM     38 CL   UNL     1       5.837   7.784  -2.722  0.00  0.00    -0.084 Cl
ENDBRANCH  30  31
ENDBRANCH  20  30
ENDBRANCH   1  20
TORSDOF 10
