REMARK  Name = ZINC01368034
REMARK  5 active torsions:
REMARK  status: ('A' for Active; 'I' for Inactive)
REMARK    1  A    between atoms: C_1  and  C_2
REMARK    2  A    between atoms: C_7  and  N_8
REMARK    3  A    between atoms: C_9  and  C_11
REMARK    4  A    between atoms: C_11  and  S_12
REMARK    5  A    between atoms: S_12  and  C_13
REMARK                            x       y       z     vdW  Elec       q    Type
REMARK                         _______ _______ _______ _____ _____    ______ ____
ROOT
ATOM      1  C   UNL     1       1.106   2.013   0.033  0.00  0.00    +0.170 A 
ATOM      2  N   UNL     1       2.316   1.382   0.022  0.00  0.00    -0.301 N 
ATOM      3  H   UNL     1       3.129   1.912   0.013  0.00  0.00    +0.171 HD
ATOM      4  C   UNL     1       2.404   0.039   0.025  0.00  0.00    +0.261 A 
ATOM      5  O   UNL     1       3.492  -0.509   0.016  0.00  0.00    -0.267 OA
ATOM      6  C   UNL     1       1.201  -0.736   0.040  0.00  0.00    +0.075 A 
ATOM      7  C   UNL     1       1.061  -2.193   0.046  0.00  0.00    -0.023 A 
ATOM      8  C   UNL     1      -0.193  -2.688   0.060  0.00  0.00    -0.004 A 
ATOM      9  S   UNL     1      -1.249  -1.264   0.066  0.00  0.00    -0.073 S 
ATOM     10  C   UNL     1       0.001  -0.005   0.050  0.00  0.00    +0.117 A 
ATOM     11  N   UNL     1      -0.017   1.323   0.046  0.00  0.00    -0.216 NA
ATOM     12  C   UNL     1      -0.600  -4.130   0.069  0.00  0.00    +0.043 C 
ATOM     13  C   UNL     1       0.619  -4.980  -0.315  0.00  0.00    +0.005 C 
ATOM     14  C   UNL     1       1.823  -4.512   0.508  0.00  0.00    +0.005 C 
ATOM     15  C   UNL     1       2.268  -3.128   0.037  0.00  0.00    +0.037 C 
ENDROOT
BRANCH   1  16
ATOM     16  S   UNL     1       1.044   3.774   0.029  0.00  0.00    -0.078 S 
BRANCH  16  17
ATOM     17  C   UNL     1      -0.749   4.025   0.045  0.00  0.00    +0.173 C 
BRANCH  17  19
ATOM     18  N   UNL     1      -2.327   5.930   0.054  0.00  0.00    -0.285 N 
ATOM     19  C   UNL     1      -1.049   5.502   0.043  0.00  0.00    +0.227 C 
ATOM     20  O   UNL     1      -0.140   6.306   0.032  0.00  0.00    -0.275 OA
ATOM     21  H   UNL     1      -3.053   5.291  -0.018  0.00  0.00    +0.155 HD
BRANCH  18  28
ATOM     22  C   UNL     1      -4.797   6.888  -0.981  0.00  0.00    +0.045 C 
ATOM     23  C   UNL     1      -3.800   7.806  -0.323  0.00  0.00    -0.029 A 
ATOM     24  C   UNL     1      -4.076   9.154  -0.203  0.00  0.00    +0.006 A 
ATOM     25  C   UNL     1      -3.160   9.998   0.396  0.00  0.00    +0.020 A 
ATOM     26  C   UNL     1      -1.966   9.495   0.883  0.00  0.00    +0.043 A 
ATOM     27  C   UNL     1      -1.687   8.146   0.771  0.00  0.00    +0.043 A 
ATOM     28  C   UNL     1      -2.606   7.296   0.170  0.00  0.00    +0.038 A 
ATOM     29 CL   UNL     1      -0.819  10.558   1.635  0.00  0.00    -0.083 Cl
ENDBRANCH  18  28
ENDBRANCH  17  19
ENDBRANCH  16  17
ENDBRANCH   1  16
TORSDOF 4
