REMARK  Name = ZINC59014562
REMARK  6 active torsions:
REMARK  status: ('A' for Active; 'I' for Inactive)
REMARK    1  A    between atoms: C_3  and  C_9
REMARK    2  A    between atoms: N_10  and  N_11
REMARK    3  A    between atoms: C_14  and  S_17
REMARK    4  A    between atoms: S_17  and  C_18
REMARK    5  A    between atoms: C_18  and  C_19
REMARK    6  A    between atoms: N_21  and  C_22
REMARK                            x       y       z     vdW  Elec       q    Type
REMARK                         _______ _______ _______ _____ _____    ______ ____
ROOT
ATOM      1  N   UNL     1       5.991   2.240  -0.069  0.00  0.00    -0.205 N 
ATOM      2  C   UNL     1       7.196   1.563  -0.082  0.00  0.00    +0.232 A 
ATOM      3  N   UNL     1       7.349   0.255  -0.086  0.00  0.00    -0.186 NA
ATOM      4  C   UNL     1       8.652  -0.045  -0.099  0.00  0.00    +0.211 A 
ATOM      5  N   UNL     1       9.346   1.068  -0.103  0.00  0.00    -0.144 NA
ATOM      6  N   UNL     1       8.423   2.126  -0.097  0.00  0.00    -0.245 N 
ATOM      7  H   UNL     1       5.979   3.210  -0.071  0.00  0.00    +0.177 HD
ATOM      8  H   UNL     1       8.627   3.074  -0.101  0.00  0.00    +0.192 HD
ENDROOT
BRANCH   1  10
ATOM      9  C   UNL     1       3.654   2.162  -0.043  0.00  0.00    +0.139 C 
ATOM     10  N   UNL     1       4.786   1.526  -0.054  0.00  0.00    -0.188 NA
BRANCH   9  13
ATOM     11  C   UNL     1      -0.016   1.382   0.000  0.00  0.00    +0.021 A 
ATOM     12  C   UNL     1       1.167   2.091  -0.014  0.00  0.00    +0.012 A 
ATOM     13  C   UNL     1       2.386   1.410  -0.027  0.00  0.00    +0.013 A 
ATOM     14  C   UNL     1       2.398   0.012  -0.024  0.00  0.00    +0.051 A 
ATOM     15  C   UNL     1       1.207  -0.685  -0.009  0.00  0.00    +0.040 A 
ATOM     16  C   UNL     1       0.002  -0.002   0.003  0.00  0.00    +0.042 A 
ATOM     17 CL   UNL     1      -1.491  -0.887   0.021  0.00  0.00    -0.083 Cl
ATOM     18 CL   UNL     1       3.908  -0.845  -0.040  0.00  0.00    -0.083 Cl
ENDBRANCH   9  13
ENDBRANCH   1  10
BRANCH   4  19
ATOM     19  S   UNL     1       9.327  -1.673  -0.108  0.00  0.00    -0.075 S 
BRANCH  19  20
ATOM     20  C   UNL     1      11.121  -1.404  -0.125  0.00  0.00    +0.173 C 
BRANCH  20  21
ATOM     21  C   UNL     1      11.829  -2.734  -0.134  0.00  0.00    +0.227 C 
ATOM     22  O   UNL     1      11.186  -3.763  -0.130  0.00  0.00    -0.275 OA
ATOM     23  N   UNL     1      13.175  -2.781  -0.147  0.00  0.00    -0.285 N 
ATOM     24  H   UNL     1      13.689  -1.961  -0.218  0.00  0.00    +0.155 HD
BRANCH  23  25
ATOM     25  C   UNL     1      13.833  -4.013  -0.058  0.00  0.00    +0.036 A 
ATOM     26  C   UNL     1      15.034  -4.112   0.633  0.00  0.00    +0.043 A 
ATOM     27  C   UNL     1      15.682  -5.330   0.720  0.00  0.00    +0.044 A 
ATOM     28  C   UNL     1      15.135  -6.450   0.119  0.00  0.00    +0.040 A 
ATOM     29  C   UNL     1      13.939  -6.354  -0.571  0.00  0.00    +0.044 A 
ATOM     30  C   UNL     1      13.284  -5.139  -0.656  0.00  0.00    +0.043 A 
ATOM     31 CL   UNL     1      13.257  -7.761  -1.324  0.00  0.00    -0.083 Cl
ATOM     32 CL   UNL     1      17.183  -5.454   1.583  0.00  0.00    -0.083 Cl
ENDBRANCH  23  25
ENDBRANCH  20  21
ENDBRANCH  19  20
ENDBRANCH   4  19
TORSDOF 6
