REMARK  Name = ZINC09264380
REMARK  3 active torsions:
REMARK  status: ('A' for Active; 'I' for Inactive)
REMARK    1  A    between atoms: C_10  and  C_22
REMARK    2  A    between atoms: N_15  and  C_16
REMARK    3  A    between atoms: C_30  and  C_33
REMARK                            x       y       z     vdW  Elec       q    Type
REMARK                         _______ _______ _______ _____ _____    ______ ____
ROOT
ATOM      1  C   UNL     1       3.402   4.254   3.661  0.00  0.00    +0.002 A 
ATOM      2  C   UNL     1       4.684   4.325   3.147  0.00  0.00    +0.002 A 
ATOM      3  C   UNL     1       4.930   3.985   1.828  0.00  0.00    +0.025 A 
ATOM      4  C   UNL     1       3.879   3.574   1.024  0.00  0.00    +0.060 A 
ATOM      5  C   UNL     1       2.589   3.542   1.530  0.00  0.00    +0.053 A 
ATOM      6  C   UNL     1       2.347   3.861   2.855  0.00  0.00    +0.025 A 
ATOM      7  N   UNL     1       1.564   3.251   0.638  0.00  0.00    -0.316 N 
ATOM      8  C   UNL     1       1.401   2.063  -0.000  0.00  0.00    +0.018 C 
ATOM      9  C   UNL     1       2.385   1.387  -0.620  0.00  0.00    +0.040 C 
ATOM     10  C   UNL     1       3.830   1.812  -0.712  0.00  0.00    +0.184 C 
ATOM     11  N   UNL     1       4.084   3.175  -0.298  0.00  0.00    -0.239 N 
ATOM     12  C   UNL     1       4.526   4.073  -1.201  0.00  0.00    +0.308 C 
ATOM     13  O   UNL     1       4.707   3.735  -2.355  0.00  0.00    -0.252 OA
ATOM     14  N   UNL     1       4.765   5.345  -0.826  0.00  0.00    -0.296 N 
ATOM     15  C   UNL     1       2.107   0.158  -1.264  0.00  0.00    +0.164 C 
ATOM     16  O   UNL     1       3.009  -0.422  -1.836  0.00  0.00    -0.292 OA
ATOM     17  C   UNL     1       0.738  -0.454  -1.266  0.00  0.00    +0.091 C 
ATOM     18  C   UNL     1       0.002  -0.004   0.002  0.00  0.00    +0.068 C 
ATOM     19  C   UNL     1      -0.019   1.523   0.010  0.00  0.00    +0.063 C 
ATOM     20  H   UNL     1       0.916   3.949   0.457  0.00  0.00    +0.152 HD
ATOM     21  H   UNL     1       4.620   5.614   0.094  0.00  0.00    +0.151 HD
ENDROOT
BRANCH  14  22
ATOM     22  C   UNL     1       5.245   6.320  -1.808  0.00  0.00    +0.074 C 
ATOM     23  C   UNL     1       6.768   6.222  -1.923  0.00  0.00    +0.022 C 
ATOM     24  C   UNL     1       7.269   7.241  -2.948  0.00  0.00    +0.002 C 
ATOM     25  C   UNL     1       6.881   8.651  -2.498  0.00  0.00    +0.000 C 
ATOM     26  C   UNL     1       5.359   8.749  -2.383  0.00  0.00    +0.002 C 
ATOM     27  C   UNL     1       4.857   7.730  -1.358  0.00  0.00    +0.022 C 
ENDBRANCH  14  22
BRANCH  10  28
ATOM     28  C   UNL     1       4.655   0.890   0.148  0.00  0.00    +0.130 A 
ATOM     29  C   UNL     1       5.382  -0.154  -0.290  0.00  0.00    +0.047 A 
ATOM     30  C   UNL     1       5.989  -0.736   0.847  0.00  0.00    +0.041 A 
ATOM     31  C   UNL     1       5.597  -0.012   1.911  0.00  0.00    +0.195 A 
ATOM     32  O   UNL     1       4.794   0.974   1.481  0.00  0.00    -0.466 OA
ENDBRANCH  10  28
BRANCH  18  33
ATOM     33  C   UNL     1      -1.409  -0.534  -0.009  0.00  0.00    +0.109 A 
ATOM     34  C   UNL     1      -1.957  -1.331   0.925  0.00  0.00    +0.045 A 
ATOM     35  C   UNL     1      -3.289  -1.580   0.521  0.00  0.00    +0.041 A 
ATOM     36  C   UNL     1      -3.472  -0.927  -0.641  0.00  0.00    +0.195 A 
ATOM     37  O   UNL     1      -2.330  -0.295  -0.957  0.00  0.00    -0.468 OA
ENDBRANCH  18  33
TORSDOF 3
