REMARK  Name = ZINC50671723
REMARK  6 active torsions:
REMARK  status: ('A' for Active; 'I' for Inactive)
REMARK    1  A    between atoms: C_1  and  N_2
REMARK    2  A    between atoms: N_2  and  C_3
REMARK    3  A    between atoms: N_2  and  S_10
REMARK    4  A    between atoms: C_3  and  C_4
REMARK    5  A    between atoms: S_10  and  C_13
REMARK    6  A    between atoms: C_14  and  N_21
REMARK                            x       y       z     vdW  Elec       q    Type
REMARK                         _______ _______ _______ _____ _____    ______ ____
ROOT
ATOM      1  S   UNL     1      -0.000  -0.824  -1.437  0.00  0.00    +0.080 S 
ATOM      2  O   UNL     1      -0.531  -2.115  -1.167  0.00  0.00    -0.151 OA
ATOM      3  O   UNL     1      -0.572   0.049  -2.401  0.00  0.00    -0.151 OA
ENDROOT
BRANCH   1   4
ATOM      4  C   UNL     1       1.682  -1.059  -1.905  0.00  0.00    +0.221 A 
ATOM      5  C   UNL     1       2.426  -0.218  -2.651  0.00  0.00    +0.163 A 
ATOM      6  N   UNL     1       3.654  -0.748  -2.788  0.00  0.00    -0.205 NA
ATOM      7  C   UNL     1       3.697  -1.887  -2.155  0.00  0.00    +0.181 A 
ATOM      8  N   UNL     1       2.489  -2.149  -1.566  0.00  0.00    -0.276 N 
ATOM      9  C   UNL     1       2.384  -3.322  -0.852  0.00  0.00    +0.102 A 
ATOM     10  C   UNL     1       3.421  -4.152  -0.746  0.00  0.00    +0.067 A 
ATOM     11  S   UNL     1       4.671  -3.301  -1.698  0.00  0.00    -0.058 S 
BRANCH   5  12
ATOM     12  N   UNL     1       1.994   1.003  -3.192  0.00  0.00    -0.340 N 
ATOM     13  H   UNL     1       1.085   1.306  -3.039  0.00  0.00    +0.144 HD
ATOM     14  H   UNL     1       2.604   1.544  -3.718  0.00  0.00    +0.144 HD
ENDBRANCH   5  12
ENDBRANCH   1   4
BRANCH   1  16
ATOM     15  C   UNL     1      -0.018   1.461   0.010  0.00  0.00    +0.132 C 
ATOM     16  N   UNL     1       0.002  -0.004   0.002  0.00  0.00    -0.173 NA
BRANCH  16  17
ATOM     17  C   UNL     1       0.024  -0.743   1.267  0.00  0.00    +0.151 C 
BRANCH  17  18
ATOM     18  C   UNL     1      -1.384  -0.909   1.776  0.00  0.00    +0.007 A 
ATOM     19  C   UNL     1      -2.265  -1.913   1.540  0.00  0.00    +0.027 A 
ATOM     20  C   UNL     1      -3.518  -1.855   2.121  0.00  0.00    +0.025 A 
ATOM     21  C   UNL     1      -3.830  -0.796   2.908  0.00  0.00    +0.060 A 
ATOM     22  S   UNL     1      -2.324   0.161   2.853  0.00  0.00    -0.099 S 
ATOM     23 BR   UNL     1      -4.780  -3.231   1.820  0.00  0.00    -0.050 Br
ENDBRANCH  17  18
ENDBRANCH  16  17
ENDBRANCH   1  16
TORSDOF 5
