REMARK  Name = ZINC02191760
REMARK  11 active torsions:
REMARK  status: ('A' for Active; 'I' for Inactive)
REMARK    1  A    between atoms: C_1  and  C_2
REMARK    2  A    between atoms: C_2  and  O_3
REMARK    3  A    between atoms: O_3  and  C_4
REMARK    4  A    between atoms: C_4  and  C_6
REMARK    5  A    between atoms: C_6  and  C_7
REMARK    6  A    between atoms: C_6  and  N_11
REMARK    7  A    between atoms: C_6  and  N_25
REMARK    8  A    between atoms: N_11  and  C_12
REMARK    9  A    between atoms: C_13  and  C_23
REMARK   10  A    between atoms: C_18  and  C_22
REMARK   11  A    between atoms: C_26  and  C_28
REMARK                            x       y       z     vdW  Elec       q    Type
REMARK                         _______ _______ _______ _____ _____    ______ ____
ROOT
ATOM      1  C   UNL     1       3.645   2.580   0.025  0.00  0.00    +0.296 C 
ENDROOT
BRANCH   1   2
ATOM      2  C   UNL     1       3.594   3.316   1.365  0.00  0.00    +0.438 C 
ATOM      3  F   UNL     1       3.460   2.388   2.403  0.00  0.00    -0.166 F 
ATOM      4  F   UNL     1       4.776   4.045   1.542  0.00  0.00    -0.166 F 
ATOM      5  F   UNL     1       2.502   4.190   1.376  0.00  0.00    -0.166 F 
ENDBRANCH   1   2
BRANCH   1   6
ATOM      6  N   UNL     1       4.857   1.760  -0.036  0.00  0.00    -0.274 N 
ATOM      7  C   UNL     1       4.929   0.610   0.663  0.00  0.00    +0.246 C 
ATOM      8  O   UNL     1       3.955   0.203   1.266  0.00  0.00    -0.270 OA
ATOM      9  H   UNL     1       5.609   2.045  -0.579  0.00  0.00    +0.152 HD
BRANCH   7  10
ATOM     10  C   UNL     1       6.193  -0.157   0.698  0.00  0.00    +0.038 A 
ATOM     11  C   UNL     1       7.312   0.305   0.002  0.00  0.00    +0.013 A 
ATOM     12  C   UNL     1       8.490  -0.412   0.042  0.00  0.00    +0.002 A 
ATOM     13  C   UNL     1       8.561  -1.592   0.760  0.00  0.00    +0.020 A 
ATOM     14  C   UNL     1       7.454  -2.059   1.448  0.00  0.00    +0.042 A 
ATOM     15  C   UNL     1       6.271  -1.348   1.421  0.00  0.00    +0.033 A 
ATOM     16 CL   UNL     1       7.554  -3.541   2.347  0.00  0.00    -0.084 Cl
ENDBRANCH   7  10
ENDBRANCH   1   6
BRANCH   1  17
ATOM     17  C   UNL     1       3.659   3.583  -1.099  0.00  0.00    +0.359 C 
ATOM     18  O   UNL     1       2.664   3.765  -1.759  0.00  0.00    -0.246 OA
BRANCH  17  19
ATOM     19  O   UNL     1       4.779   4.273  -1.368  0.00  0.00    -0.462 OA
BRANCH  19  21
ATOM     20  C   UNL     1       6.079   5.908  -2.620  0.00  0.00    +0.048 C 
ATOM     21  C   UNL     1       4.720   5.222  -2.466  0.00  0.00    +0.229 C 
ENDBRANCH  19  21
ENDBRANCH  17  19
ENDBRANCH   1  17
BRANCH   1  22
ATOM     22  N   UNL     1       2.466   1.719  -0.103  0.00  0.00    -0.301 N 
ATOM     23  H   UNL     1       1.835   1.648   0.629  0.00  0.00    +0.149 HD
BRANCH  22  24
ATOM     24  C   UNL     1       2.254   1.006  -1.270  0.00  0.00    +0.086 A 
ATOM     25  C   UNL     1       1.250   0.090  -1.551  0.00  0.00    +0.083 A 
ATOM     26  C   UNL     1       1.255  -0.530  -2.866  0.00  0.00    -0.018 A 
ATOM     27  C   UNL     1       2.249  -0.129  -3.687  0.00  0.00    -0.004 A 
ATOM     28  S   UNL     1       3.177   1.042  -2.736  0.00  0.00    -0.077 S 
ATOM     29  C   UNL     1       2.502  -0.587  -5.090  0.00  0.00    +0.046 C 
ATOM     30  C   UNL     1       1.241  -1.300  -5.601  0.00  0.00    -0.009 C 
ATOM     31  C   UNL     1       0.776  -2.299  -4.538  0.00  0.00    +0.008 C 
ATOM     32  C   UNL     1       0.220  -1.549  -3.326  0.00  0.00    +0.037 C 
ATOM     33  C   UNL     1       1.562  -2.041  -6.900  0.00  0.00    +0.008 C 
BRANCH  25  34
ATOM     34  C   UNL     1       0.250  -0.237  -0.579  0.00  0.00    +0.102 C 
ATOM     35  N   UNL     1      -0.543  -0.497   0.191  0.00  0.00    -0.191 NA
ENDBRANCH  25  34
ENDBRANCH  22  24
ENDBRANCH   1  22
TORSDOF 9
