REMARK  Name = ZINC13140137
REMARK  6 active torsions:
REMARK  status: ('A' for Active; 'I' for Inactive)
REMARK    1  A    between atoms: C_1  and  C_2
REMARK    2  A    between atoms: C_5  and  C_8
REMARK    3  A    between atoms: C_13  and  N_17
REMARK    4  A    between atoms: N_17  and  S_18
REMARK    5  A    between atoms: S_18  and  C_21
REMARK    6  A    between atoms: C_24  and  C_27
REMARK                            x       y       z     vdW  Elec       q    Type
REMARK                         _______ _______ _______ _____ _____    ______ ____
ROOT
ATOM      1  S   UNL     1      -0.109  -2.902   0.045  0.00  0.00    +0.073 S 
ATOM      2  O   UNL     1       0.214  -4.285  -0.006  0.00  0.00    -0.150 OA
ATOM      3  O   UNL     1      -0.853  -2.333   1.114  0.00  0.00    -0.150 OA
ENDROOT
BRANCH   1   4
ATOM      4  C   UNL     1      -0.993  -2.537  -1.434  0.00  0.00    +0.109 A 
ATOM      5  C   UNL     1      -1.857  -1.458  -1.474  0.00  0.00    +0.029 A 
ATOM      6  C   UNL     1      -2.547  -1.168  -2.637  0.00  0.00    +0.006 A 
ATOM      7  C   UNL     1      -2.381  -1.963  -3.756  0.00  0.00    -0.041 A 
ATOM      8  C   UNL     1      -1.521  -3.045  -3.714  0.00  0.00    +0.006 A 
ATOM      9  C   UNL     1      -0.827  -3.331  -2.553  0.00  0.00    +0.029 A 
BRANCH   7  10
ATOM     10  C   UNL     1      -3.137  -1.650  -5.021  0.00  0.00    -0.003 C 
ATOM     11  C   UNL     1      -4.023  -2.841  -5.394  0.00  0.00    +0.015 C 
ATOM     12  C   UNL     1      -4.791  -2.523  -6.678  0.00  0.00    -0.010 C 
ATOM     13  C   UNL     1      -5.665  -1.286  -6.457  0.00  0.00    +0.007 C 
ATOM     14  C   UNL     1      -4.779  -0.096  -6.085  0.00  0.00    -0.010 C 
ATOM     15  C   UNL     1      -4.011  -0.413  -4.800  0.00  0.00    +0.015 C 
ATOM     16  C   UNL     1      -3.787   0.176  -7.218  0.00  0.00    +0.007 C 
ATOM     17  C   UNL     1      -2.913  -1.060  -7.439  0.00  0.00    -0.010 C 
ATOM     18  C   UNL     1      -3.799  -2.251  -7.811  0.00  0.00    +0.007 C 
ATOM     19  C   UNL     1      -2.146  -1.378  -6.154  0.00  0.00    +0.015 C 
ENDBRANCH   7  10
ENDBRANCH   1   4
BRANCH   1  20
ATOM     20  N   UNL     1       1.325  -2.078  -0.025  0.00  0.00    -0.199 N 
ATOM     21  H   UNL     1       2.163  -2.565  -0.072  0.00  0.00    +0.175 HD
BRANCH  20  27
ATOM     22  C   UNL     1       3.612  -0.474  -1.256  0.00  0.00    +0.002 A 
ATOM     23  C   UNL     1       4.509   0.419  -1.735  0.00  0.00    +0.056 A 
ATOM     24  S   UNL     1       3.783   1.996  -1.331  0.00  0.00    -0.076 S 
ATOM     25  C   UNL     1       2.305   1.429  -0.533  0.00  0.00    +0.114 A 
ATOM     26  C   UNL     1       2.408   0.024  -0.599  0.00  0.00    +0.057 A 
ATOM     27  C   UNL     1       1.329  -0.695  -0.018  0.00  0.00    +0.150 A 
ATOM     28  N   UNL     1       0.328  -0.025   0.531  0.00  0.00    -0.219 NA
ATOM     29  C   UNL     1       0.296   1.295   0.557  0.00  0.00    +0.224 A 
ATOM     30  N   UNL     1       1.269   2.016   0.034  0.00  0.00    -0.228 NA
BRANCH  22  35
ATOM     31  C   UNL     1       4.531  -6.132  -1.798  0.00  0.00    +0.044 C 
ATOM     32  C   UNL     1       4.291  -4.651  -1.656  0.00  0.00    -0.050 A 
ATOM     33  C   UNL     1       3.140  -4.087  -2.177  0.00  0.00    +0.004 A 
ATOM     34  C   UNL     1       2.914  -2.732  -2.050  0.00  0.00    +0.009 A 
ATOM     35  C   UNL     1       3.848  -1.930  -1.395  0.00  0.00    -0.017 A 
ATOM     36  C   UNL     1       5.009  -2.504  -0.877  0.00  0.00    +0.009 A 
ATOM     37  C   UNL     1       5.222  -3.861  -1.006  0.00  0.00    +0.004 A 
ENDBRANCH  22  35
ENDBRANCH  20  27
ENDBRANCH   1  20
TORSDOF 5
