REMARK  Name = ZINC39479189
REMARK  10 active torsions:
REMARK  status: ('A' for Active; 'I' for Inactive)
REMARK    1  A    between atoms: C_1  and  O_2
REMARK    2  A    between atoms: O_2  and  C_3
REMARK    3  A    between atoms: C_6  and  C_10
REMARK    4  A    between atoms: C_12  and  C_23
REMARK    5  A    between atoms: N_15  and  C_17
REMARK    6  A    between atoms: C_23  and  N_24
REMARK    7  A    between atoms: N_24  and  C_25
REMARK    8  A    between atoms: C_25  and  C_26
REMARK    9  A    between atoms: C_26  and  S_27
REMARK   10  A    between atoms: S_27  and  C_28
REMARK                            x       y       z     vdW  Elec       q    Type
REMARK                         _______ _______ _______ _____ _____    ______ ____
ROOT
ATOM      1  C   UNL     1       2.505  -2.499  -4.385  0.00  0.00    +0.108 C 
ATOM      2  C   UNL     1       1.472  -2.811  -5.501  0.00  0.00    +0.014 C 
ATOM      3  C   UNL     1       2.397  -2.764  -6.747  0.00  0.00    +0.127 C 
ATOM      4  N   UNL     1       3.383  -1.724  -6.401  0.00  0.00    -0.266 N 
ATOM      5  N   UNL     1       3.451  -1.572  -5.043  0.00  0.00    -0.232 NA
ATOM      6  H   UNL     1       4.392  -1.716  -4.707  0.00  0.00    +0.145 HD
ENDROOT
BRANCH   1  10
ATOM      7  C   UNL     1       0.606  -0.607  -1.056  0.00  0.00    +0.123 A 
ATOM      8  C   UNL     1       1.173   0.161  -2.062  0.00  0.00    +0.046 A 
ATOM      9  C   UNL     1       1.786  -0.453  -3.137  0.00  0.00    +0.011 A 
ATOM     10  C   UNL     1       1.836  -1.833  -3.211  0.00  0.00    +0.007 A 
ATOM     11  C   UNL     1       1.271  -2.602  -2.208  0.00  0.00    +0.132 A 
ATOM     12  C   UNL     1       0.661  -1.991  -1.127  0.00  0.00    +0.084 A 
ATOM     13  F   UNL     1       1.320  -3.950  -2.283  0.00  0.00    -0.205 F 
BRANCH   7  15
ATOM     14  C   UNL     1      -0.017   1.425   0.010  0.00  0.00    +0.277 C 
ATOM     15  O   UNL     1       0.002  -0.004   0.002  0.00  0.00    -0.495 OA
ENDBRANCH   7  15
ENDBRANCH   1  10
BRANCH   4  16
ATOM     16  C   UNL     1       4.141  -1.001  -7.325  0.00  0.00    +0.044 A 
ATOM     17  C   UNL     1       3.990  -1.237  -8.686  0.00  0.00    +0.024 A 
ATOM     18  C   UNL     1       4.740  -0.520  -9.597  0.00  0.00    +0.002 A 
ATOM     19  C   UNL     1       5.642   0.431  -9.156  0.00  0.00    +0.000 A 
ATOM     20  C   UNL     1       5.795   0.668  -7.802  0.00  0.00    +0.002 A 
ATOM     21  C   UNL     1       5.044  -0.041  -6.886  0.00  0.00    +0.024 A 
ENDBRANCH   4  16
BRANCH   2  22
ATOM     22  C   UNL     1       0.855  -4.199  -5.316  0.00  0.00    -0.076 C 
BRANCH  22  23
ATOM     23  N   UNL     1      -0.199  -4.404  -6.319  0.00  0.00    +0.380 N 
ATOM     24  H   UNL     1      -0.913  -3.700  -6.204  0.00  0.00    -0.086 HD
ATOM     25  H   UNL     1       0.198  -4.332  -7.244  0.00  0.00    -0.086 HD
BRANCH  23  26
ATOM     26  C   UNL     1      -0.790  -5.737  -6.142  0.00  0.00    -0.071 C 
BRANCH  26  27
ATOM     27  C   UNL     1      -1.888  -5.950  -7.186  0.00  0.00    +0.057 C 
BRANCH  27  28
ATOM     28  S   UNL     1      -2.619  -7.596  -6.967  0.00  0.00    -0.107 S 
BRANCH  28  29
ATOM     29  C   UNL     1      -3.849  -7.687  -8.226  0.00  0.00    +0.112 A 
ATOM     30  C   UNL     1      -4.682  -8.732  -8.472  0.00  0.00    +0.170 A 
ATOM     31  N   UNL     1      -5.467  -8.423  -9.504  0.00  0.00    -0.137 NA
ATOM     32  N   UNL     1      -5.186  -7.242  -9.932  0.00  0.00    -0.067 NA
ATOM     33  N   UNL     1      -4.153  -6.722  -9.138  0.00  0.00    -0.251 N 
ATOM     34  H   UNL     1      -3.737  -5.850  -9.223  0.00  0.00    +0.191 HD
ENDBRANCH  28  29
ENDBRANCH  27  28
ENDBRANCH  26  27
ENDBRANCH  23  26
ENDBRANCH  22  23
ENDBRANCH   2  22
TORSDOF 9
