REMARK  Name = ZINC35966630
REMARK  12 active torsions:
REMARK  status: ('A' for Active; 'I' for Inactive)
REMARK    1  A    between atoms: C_1  and  C_2
REMARK    2  A    between atoms: C_2  and  N_3
REMARK    3  A    between atoms: C_6  and  C_11
REMARK    4  A    between atoms: C_16  and  C_17
REMARK    5  A    between atoms: N_23  and  C_25
REMARK    6  A    between atoms: C_25  and  C_27
REMARK    7  A    between atoms: C_25  and  C_31
REMARK    8  A    between atoms: C_27  and  C_28
REMARK    9  A    between atoms: C_28  and  C_29
REMARK   10  A    between atoms: C_28  and  C_30
REMARK   11  A    between atoms: N_33  and  C_34
REMARK   12  A    between atoms: C_34  and  C_35
REMARK                            x       y       z     vdW  Elec       q    Type
REMARK                         _______ _______ _______ _____ _____    ______ ____
ROOT
ATOM      1  N   UNL     1       0.637  -0.468  -1.244  0.00  0.00    -0.257 N 
ATOM      2  C   UNL     1      -0.031  -0.621  -2.425  0.00  0.00    +0.042 C 
ATOM      3  C   UNL     1       0.601  -1.054  -3.535  0.00  0.00    +0.058 C 
ATOM      4  C   UNL     1       2.079  -1.367  -3.427  0.00  0.00    +0.142 C 
ATOM      5  N   UNL     1       2.708  -1.170  -2.110  0.00  0.00    -0.288 N 
ATOM      6  C   UNL     1       1.943  -0.725  -1.093  0.00  0.00    +0.307 C 
ATOM      7  O   UNL     1       2.454  -0.555  -0.004  0.00  0.00    -0.252 OA
ATOM      8  C   UNL     1      -0.302  -1.127  -4.616  0.00  0.00    +0.247 C 
ATOM      9  O   UNL     1      -0.002  -1.488  -5.739  0.00  0.00    -0.270 OA
ATOM     10  N   UNL     1      -1.537  -0.746  -4.244  0.00  0.00    -0.281 N 
ATOM     11  C   UNL     1      -1.473  -0.391  -2.819  0.00  0.00    +0.160 C 
ATOM     12  H   UNL     1       3.651  -1.353  -1.978  0.00  0.00    +0.151 HD
ENDROOT
BRANCH   4  13
ATOM     13  C   UNL     1       2.280  -2.806  -3.827  0.00  0.00    -0.011 A 
ATOM     14  C   UNL     1       1.840  -3.821  -2.998  0.00  0.00    +0.006 A 
ATOM     15  C   UNL     1       2.025  -5.141  -3.364  0.00  0.00    +0.000 A 
ATOM     16  C   UNL     1       2.648  -5.446  -4.560  0.00  0.00    +0.001 A 
ATOM     17  C   UNL     1       3.087  -4.431  -5.389  0.00  0.00    +0.013 A 
ATOM     18  C   UNL     1       2.899  -3.111  -5.024  0.00  0.00    +0.060 A 
BRANCH  18  19
ATOM     19  C   UNL     1       3.373  -2.004  -5.931  0.00  0.00    +0.418 C 
ATOM     20  F   UNL     1       3.897  -2.555  -7.105  0.00  0.00    -0.166 F 
ATOM     21  F   UNL     1       2.297  -1.168  -6.248  0.00  0.00    -0.166 F 
ATOM     22  F   UNL     1       4.364  -1.261  -5.281  0.00  0.00    -0.166 F 
ENDBRANCH  18  19
ENDBRANCH   4  13
BRANCH   1  24
ATOM     23  C   UNL     1      -0.066   1.536  -0.032  0.00  0.00    +0.025 C 
ATOM     24  C   UNL     1      -0.114   0.007  -0.080  0.00  0.00    +0.111 C 
ENDBRANCH   1  24
BRANCH  10  25
ATOM     25  C   UNL     1      -2.725  -0.695  -5.100  0.00  0.00    +0.163 C 
BRANCH  25  26
ATOM     26  C   UNL     1      -2.478   0.254  -6.245  0.00  0.00    +0.234 C 
ATOM     27  O   UNL     1      -1.415   0.830  -6.337  0.00  0.00    -0.274 OA
ATOM     28  N   UNL     1      -3.440   0.462  -7.167  0.00  0.00    -0.308 N 
ATOM     29  H   UNL     1      -4.290   0.001  -7.093  0.00  0.00    +0.149 HD
BRANCH  28  30
ATOM     30  C   UNL     1      -3.200   1.384  -8.280  0.00  0.00    +0.159 C 
BRANCH  30  31
ATOM     31  C   UNL     1      -4.422   1.437  -9.160  0.00  0.00    +0.058 A 
ATOM     32  C   UNL     1      -5.358   2.436  -8.970  0.00  0.00    +0.025 A 
ATOM     33  C   UNL     1      -6.478   2.476  -9.786  0.00  0.00    +0.003 A 
ATOM     34  C   UNL     1      -6.616   1.505 -10.766  0.00  0.00    +0.020 A 
ATOM     35  C   UNL     1      -5.639   0.536 -10.896  0.00  0.00    +0.111 A 
ATOM     36  N   UNL     1      -4.583   0.532 -10.106  0.00  0.00    -0.258 NA
ENDBRANCH  30  31
ENDBRANCH  28  30
ENDBRANCH  25  26
BRANCH  25  37
ATOM     37  C   UNL     1      -3.019  -2.092  -5.649  0.00  0.00    +0.035 C 
BRANCH  37  38
ATOM     38  C   UNL     1      -3.391  -3.026  -4.496  0.00  0.00    -0.015 C 
ATOM     39  C   UNL     1      -4.702  -2.556  -3.863  0.00  0.00    +0.007 C 
ATOM     40  C   UNL     1      -3.563  -4.450  -5.028  0.00  0.00    +0.007 C 
ENDBRANCH  37  38
ENDBRANCH  25  37
ENDBRANCH  10  25
TORSDOF 9
