REMARK  Name = ZINC36622110
REMARK  5 active torsions:
REMARK  status: ('A' for Active; 'I' for Inactive)
REMARK    1  A    between atoms: C_1  and  C_2
REMARK    2  A    between atoms: C_2  and  C_4
REMARK    3  A    between atoms: C_2  and  N_9
REMARK    4  A    between atoms: C_10  and  C_12
REMARK    5  A    between atoms: C_15  and  C_17
REMARK                            x       y       z     vdW  Elec       q    Type
REMARK                         _______ _______ _______ _____ _____    ______ ____
ROOT
ATOM      1  C   UNL     1       2.764  -1.086   2.362  0.00  0.00    +0.190 A 
ATOM      2  C   UNL     1       4.127  -1.240   2.480  0.00  0.00    +0.055 A 
ATOM      3  C   UNL     1       4.370  -1.724   3.770  0.00  0.00    +0.053 A 
ATOM      4  C   UNL     1       3.147  -1.847   4.389  0.00  0.00    +0.161 A 
ATOM      5  O   UNL     1       2.192  -1.452   3.527  0.00  0.00    -0.448 OA
ENDROOT
BRANCH   4   6
ATOM      6  C   UNL     1       2.921  -2.324   5.763  0.00  0.00    +0.145 A 
ATOM      7  N   UNL     1       3.806  -2.713   6.658  0.00  0.00    -0.236 NA
ATOM      8  C   UNL     1       3.458  -3.127   7.885  0.00  0.00    +0.079 A 
ATOM      9  C   UNL     1       4.305  -3.569   8.931  0.00  0.00    +0.029 A 
ATOM     10  C   UNL     1       3.789  -3.959  10.126  0.00  0.00    +0.002 A 
ATOM     11  C   UNL     1       2.422  -3.943  10.372  0.00  0.00    +0.001 A 
ATOM     12  C   UNL     1       1.560  -3.519   9.378  0.00  0.00    +0.017 A 
ATOM     13  C   UNL     1       2.070  -3.122   8.166  0.00  0.00    +0.040 A 
ATOM     14  S   UNL     1       1.379  -2.516   6.646  0.00  0.00    -0.064 S 
ENDBRANCH   4   6
BRANCH   1  16
ATOM     15  N   UNL     1       0.711  -0.489   1.189  0.00  0.00    -0.302 N 
ATOM     16  C   UNL     1       2.054  -0.600   1.174  0.00  0.00    +0.280 C 
ATOM     17  O   UNL     1       2.678  -0.296   0.174  0.00  0.00    -0.267 OA
ATOM     18  H   UNL     1       0.213  -0.731   1.986  0.00  0.00    +0.150 HD
BRANCH  15  20
ATOM     19  C   UNL     1      -0.019   1.526   0.010  0.00  0.00    +0.033 C 
ATOM     20  C   UNL     1       0.002  -0.004   0.002  0.00  0.00    +0.107 C 
BRANCH  20  21
ATOM     21  C   UNL     1      -1.412  -0.526   0.013  0.00  0.00    +0.010 A 
ATOM     22  C   UNL     1      -2.157  -0.992  -1.019  0.00  0.00    +0.013 A 
ATOM     23  C   UNL     1      -3.447  -1.425  -0.772  0.00  0.00    +0.008 A 
ATOM     24  C   UNL     1      -3.927  -1.370   0.494  0.00  0.00    +0.045 A 
ATOM     25  S   UNL     1      -2.537  -0.697   1.389  0.00  0.00    -0.100 S 
ENDBRANCH  20  21
ENDBRANCH  15  20
ENDBRANCH   1  16
TORSDOF 4
