REMARK  Name = ZINC36500790
REMARK  15 active torsions:
REMARK  status: ('A' for Active; 'I' for Inactive)
REMARK    1  A    between atoms: C_1  and  C_2
REMARK    2  A    between atoms: C_2  and  C_3
REMARK    3  A    between atoms: C_3  and  C_4
REMARK    4  A    between atoms: C_5  and  C_6
REMARK    5  A    between atoms: C_6  and  C_8
REMARK    6  A    between atoms: C_6  and  N_22
REMARK    7  A    between atoms: N_10  and  C_11
REMARK    8  A    between atoms: C_11  and  S_12
REMARK    9  A    between atoms: S_12  and  C_15
REMARK   10  A    between atoms: C_18  and  C_21
REMARK   11  A    between atoms: N_22  and  C_23
REMARK   12  A    between atoms: C_23  and  C_24
REMARK   13  A    between atoms: C_29  and  C_31
REMARK   14  A    between atoms: C_35  and  O_38
REMARK   15  A    between atoms: C_36  and  O_37
REMARK                            x       y       z     vdW  Elec       q    Type
REMARK                         _______ _______ _______ _____ _____    ______ ____
ROOT
ATOM      1  C   UNL     1      -1.143   3.232   4.768  0.00  0.00    +0.186 C 
ENDROOT
BRANCH   1   2
ATOM      2  C   UNL     1      -2.551   3.036   5.268  0.00  0.00    +0.239 C 
ATOM      3  O   UNL     1      -2.753   2.830   6.446  0.00  0.00    -0.273 OA
ATOM      4  N   UNL     1      -3.585   3.091   4.405  0.00  0.00    -0.294 N 
ATOM      5  H   UNL     1      -3.424   3.256   3.463  0.00  0.00    +0.150 HD
BRANCH   4   6
ATOM      6  C   UNL     1      -4.954   2.901   4.891  0.00  0.00    +0.278 C 
BRANCH   6   7
ATOM      7  S   UNL     1      -5.708   4.517   5.223  0.00  0.00    +0.013 S 
ATOM      8  O   UNL     1      -7.058   4.352   5.635  0.00  0.00    -0.168 OA
ATOM      9  O   UNL     1      -4.815   5.328   5.974  0.00  0.00    -0.168 OA
BRANCH   7  10
ATOM     10  C   UNL     1      -5.811   5.301   3.649  0.00  0.00    +0.090 A 
ATOM     11  C   UNL     1      -4.762   6.077   3.193  0.00  0.00    +0.027 A 
ATOM     12  C   UNL     1      -4.843   6.692   1.957  0.00  0.00    +0.005 A 
ATOM     13  C   UNL     1      -5.973   6.530   1.177  0.00  0.00    -0.050 A 
ATOM     14  C   UNL     1      -7.021   5.753   1.633  0.00  0.00    +0.005 A 
ATOM     15  C   UNL     1      -6.939   5.135   2.866  0.00  0.00    +0.027 A 
ATOM     16  C   UNL     1      -6.061   7.201  -0.169  0.00  0.00    +0.044 C 
ENDBRANCH   7  10
ENDBRANCH   6   7
ENDBRANCH   4   6
ENDBRANCH   1   2
BRANCH   1  17
ATOM     17  N   UNL     1      -0.198   2.682   5.743  0.00  0.00    -0.275 N 
ATOM     18  C   UNL     1       0.964   3.320   5.989  0.00  0.00    +0.251 C 
ATOM     19  O   UNL     1       1.800   2.805   6.706  0.00  0.00    -0.270 OA
BRANCH  18  20
ATOM     20  C   UNL     1       1.222   4.642   5.388  0.00  0.00    +0.082 A 
ATOM     21  C   UNL     1       0.887   4.884   4.052  0.00  0.00    +0.017 A 
ATOM     22  C   UNL     1       1.128   6.120   3.494  0.00  0.00    +0.005 A 
ATOM     23  C   UNL     1       1.702   7.129   4.250  0.00  0.00    +0.049 A 
ATOM     24  C   UNL     1       2.040   6.905   5.574  0.00  0.00    +0.159 A 
ATOM     25  C   UNL     1       1.797   5.663   6.153  0.00  0.00    +0.171 A 
BRANCH  25  26
ATOM     26  O   UNL     1       2.121   5.441   7.453  0.00  0.00    -0.503 OA
ATOM     27  H   UNL     1       3.020   5.108   7.583  0.00  0.00    +0.292 HD
ENDBRANCH  25  26
BRANCH  24  28
ATOM     28  O   UNL     1       2.604   7.900   6.310  0.00  0.00    -0.503 OA
ATOM     29  H   UNL     1       1.964   8.458   6.773  0.00  0.00    +0.292 HD
ENDBRANCH  24  28
ENDBRANCH  18  20
BRANCH  17  30
ATOM     30  C   UNL     1      -0.515   1.440   6.452  0.00  0.00    +0.183 C 
BRANCH  30  31
ATOM     31  C   UNL     1      -0.491   1.689   7.938  0.00  0.00    +0.122 A 
ATOM     32  C   UNL     1      -1.421   1.280   8.819  0.00  0.00    +0.046 A 
ATOM     33  C   UNL     1      -1.002   1.727  10.094  0.00  0.00    +0.041 A 
ATOM     34  C   UNL     1       0.159   2.383   9.914  0.00  0.00    +0.195 A 
ATOM     35  O   UNL     1       0.466   2.351   8.607  0.00  0.00    -0.466 OA
ENDBRANCH  30  31
ENDBRANCH  17  30
ENDBRANCH   1  17
BRANCH   1  37
ATOM     36  C   UNL     1      -0.861   1.217   3.419  0.00  0.00    -0.029 C 
ATOM     37  C   UNL     1      -0.974   2.521   3.450  0.00  0.00    +0.000 C 
BRANCH  36  38
ATOM     38  C   UNL     1      -0.502   0.522   2.131  0.00  0.00    +0.027 C 
BRANCH  38  40
ATOM     39  C   UNL     1       1.349  -0.566   0.853  0.00  0.00    +0.004 C 
ATOM     40  C   UNL     1       1.004   0.251   2.099  0.00  0.00    +0.001 C 
ENDBRANCH  38  40
ENDBRANCH  36  38
ENDBRANCH   1  37
TORSDOF 13
