REMARK  Name = ZINC39601627
REMARK  8 active torsions:
REMARK  status: ('A' for Active; 'I' for Inactive)
REMARK    1  A    between atoms: C_2  and  C_9
REMARK    2  A    between atoms: C_13  and  C_22
REMARK    3  A    between atoms: N_24  and  C_25
REMARK    4  A    between atoms: C_25  and  C_26
REMARK    5  A    between atoms: C_26  and  O_27
REMARK    6  A    between atoms: O_27  and  C_28
REMARK    7  A    between atoms: C_28  and  C_29
REMARK    8  A    between atoms: C_29  and  O_30
REMARK                            x       y       z     vdW  Elec       q    Type
REMARK                         _______ _______ _______ _____ _____    ______ ____
ROOT
ATOM      1  C   UNL     1       1.008   2.900  -0.435  0.00  0.00    +0.247 C 
ATOM      2  O   UNL     1      -0.038   3.518  -0.490  0.00  0.00    -0.270 OA
ATOM      3  N   UNL     1       2.165   3.552  -0.210  0.00  0.00    -0.296 N 
ATOM      4  C   UNL     1       3.540   2.998  -0.234  0.00  0.00    +0.121 C 
ATOM      5  C   UNL     1       4.392   4.100  -0.903  0.00  0.00    +0.100 C 
ATOM      6  C   UNL     1       3.608   5.401  -0.667  0.00  0.00    -0.004 C 
ATOM      7  C   UNL     1       2.352   4.987   0.113  0.00  0.00    +0.115 C 
ATOM      8  C   UNL     1       3.212   6.029  -1.999  0.00  0.00    -0.010 C 
ATOM      9  C   UNL     1       2.483   7.351  -1.739  0.00  0.00    -0.082 C 
ATOM     10  N   UNL     1       3.363   8.257  -0.990  0.00  0.00    +0.379 N 
ATOM     11  C   UNL     1       3.664   7.687   0.328  0.00  0.00    -0.082 C 
ATOM     12  C   UNL     1       4.442   6.379   0.155  0.00  0.00    -0.010 C 
ATOM     13  H   UNL     1       4.222   8.389  -1.503  0.00  0.00    -0.086 HD
ATOM     14  H   UNL     1       2.904   9.148  -0.873  0.00  0.00    -0.086 HD
ENDROOT
BRANCH   1  16
ATOM     15  C   UNL     1      -0.086   0.798  -1.204  0.00  0.00    +0.033 A 
ATOM     16  C   UNL     1       1.009   1.432  -0.616  0.00  0.00    +0.040 A 
ATOM     17  C   UNL     1       2.106   0.676  -0.200  0.00  0.00    +0.033 A 
ATOM     18  C   UNL     1       2.102  -0.694  -0.372  0.00  0.00    +0.043 A 
ATOM     19  C   UNL     1       1.012  -1.318  -0.956  0.00  0.00    +0.040 A 
ATOM     20  C   UNL     1      -0.079  -0.573  -1.370  0.00  0.00    +0.043 A 
ATOM     21 CL   UNL     1      -1.440  -1.365  -2.100  0.00  0.00    -0.083 Cl
ATOM     22 CL   UNL     1       3.466  -1.636   0.144  0.00  0.00    -0.083 Cl
ENDBRANCH   1  16
BRANCH   5  23
ATOM     23  C   UNL     1       4.533   3.830  -2.380  0.00  0.00    +0.218 C 
ATOM     24  O   UNL     1       3.622   3.313  -2.991  0.00  0.00    -0.275 OA
ATOM     25  N   UNL     1       5.670   4.164  -3.020  0.00  0.00    -0.313 N 
ATOM     26  H   UNL     1       6.370   4.642  -2.549  0.00  0.00    +0.149 HD
BRANCH  25  27
ATOM     27  C   UNL     1       5.850   3.805  -4.429  0.00  0.00    +0.132 C 
BRANCH  27  28
ATOM     28  C   UNL     1       7.263   4.185  -4.876  0.00  0.00    +0.178 C 
BRANCH  28  29
ATOM     29  O   UNL     1       8.217   3.397  -4.161  0.00  0.00    -0.376 OA
BRANCH  29  30
ATOM     30  C   UNL     1       9.576   3.752  -4.422  0.00  0.00    +0.187 C 
BRANCH  30  31
ATOM     31  C   UNL     1      10.506   2.771  -3.705  0.00  0.00    +0.184 C 
BRANCH  31  32
ATOM     32  O   UNL     1      10.349   1.467  -4.268  0.00  0.00    -0.393 OA
ATOM     33  H   UNL     1      10.909   0.793  -3.861  0.00  0.00    +0.209 HD
ENDBRANCH  31  32
ENDBRANCH  30  31
ENDBRANCH  29  30
ENDBRANCH  28  29
ENDBRANCH  27  28
ENDBRANCH  25  27
ENDBRANCH   5  23
TORSDOF 8
