REMARK  Name = ZINC40337455
REMARK  6 active torsions:
REMARK  status: ('A' for Active; 'I' for Inactive)
REMARK    1  A    between atoms: C_1  and  C_2
REMARK    2  A    between atoms: C_2  and  C_3
REMARK    3  A    between atoms: C_3  and  N_4
REMARK    4  A    between atoms: C_6  and  N_22
REMARK    5  A    between atoms: C_8  and  C_9
REMARK    6  A    between atoms: C_19  and  C_21
REMARK                            x       y       z     vdW  Elec       q    Type
REMARK                         _______ _______ _______ _____ _____    ______ ____
ROOT
ATOM      1  C   UNL     1      -1.797  -2.293  -2.555  0.00  0.00    +0.264 C 
ATOM      2  O   UNL     1      -2.545  -3.210  -2.839  0.00  0.00    -0.268 OA
ATOM      3  N   UNL     1      -2.266  -1.030  -2.509  0.00  0.00    -0.289 N 
ATOM      4  C   UNL     1      -1.383   0.080  -2.122  0.00  0.00    +0.114 C 
ATOM      5  C   UNL     1      -1.226   1.015  -3.331  0.00  0.00    +0.062 C 
ATOM      6  C   UNL     1      -2.564   1.203  -3.968  0.00  0.00    -0.004 A 
ATOM      7  C   UNL     1      -3.685   0.451  -3.796  0.00  0.00    -0.017 A 
ATOM      8  C   UNL     1      -4.814   0.835  -4.519  0.00  0.00    +0.013 A 
ATOM      9  C   UNL     1      -4.759   1.911  -5.336  0.00  0.00    +0.046 A 
ATOM     10  S   UNL     1      -3.070   2.451  -5.122  0.00  0.00    -0.101 S 
ATOM     11  C   UNL     1      -3.666  -0.743  -2.850  0.00  0.00    +0.104 C 
ATOM     12  C   UNL     1      -4.291  -1.958  -3.538  0.00  0.00    +0.033 C 
ENDROOT
BRANCH   1  17
ATOM     13  N   UNL     1       0.130  -3.729  -1.750  0.00  0.00    -0.341 N 
ATOM     14  C   UNL     1       1.478  -3.594  -1.627  0.00  0.00    +0.109 A 
ATOM     15  C   UNL     1       1.833  -2.353  -2.050  0.00  0.00    +0.043 A 
ATOM     16  C   UNL     1       0.666  -1.688  -2.451  0.00  0.00    +0.055 A 
ATOM     17  C   UNL     1      -0.385  -2.561  -2.263  0.00  0.00    +0.106 A 
BRANCH  15  18
ATOM     18  N   UNL     1       3.138  -1.828  -2.079  0.00  0.00    -0.357 N 
ATOM     19  H   UNL     1       3.885  -2.369  -1.779  0.00  0.00    +0.142 HD
ATOM     20  H   UNL     1       3.291  -0.926  -2.400  0.00  0.00    +0.142 HD
ENDBRANCH  15  18
BRANCH  13  21
ATOM     21  C   UNL     1      -0.644  -4.923  -1.399  0.00  0.00    +0.122 C 
BRANCH  21  23
ATOM     22  C   UNL     1      -1.722  -6.987  -2.303  0.00  0.00    +0.005 C 
ATOM     23  C   UNL     1      -0.810  -5.805  -2.637  0.00  0.00    +0.018 C 
ENDBRANCH  21  23
ENDBRANCH  13  21
ENDBRANCH   1  17
TORSDOF 4
