REMARK  Name = ZINC10637139
REMARK  5 active torsions:
REMARK  status: ('A' for Active; 'I' for Inactive)
REMARK    1  A    between atoms: C_3  and  N_9
REMARK    2  A    between atoms: C_10  and  C_12
REMARK    3  A    between atoms: C_12  and  N_13
REMARK    4  A    between atoms: C_15  and  S_20
REMARK    5  A    between atoms: S_20  and  N_23
REMARK                            x       y       z     vdW  Elec       q    Type
REMARK                         _______ _______ _______ _____ _____    ______ ____
ROOT
ATOM      1  N   UNL     1      -2.204   1.302   3.311  0.00  0.00    -0.305 N 
ATOM      2  C   UNL     1      -1.512   0.941   2.201  0.00  0.00    +0.118 A 
ATOM      3  C   UNL     1      -0.926   1.877   1.417  0.00  0.00    +0.122 A 
ATOM      4  C   UNL     1      -1.041   3.235   1.744  0.00  0.00    +0.035 A 
ATOM      5  C   UNL     1      -1.740   3.596   2.858  0.00  0.00    +0.072 A 
ATOM      6  C   UNL     1      -2.331   2.599   3.652  0.00  0.00    +0.252 A 
ATOM      7  O   UNL     1      -2.960   2.908   4.652  0.00  0.00    -0.268 OA
ENDROOT
BRANCH   3   8
ATOM      8  S   UNL     1      -0.027   1.388  -0.018  0.00  0.00    +0.062 S 
ATOM      9  O   UNL     1      -0.016  -0.033  -0.025  0.00  0.00    -0.153 OA
ATOM     10  O   UNL     1       1.166   2.159  -0.031  0.00  0.00    -0.153 OA
BRANCH   8  11
ATOM     11  N   UNL     1      -0.912   1.862  -1.335  0.00  0.00    -0.177 NA
ATOM     12  C   UNL     1      -1.933   1.053  -2.017  0.00  0.00    +0.109 C 
ATOM     13  C   UNL     1      -2.469   1.891  -3.197  0.00  0.00    +0.018 C 
ATOM     14  C   UNL     1      -1.316   2.896  -3.458  0.00  0.00    +0.018 C 
ATOM     15  C   UNL     1      -0.803   3.162  -2.021  0.00  0.00    +0.109 C 
ENDBRANCH   8  11
ENDBRANCH   3   8
BRANCH   1  16
ATOM     16  C   UNL     1      -2.824   0.270   4.146  0.00  0.00    +0.220 C 
BRANCH  16  18
ATOM     17  N   UNL     1      -4.991  -0.916   4.277  0.00  0.00    -0.283 N 
ATOM     18  C   UNL     1      -4.224   0.003   3.657  0.00  0.00    +0.237 C 
ATOM     19  O   UNL     1      -4.662   0.615   2.705  0.00  0.00    -0.274 OA
ATOM     20  H   UNL     1      -4.620  -1.451   4.996  0.00  0.00    +0.155 HD
BRANCH  17  23
ATOM     21  C   UNL     1      -7.993  -1.135   2.164  0.00  0.00    +0.017 A 
ATOM     22  C   UNL     1      -6.679  -0.955   2.550  0.00  0.00    +0.026 A 
ATOM     23  C   UNL     1      -6.322  -1.097   3.884  0.00  0.00    +0.052 A 
ATOM     24  C   UNL     1      -7.289  -1.425   4.828  0.00  0.00    +0.063 A 
ATOM     25  C   UNL     1      -8.603  -1.599   4.437  0.00  0.00    +0.037 A 
ATOM     26  C   UNL     1      -8.954  -1.457   3.106  0.00  0.00    +0.019 A 
ATOM     27 BR   UNL     1     -10.752  -1.703   2.574  0.00  0.00    -0.050 Br
ATOM     28 CL   UNL     1      -6.846  -1.611   6.496  0.00  0.00    -0.082 Cl
ENDBRANCH  17  23
ENDBRANCH  16  18
ENDBRANCH   1  16
TORSDOF 5
