REMARK  Name = ZINC04825383
REMARK  14 active torsions:
REMARK  status: ('A' for Active; 'I' for Inactive)
REMARK    1  A    between atoms: C_1  and  C_2
REMARK    2  A    between atoms: C_2  and  C_3
REMARK    3  A    between atoms: C_2  and  C_4
REMARK    4  A    between atoms: C_2  and  N_5
REMARK    5  A    between atoms: N_5  and  C_6
REMARK    6  A    between atoms: N_5  and  C_9
REMARK    7  A    between atoms: C_6  and  C_7
REMARK    8  A    between atoms: C_7  and  O_8
REMARK    9  A    between atoms: C_9  and  C_10
REMARK   10  A    between atoms: C_11  and  C_12
REMARK   11  A    between atoms: C_12  and  C_13
REMARK   12  A    between atoms: C_13  and  C_14
REMARK   13  A    between atoms: C_13  and  C_20
REMARK   14  A    between atoms: C_13  and  O_25
REMARK                            x       y       z     vdW  Elec       q    Type
REMARK                         _______ _______ _______ _____ _____    ______ ____
ROOT
ATOM      1  C   UNL     1      -1.754  -4.112  -3.542  0.00  0.00    +0.128 C 
ENDROOT
BRANCH   1   3
ATOM      2  C   UNL     1       0.162  -2.712  -2.370  0.00  0.00    -0.121 C 
ATOM      3  C   UNL     1      -0.688  -3.333  -2.890  0.00  0.00    -0.101 C 
BRANCH   2   4
ATOM      4  C   UNL     1       1.228  -1.934  -1.718  0.00  0.00    +0.013 C 
BRANCH   4   5
ATOM      5  N   UNL     1       0.857  -0.512  -1.704  0.00  0.00    +0.392 N 
ATOM      6  H   UNL     1       0.471  -0.256  -2.600  0.00  0.00    -0.080 HD
BRANCH   5   8
ATOM      7  C   UNL     1      -0.924   1.000  -0.970  0.00  0.00    -0.010 C 
ATOM      8  C   UNL     1      -0.144  -0.278  -0.654  0.00  0.00    -0.073 C 
ATOM      9  C   UNL     1       0.559  -0.126   0.696  0.00  0.00    -0.010 C 
ATOM     10  C   UNL     1      -1.109  -1.463  -0.596  0.00  0.00    -0.010 C 
ENDBRANCH   5   8
BRANCH   5  11
ATOM     11  C   UNL     1       2.050   0.302  -1.434  0.00  0.00    -0.049 C 
BRANCH  11  12
ATOM     12  C   UNL     1       1.709   1.782  -1.619  0.00  0.00    +0.137 C 
BRANCH  12  13
ATOM     13  O   UNL     1       1.281   2.332  -0.372  0.00  0.00    -0.397 OA
ATOM     14  H   UNL     1       0.981   3.250  -0.429  0.00  0.00    +0.209 HD
ENDBRANCH  12  13
ENDBRANCH  11  12
ENDBRANCH   5  11
ENDBRANCH   4   5
ENDBRANCH   2   4
ENDBRANCH   1   3
BRANCH   1  15
ATOM     15  C   UNL     1      -1.368  -5.592  -3.557  0.00  0.00    +0.104 C 
BRANCH  15  16
ATOM     16  C   UNL     1      -2.399  -6.372  -4.331  0.00  0.00    -0.015 A 
ATOM     17  C   UNL     1      -2.244  -6.562  -5.692  0.00  0.00    +0.006 A 
ATOM     18  C   UNL     1      -3.189  -7.277  -6.402  0.00  0.00    +0.000 A 
ATOM     19  C   UNL     1      -4.290  -7.804  -5.752  0.00  0.00    +0.000 A 
ATOM     20  C   UNL     1      -4.444  -7.615  -4.391  0.00  0.00    +0.000 A 
ATOM     21  C   UNL     1      -3.496  -6.903  -3.680  0.00  0.00    +0.006 A 
ENDBRANCH  15  16
BRANCH  15  22
ATOM     22  C   UNL     1       0.001  -5.755  -4.221  0.00  0.00    +0.026 C 
ATOM     23  C   UNL     1       0.496  -7.218  -4.104  0.00  0.00    +0.007 C 
ATOM     24  C   UNL     1       2.030  -7.109  -4.228  0.00  0.00    +0.000 C 
ATOM     25  C   UNL     1       2.404  -5.676  -3.811  0.00  0.00    +0.000 C 
ATOM     26  C   UNL     1       1.085  -4.964  -3.448  0.00  0.00    +0.007 C 
ENDBRANCH  15  22
BRANCH  15  27
ATOM     27  O   UNL     1      -1.308  -6.082  -2.216  0.00  0.00    -0.383 OA
ATOM     28  H   UNL     1      -2.143  -6.010  -1.733  0.00  0.00    +0.211 HD
ENDBRANCH  15  27
ENDBRANCH   1  15
TORSDOF 11
