REMARK  Name = ZINC35426959
REMARK  10 active torsions:
REMARK  status: ('A' for Active; 'I' for Inactive)
REMARK    1  A    between atoms: C_1  and  C_2
REMARK    2  A    between atoms: C_2  and  C_3
REMARK    3  A    between atoms: N_16  and  C_19
REMARK    4  A    between atoms: N_24  and  C_25
REMARK    5  A    between atoms: C_27  and  O_35
REMARK    6  A    between atoms: C_28  and  O_33
REMARK    7  A    between atoms: C_29  and  O_31
REMARK    8  A    between atoms: O_31  and  C_32
REMARK    9  A    between atoms: O_33  and  C_34
REMARK   10  A    between atoms: O_35  and  C_36
REMARK                            x       y       z     vdW  Elec       q    Type
REMARK                         _______ _______ _______ _____ _____    ______ ____
ROOT
ATOM      1  C   UNL     1      -1.181  -0.307  -0.059  0.00  0.00    +0.125 C 
ATOM      2  C   UNL     1      -1.135  -1.778   0.228  0.00  0.00    +0.045 A 
ATOM      3  C   UNL     1      -1.704  -2.469   1.226  0.00  0.00    +0.025 A 
ATOM      4  C   UNL     1      -1.314  -3.819   1.082  0.00  0.00    +0.020 A 
ATOM      5  C   UNL     1      -0.529  -3.901  -0.016  0.00  0.00    +0.092 A 
ATOM      6  N   UNL     1      -0.439  -2.666  -0.561  0.00  0.00    -0.312 N 
ATOM      7  C   UNL     1       0.166  -2.217  -1.728  0.00  0.00    +0.090 A 
ATOM      8  C   UNL     1      -0.430  -1.380  -2.621  0.00  0.00    +0.004 A 
ATOM      9  C   UNL     1       0.340  -0.991  -3.732  0.00  0.00    -0.034 A 
ATOM     10  C   UNL     1       1.597  -1.502  -3.845  0.00  0.00    -0.021 A 
ATOM     11  S   UNL     1       1.765  -2.530  -2.410  0.00  0.00    -0.077 S 
ATOM     12  C   UNL     1       2.577  -1.237  -4.939  0.00  0.00    -0.036 C 
ATOM     13  N   UNL     1       1.855  -0.625  -6.070  0.00  0.00    +0.381 N 
ATOM     14  C   UNL     1       1.039   0.495  -5.582  0.00  0.00    -0.074 C 
ATOM     15  C   UNL     1      -0.170  -0.029  -4.803  0.00  0.00    +0.018 C 
ATOM     16  C   UNL     1       2.822  -0.131  -7.060  0.00  0.00    -0.096 C 
ATOM     17  C   UNL     1      -1.856  -0.927  -2.404  0.00  0.00    +0.148 C 
ATOM     18  N   UNL     1      -1.992  -0.006  -1.264  0.00  0.00    -0.272 N 
ATOM     19  C   UNL     1      -2.814   1.061  -1.313  0.00  0.00    +0.307 C 
ATOM     20  O   UNL     1      -2.904   1.804  -0.356  0.00  0.00    -0.252 OA
ATOM     21  N   UNL     1      -3.536   1.303  -2.425  0.00  0.00    -0.269 N 
ATOM     22  H   UNL     1      -3.408   0.756  -3.216  0.00  0.00    +0.156 HD
ATOM     23  H   UNL     1       1.257  -1.315  -6.500  0.00  0.00    -0.082 HD
ENDROOT
BRANCH  21  24
ATOM     24  C   UNL     1      -4.473   2.345  -2.438  0.00  0.00    +0.042 A 
ATOM     25  C   UNL     1      -4.708   3.051  -3.610  0.00  0.00    +0.073 A 
ATOM     26  C   UNL     1      -5.635   4.082  -3.624  0.00  0.00    +0.167 A 
ATOM     27  C   UNL     1      -6.329   4.409  -2.465  0.00  0.00    +0.204 A 
ATOM     28  C   UNL     1      -6.092   3.701  -1.293  0.00  0.00    +0.167 A 
ATOM     29  C   UNL     1      -5.169   2.667  -1.282  0.00  0.00    +0.073 A 
BRANCH  28  30
ATOM     30  O   UNL     1      -6.770   4.020  -0.158  0.00  0.00    -0.491 OA
ATOM     31  C   UNL     1      -6.477   3.251   1.011  0.00  0.00    +0.277 C 
ENDBRANCH  28  30
BRANCH  27  32
ATOM     32  O   UNL     1      -7.239   5.421  -2.478  0.00  0.00    -0.488 OA
ATOM     33  C   UNL     1      -8.588   5.077  -2.799  0.00  0.00    +0.277 C 
ENDBRANCH  27  32
BRANCH  26  34
ATOM     34  O   UNL     1      -5.865   4.774  -4.772  0.00  0.00    -0.491 OA
ATOM     35  C   UNL     1      -5.116   4.385  -5.926  0.00  0.00    +0.277 C 
ENDBRANCH  26  34
ENDBRANCH  21  24
BRANCH   1  37
ATOM     36  C   UNL     1       0.226   1.726  -0.420  0.00  0.00    +0.006 C 
ATOM     37  C   UNL     1       0.245   0.203  -0.278  0.00  0.00    +0.025 C 
ENDBRANCH   1  37
TORSDOF 5
