REMARK  Name = ZINC40314927
REMARK  15 active torsions:
REMARK  status: ('A' for Active; 'I' for Inactive)
REMARK    1  A    between atoms: C_1  and  C_2
REMARK    2  A    between atoms: C_5  and  O_9
REMARK    3  A    between atoms: C_7  and  C_8
REMARK    4  A    between atoms: O_9  and  C_10
REMARK    5  A    between atoms: C_10  and  C_11
REMARK    6  A    between atoms: C_11  and  C_13
REMARK    7  A    between atoms: C_11  and  O_34
REMARK    8  A    between atoms: C_13  and  N_14
REMARK    9  A    between atoms: N_14  and  C_15
REMARK   10  A    between atoms: N_14  and  C_26
REMARK   11  A    between atoms: C_15  and  C_16
REMARK   12  A    between atoms: C_19  and  C_22
REMARK   13  A    between atoms: C_22  and  C_23
REMARK   14  A    between atoms: C_22  and  C_24
REMARK   15  A    between atoms: C_22  and  C_25
REMARK                            x       y       z     vdW  Elec       q    Type
REMARK                         _______ _______ _______ _____ _____    ______ ____
ROOT
ATOM      1  N   UNL     1      -0.556  -8.348  -2.788  0.00  0.00    +0.387 N 
ATOM      2  H   UNL     1      -1.542  -8.535  -2.683  0.00  0.00    -0.081 HD
ENDROOT
BRANCH   1   3
ATOM      3  C   UNL     1      -0.015  -7.851  -1.516  0.00  0.00    -0.045 C 
ATOM      4  C   UNL     1       0.359  -9.036  -0.611  0.00  0.00    +0.009 C 
ATOM      5  C   UNL     1       0.624  -8.538   0.830  0.00  0.00    +0.164 C 
ATOM      6  S   UNL     1      -0.435  -7.038   0.939  0.00  0.00    -0.033 S 
ATOM      7  O   UNL     1       0.393  -5.901   1.141  0.00  0.00    -0.174 OA
ATOM      8  O   UNL     1      -1.505  -7.292   1.839  0.00  0.00    -0.174 OA
ATOM      9  C   UNL     1      -1.093  -7.003  -0.781  0.00  0.00    +0.151 C 
ENDBRANCH   1   3
BRANCH   1  10
ATOM     10  C   UNL     1      -0.358  -7.336  -3.834  0.00  0.00    -0.043 C 
BRANCH  10  11
ATOM     11  C   UNL     1      -1.487  -6.306  -3.767  0.00  0.00    +0.135 C 
BRANCH  11  12
ATOM     12  O   UNL     1      -2.746  -6.981  -3.730  0.00  0.00    -0.390 OA
ATOM     13  H   UNL     1      -2.916  -7.540  -4.501  0.00  0.00    +0.210 HD
ENDBRANCH  11  12
BRANCH  11  14
ATOM     14  C   UNL     1      -1.428  -5.404  -5.001  0.00  0.00    +0.258 C 
BRANCH  14  15
ATOM     15  O   UNL     1      -2.408  -4.370  -4.883  0.00  0.00    -0.489 OA
BRANCH  15  20
ATOM     16  C   UNL     1      -2.740  -0.667  -9.114  0.00  0.00    +0.044 C 
ATOM     17  C   UNL     1      -2.651  -1.657  -7.982  0.00  0.00    -0.047 A 
ATOM     18  C   UNL     1      -1.724  -2.682  -8.033  0.00  0.00    +0.007 A 
ATOM     19  C   UNL     1      -1.640  -3.591  -6.996  0.00  0.00    +0.046 A 
ATOM     20  C   UNL     1      -2.488  -3.476  -5.904  0.00  0.00    +0.121 A 
ATOM     21  C   UNL     1      -3.417  -2.447  -5.855  0.00  0.00    +0.049 A 
ATOM     22  C   UNL     1      -3.492  -1.537  -6.891  0.00  0.00    -0.044 A 
ATOM     23  C   UNL     1      -4.497  -0.415  -6.837  0.00  0.00    +0.044 C 
ENDBRANCH  15  20
ENDBRANCH  14  15
ENDBRANCH  11  14
ENDBRANCH  10  11
ENDBRANCH   1  10
BRANCH   1  24
ATOM     24  C   UNL     1       0.139  -9.586  -3.165  0.00  0.00    -0.042 C 
BRANCH  24  25
ATOM     25  C   UNL     1      -0.387 -10.730  -2.338  0.00  0.00    -0.064 A 
ATOM     26  C   UNL     1       0.493 -11.559  -1.666  0.00  0.00    +0.002 A 
ATOM     27  C   UNL     1       0.011 -12.608  -0.907  0.00  0.00    +0.004 A 
ATOM     28  C   UNL     1      -1.351 -12.830  -0.820  0.00  0.00    -0.042 A 
ATOM     29  C   UNL     1      -2.231 -12.001  -1.491  0.00  0.00    +0.004 A 
ATOM     30  C   UNL     1      -1.748 -10.948  -2.247  0.00  0.00    +0.002 A 
BRANCH  28  31
ATOM     31  C   UNL     1      -1.877 -13.975   0.006  0.00  0.00    -0.013 C 
ATOM     32  C   UNL     1      -1.437 -13.798   1.461  0.00  0.00    +0.015 C 
ATOM     33  C   UNL     1      -3.405 -13.996  -0.065  0.00  0.00    +0.015 C 
ATOM     34  C   UNL     1      -1.323 -15.293  -0.537  0.00  0.00    +0.015 C 
ENDBRANCH  28  31
ENDBRANCH  24  25
ENDBRANCH   1  24
TORSDOF 10
