REMARK  Name = ZINC38660353
REMARK  14 active torsions:
REMARK  status: ('A' for Active; 'I' for Inactive)
REMARK    1  A    between atoms: C_1  and  C_2
REMARK    2  A    between atoms: C_2  and  C_3
REMARK    3  A    between atoms: C_2  and  C_4
REMARK    4  A    between atoms: C_4  and  C_5
REMARK    5  A    between atoms: C_5  and  O_6
REMARK    6  A    between atoms: O_6  and  C_7
REMARK    7  A    between atoms: C_10  and  C_15
REMARK    8  A    between atoms: C_12  and  O_13
REMARK    9  A    between atoms: O_13  and  C_14
REMARK   10  A    between atoms: C_20  and  O_29
REMARK   11  A    between atoms: C_24  and  N_28
REMARK   12  A    between atoms: C_25  and  C_26
REMARK   13  A    between atoms: O_29  and  C_30
REMARK   14  A    between atoms: C_30  and  C_32
REMARK                            x       y       z     vdW  Elec       q    Type
REMARK                         _______ _______ _______ _____ _____    ______ ____
ROOT
ATOM      1  C   UNL     1      -3.366  -8.129  -0.546  0.00  0.00    +0.098 C 
ATOM      2  C   UNL     1      -2.784  -8.595  -1.855  0.00  0.00    +0.008 A 
ATOM      3  C   UNL     1      -3.525  -8.459  -3.016  0.00  0.00    +0.012 A 
ATOM      4  C   UNL     1      -3.007  -8.882  -4.224  0.00  0.00    +0.047 A 
ATOM      5  C   UNL     1      -1.740  -9.445  -4.277  0.00  0.00    +0.135 A 
ATOM      6  C   UNL     1      -0.996  -9.581  -3.117  0.00  0.00    +0.093 A 
ATOM      7  C   UNL     1      -1.518  -9.156  -1.902  0.00  0.00    +0.138 A 
ATOM      8  O   UNL     1      -0.777  -9.297  -0.775  0.00  0.00    -0.441 OA
ATOM      9  C   UNL     1      -1.374  -9.265   0.428  0.00  0.00    +0.199 C 
ATOM     10  C   UNL     1      -2.600  -8.724   0.601  0.00  0.00    +0.098 C 
ENDROOT
BRANCH   1  14
ATOM     11  C   UNL     1      -3.136  -3.863  -0.338  0.00  0.00    +0.162 A 
ATOM     12  C   UNL     1      -1.980  -4.617  -0.465  0.00  0.00    +0.050 A 
ATOM     13  C   UNL     1      -2.058  -5.995  -0.532  0.00  0.00    +0.008 A 
ATOM     14  C   UNL     1      -3.287  -6.625  -0.472  0.00  0.00    -0.031 A 
ATOM     15  C   UNL     1      -4.444  -5.880  -0.346  0.00  0.00    +0.054 A 
ATOM     16  C   UNL     1      -4.373  -4.498  -0.272  0.00  0.00    +0.162 A 
BRANCH  16  17
ATOM     17  O   UNL     1      -5.510  -3.763  -0.141  0.00  0.00    -0.491 OA
ATOM     18  C   UNL     1      -6.743  -4.481  -0.081  0.00  0.00    +0.277 C 
ENDBRANCH  16  17
BRANCH  11  19
ATOM     19  O   UNL     1      -3.061  -2.507  -0.271  0.00  0.00    -0.488 OA
BRANCH  19  20
ATOM     20  C   UNL     1      -1.759  -1.925  -0.345  0.00  0.00    +0.229 C 
BRANCH  20  21
ATOM     21  C   UNL     1      -1.875  -0.402  -0.254  0.00  0.00    +0.044 C 
BRANCH  21  23
ATOM     22  C   UNL     1      -0.604   1.746  -0.368  0.00  0.00    +0.007 C 
ATOM     23  C   UNL     1      -0.480   0.222  -0.333  0.00  0.00    -0.014 C 
ATOM     24  C   UNL     1       0.335  -0.195   0.893  0.00  0.00    +0.007 C 
ENDBRANCH  21  23
ENDBRANCH  20  21
ENDBRANCH  19  20
ENDBRANCH  11  19
ENDBRANCH   1  14
BRANCH   9  25
ATOM     25  N   UNL     1      -0.719  -9.796   1.511  0.00  0.00    -0.328 N 
ATOM     26  H   UNL     1       0.162 -10.187   1.401  0.00  0.00    +0.145 HD
ATOM     27  H   UNL     1      -1.137  -9.780   2.386  0.00  0.00    +0.145 HD
ENDBRANCH   9  25
BRANCH  10  28
ATOM     28  C   UNL     1      -3.180  -8.720   1.910  0.00  0.00    +0.101 C 
ATOM     29  N   UNL     1      -3.641  -8.716   2.948  0.00  0.00    -0.191 NA
ENDBRANCH  10  28
BRANCH   5  30
ATOM     30  O   UNL     1      -1.230  -9.861  -5.466  0.00  0.00    -0.422 OA
BRANCH  30  31
ATOM     31  C   UNL     1      -1.081 -11.186  -5.662  0.00  0.00    +0.344 C 
ATOM     32  O   UNL     1      -1.495 -11.972  -4.833  0.00  0.00    -0.245 OA
BRANCH  31  33
ATOM     33  C   UNL     1      -0.415 -11.682  -6.882  0.00  0.00    +0.060 A 
ATOM     34  C   UNL     1       0.068 -10.779  -7.833  0.00  0.00    +0.018 A 
ATOM     35  C   UNL     1       0.689 -11.248  -8.971  0.00  0.00    +0.039 A 
ATOM     36  C   UNL     1       0.836 -12.612  -9.172  0.00  0.00    +0.123 A 
ATOM     37  C   UNL     1       0.358 -13.512  -8.231  0.00  0.00    +0.039 A 
ATOM     38  C   UNL     1      -0.259 -13.055  -7.087  0.00  0.00    +0.018 A 
ATOM     39  F   UNL     1       1.445 -13.066 -10.289  0.00  0.00    -0.205 F 
ENDBRANCH  31  33
ENDBRANCH  30  31
ENDBRANCH   5  30
TORSDOF 11
