REMARK  Name = ZINC04412407
REMARK  8 active torsions:
REMARK  status: ('A' for Active; 'I' for Inactive)
REMARK    1  A    between atoms: C_1  and  C_2
REMARK    2  A    between atoms: C_2  and  O_3
REMARK    3  A    between atoms: O_3  and  C_4
REMARK    4  A    between atoms: C_6  and  C_11
REMARK    5  A    between atoms: C_9  and  O_10
REMARK    6  A    between atoms: N_18  and  C_25
REMARK    7  A    between atoms: C_22  and  C_23
REMARK    8  A    between atoms: C_28  and  C_31
REMARK                            x       y       z     vdW  Elec       q    Type
REMARK                         _______ _______ _______ _____ _____    ______ ____
ROOT
ATOM      1  C   UNL     1       2.458   3.932  -0.000  0.00  0.00    +0.071 C 
ATOM      2  C   UNL     1       3.254   3.578  -1.260  0.00  0.00    +0.110 C 
ATOM      3  C   UNL     1       3.767   2.170  -1.134  0.00  0.00    +0.222 C 
ATOM      4  O   UNL     1       3.818   1.463  -2.118  0.00  0.00    -0.275 OA
ATOM      5  N   UNL     1       4.172   1.680   0.061  0.00  0.00    -0.248 N 
ATOM      6  C   UNL     1       4.641   0.295   0.084  0.00  0.00    +0.222 C 
ATOM      7  N   UNL     1       5.707   0.073   1.054  0.00  0.00    -0.304 N 
ATOM      8  C   UNL     1       5.217   0.299   2.425  0.00  0.00    +0.182 C 
ATOM      9  S   UNL     1       5.006   2.085   2.648  0.00  0.00    -0.090 S 
ATOM     10  C   UNL     1       4.087   2.462   1.190  0.00  0.00    +0.087 C 
ATOM     11  C   UNL     1       3.271   3.559   1.210  0.00  0.00    +0.065 C 
ENDROOT
BRANCH   7  12
ATOM     12  C   UNL     1       6.245  -1.209   0.921  0.00  0.00    +0.032 A 
ATOM     13  C   UNL     1       5.748  -2.076  -0.043  0.00  0.00    +0.023 A 
ATOM     14  C   UNL     1       6.286  -3.341  -0.175  0.00  0.00    +0.005 A 
ATOM     15  C   UNL     1       7.312  -3.748   0.657  0.00  0.00    -0.050 A 
ATOM     16  C   UNL     1       7.807  -2.889   1.621  0.00  0.00    +0.005 A 
ATOM     17  C   UNL     1       7.277  -1.621   1.756  0.00  0.00    +0.023 A 
ATOM     18  C   UNL     1       7.894  -5.131   0.513  0.00  0.00    +0.044 C 
ENDBRANCH   7  12
BRANCH   1  21
ATOM     19  C   UNL     1      -1.237   3.144   0.030  0.00  0.00    +0.162 A 
ATOM     20  C   UNL     1      -0.043   3.847   0.023  0.00  0.00    +0.053 A 
ATOM     21  C   UNL     1       1.160   3.166   0.008  0.00  0.00    -0.035 A 
ATOM     22  C   UNL     1       1.175   1.783   0.000  0.00  0.00    +0.008 A 
ATOM     23  C   UNL     1      -0.013   1.076   0.008  0.00  0.00    +0.049 A 
ATOM     24  C   UNL     1      -1.222   1.752   0.017  0.00  0.00    +0.158 A 
BRANCH  24  25
ATOM     25  O   UNL     1      -2.391   1.058   0.019  0.00  0.00    -0.503 OA
ATOM     26  H   UNL     1      -2.725   0.852   0.903  0.00  0.00    +0.292 HD
ENDBRANCH  24  25
BRANCH  19  27
ATOM     27  O   UNL     1      -2.421   3.812   0.044  0.00  0.00    -0.489 OA
BRANCH  27  29
ATOM     28  C   UNL     1      -3.780   5.811   0.066  0.00  0.00    +0.048 C 
ATOM     29  C   UNL     1      -2.361   5.240   0.051  0.00  0.00    +0.226 C 
ENDBRANCH  27  29
ENDBRANCH  19  27
ENDBRANCH   1  21
BRANCH  11  30
ATOM     30  C   UNL     1       3.190   4.361   2.394  0.00  0.00    +0.098 C 
ATOM     31  N   UNL     1       3.126   4.997   3.333  0.00  0.00    -0.191 NA
ENDBRANCH  11  30
TORSDOF 6
