REMARK  Name = ZINC42868520
REMARK  6 active torsions:
REMARK  status: ('A' for Active; 'I' for Inactive)
REMARK    1  A    between atoms: C_4  and  C_7
REMARK    2  A    between atoms: C_7  and  C_9
REMARK    3  A    between atoms: C_7  and  N_20
REMARK    4  A    between atoms: C_18  and  O_19
REMARK    5  A    between atoms: N_23  and  C_24
REMARK    6  A    between atoms: C_24  and  C_25
REMARK                            x       y       z     vdW  Elec       q    Type
REMARK                         _______ _______ _______ _____ _____    ______ ____
ROOT
ATOM      1  C   UNL     1       3.635  -0.633  -0.084  0.00  0.00    +0.139 C 
ENDROOT
BRANCH   1   2
ATOM      2  C   UNL     1       3.919  -1.231  -1.437  0.00  0.00    +0.026 A 
ATOM      3  C   UNL     1       4.933  -0.694  -2.248  0.00  0.00    -0.009 A 
ATOM      4  C   UNL     1       5.701   0.404  -1.822  0.00  0.00    +0.009 A 
ATOM      5  C   UNL     1       6.676   0.898  -2.633  0.00  0.00    +0.001 A 
ATOM      6  C   UNL     1       6.925   0.332  -3.883  0.00  0.00    +0.001 A 
ATOM      7  C   UNL     1       6.201  -0.731  -4.327  0.00  0.00    +0.008 A 
ATOM      8  C   UNL     1       5.187  -1.270  -3.518  0.00  0.00    -0.017 A 
ATOM      9  C   UNL     1       4.420  -2.368  -3.945  0.00  0.00    +0.012 A 
ATOM     10  C   UNL     1       3.445  -2.865  -3.137  0.00  0.00    +0.046 A 
ATOM     11  C   UNL     1       3.196  -2.302  -1.881  0.00  0.00    +0.123 A 
BRANCH  11  12
ATOM     12  O   UNL     1       2.220  -2.824  -1.094  0.00  0.00    -0.506 OA
ATOM     13  H   UNL     1       1.342  -2.452  -1.257  0.00  0.00    +0.292 HD
ENDBRANCH  11  12
ENDBRANCH   1   2
BRANCH   1  17
ATOM     14  C   UNL     1      -0.028   1.560  -0.240  0.00  0.00    +0.000 A 
ATOM     15  C   UNL     1       1.173   2.201  -0.484  0.00  0.00    +0.000 A 
ATOM     16  C   UNL     1       2.358   1.491  -0.434  0.00  0.00    +0.006 A 
ATOM     17  C   UNL     1       2.343   0.141  -0.138  0.00  0.00    -0.023 A 
ATOM     18  C   UNL     1       1.142  -0.500   0.108  0.00  0.00    +0.006 A 
ATOM     19  C   UNL     1      -0.043   0.210   0.056  0.00  0.00    +0.000 A 
ENDBRANCH   1  17
BRANCH   1  20
ATOM     20  N   UNL     1       3.521  -1.704   0.909  0.00  0.00    -0.288 N 
ATOM     21  C   UNL     1       3.770  -1.448   2.209  0.00  0.00    +0.300 C 
ATOM     22  O   UNL     1       4.089  -0.328   2.557  0.00  0.00    -0.253 OA
ATOM     23  N   UNL     1       3.665  -2.434   3.122  0.00  0.00    -0.297 N 
ATOM     24  H   UNL     1       3.266  -2.598   0.631  0.00  0.00    +0.151 HD
ATOM     25  H   UNL     1       3.410  -3.328   2.844  0.00  0.00    +0.150 HD
BRANCH  23  26
ATOM     26  C   UNL     1       3.936  -2.155   4.535  0.00  0.00    +0.137 C 
BRANCH  26  27
ATOM     27  C   UNL     1       3.747  -3.434   5.352  0.00  0.00    +0.135 C 
ATOM     28  C   UNL     1       3.995  -3.154   6.856  0.00  0.00    +0.035 C 
ATOM     29  C   UNL     1       3.162  -4.290   7.509  0.00  0.00    +0.031 C 
ATOM     30  C   UNL     1       1.975  -4.429   6.531  0.00  0.00    +0.160 C 
ATOM     31  O   UNL     1       2.384  -3.881   5.272  0.00  0.00    -0.375 OA
ENDBRANCH  26  27
ENDBRANCH  23  26
ENDBRANCH   1  20
TORSDOF 6
