REMARK  Name = ZINC36700951
REMARK  7 active torsions:
REMARK  status: ('A' for Active; 'I' for Inactive)
REMARK    1  A    between atoms: C_1  and  C_2
REMARK    2  A    between atoms: C_2  and  C_3
REMARK    3  A    between atoms: C_3  and  C_27
REMARK    4  A    between atoms: N_6  and  C_10
REMARK    5  A    between atoms: C_10  and  C_11
REMARK    6  A    between atoms: N_13  and  C_14
REMARK    7  A    between atoms: C_27  and  C_28
REMARK                            x       y       z     vdW  Elec       q    Type
REMARK                         _______ _______ _______ _____ _____    ______ ____
ROOT
ATOM      1  C   UNL     1       4.251   0.571  -3.730  0.00  0.00    +0.235 C 
ATOM      2  O   UNL     1       3.856  -0.548  -3.979  0.00  0.00    -0.274 OA
ATOM      3  N   UNL     1       5.416   1.006  -4.250  0.00  0.00    -0.284 N 
ATOM      4  H   UNL     1       5.699   1.923  -4.106  0.00  0.00    +0.155 HD
ENDROOT
BRANCH   3   5
ATOM      5  C   UNL     1       6.217   0.136  -4.997  0.00  0.00    +0.034 A 
ATOM      6  C   UNL     1       7.602   0.228  -4.921  0.00  0.00    +0.024 A 
ATOM      7  C   UNL     1       8.393  -0.628  -5.655  0.00  0.00    +0.010 A 
ATOM      8  C   UNL     1       7.806  -1.592  -6.479  0.00  0.00    -0.014 A 
ATOM      9  C   UNL     1       6.418  -1.678  -6.549  0.00  0.00    -0.034 A 
ATOM     10  C   UNL     1       5.628  -0.825  -5.810  0.00  0.00    +0.028 A 
ATOM     11  C   UNL     1       6.080  -2.796  -7.505  0.00  0.00    +0.071 C 
ATOM     12  C   UNL     1       7.400  -3.350  -7.983  0.00  0.00    -0.035 A 
ATOM     13  C   UNL     1       8.410  -2.620  -7.361  0.00  0.00    -0.014 A 
ATOM     14  C   UNL     1       9.744  -2.931  -7.631  0.00  0.00    +0.009 A 
ATOM     15  C   UNL     1      10.050  -3.952  -8.507  0.00  0.00    +0.001 A 
ATOM     16  C   UNL     1       9.040  -4.671  -9.119  0.00  0.00    +0.000 A 
ATOM     17  C   UNL     1       7.715  -4.368  -8.857  0.00  0.00    +0.004 A 
ENDBRANCH   3   5
BRANCH   1  18
ATOM     18  C   UNL     1       3.439   1.476  -2.840  0.00  0.00    +0.214 C 
BRANCH  18  22
ATOM     19  C   UNL     1       0.720  -0.494  -1.252  0.00  0.00    +0.112 C 
ATOM     20  C   UNL     1       2.144   0.024  -1.292  0.00  0.00    +0.247 C 
ATOM     21  O   UNL     1       3.025  -0.193  -0.488  0.00  0.00    -0.273 OA
ATOM     22  N   UNL     1       2.227   0.776  -2.407  0.00  0.00    -0.215 N 
ATOM     23  C   UNL     1       1.065   0.805  -3.071  0.00  0.00    +0.310 C 
ATOM     24  O   UNL     1       0.894   1.417  -4.106  0.00  0.00    -0.252 OA
ATOM     25  N   UNL     1       0.109   0.080  -2.463  0.00  0.00    -0.285 N 
ATOM     26  H   UNL     1      -0.805  -0.041  -2.764  0.00  0.00    +0.151 HD
BRANCH  19  28
ATOM     27  C   UNL     1      -0.025   1.536   0.001  0.00  0.00    +0.006 C 
ATOM     28  C   UNL     1       0.001   0.006   0.003  0.00  0.00    +0.032 C 
ENDBRANCH  19  28
BRANCH  19  29
ATOM     29  C   UNL     1       0.698  -2.022  -1.310  0.00  0.00    +0.032 C 
ATOM     30  C   UNL     1       1.423  -2.495  -2.572  0.00  0.00    +0.006 C 
ENDBRANCH  19  29
ENDBRANCH  18  22
ENDBRANCH   1  18
TORSDOF 5
