REMARK  Name = ZINC32089083
REMARK  6 active torsions:
REMARK  status: ('A' for Active; 'I' for Inactive)
REMARK    1  A    between atoms: C_1  and  O_2
REMARK    2  A    between atoms: O_2  and  C_3
REMARK    3  A    between atoms: C_5  and  C_11
REMARK    4  A    between atoms: C_11  and  C_13
REMARK    5  A    between atoms: C_11  and  N_15
REMARK    6  A    between atoms: C_13  and  N_14
REMARK                            x       y       z     vdW  Elec       q    Type
REMARK                         _______ _______ _______ _____ _____    ______ ____
ROOT
ATOM      1  C   UNL     1      -0.019   1.526   0.010  0.00  0.00    -0.055 C 
ENDROOT
BRANCH   1   4
ATOM      2  C   UNL     1      -1.514   2.173  -3.398  0.00  0.00    +0.168 A 
ATOM      3  C   UNL     1      -0.594   2.033  -2.371  0.00  0.00    +0.051 A 
ATOM      4  C   UNL     1      -1.021   1.683  -1.104  0.00  0.00    -0.058 A 
ATOM      5  C   UNL     1      -2.366   1.482  -0.855  0.00  0.00    +0.021 A 
ATOM      6  C   UNL     1      -3.290   1.625  -1.874  0.00  0.00    +0.068 A 
ATOM      7  C   UNL     1      -2.868   1.970  -3.149  0.00  0.00    +0.234 A 
ATOM      8  O   UNL     1      -3.774   2.111  -4.152  0.00  0.00    -0.283 OA
ATOM      9 BR   UNL     1      -5.129   1.348  -1.530  0.00  0.00    -0.046 Br
BRANCH   2  11
ATOM     10  C   UNL     1       0.309   2.704  -4.830  0.00  0.00    +0.277 C 
ATOM     11  O   UNL     1      -1.095   2.512  -4.647  0.00  0.00    -0.491 OA
ENDBRANCH   2  11
ENDBRANCH   1   4
BRANCH   1  12
ATOM     12  N   UNL     1      -0.725   1.443   1.296  0.00  0.00    +0.383 N 
ATOM     13  C   UNL     1       0.157   1.827   2.406  0.00  0.00    -0.078 C 
ATOM     14  C   UNL     1      -0.648   1.870   3.707  0.00  0.00    -0.019 C 
ATOM     15  C   UNL     1      -1.259   0.490   3.969  0.00  0.00    -0.004 C 
ATOM     16  C   UNL     1      -2.134   0.093   2.777  0.00  0.00    -0.019 C 
ATOM     17  C   UNL     1      -1.286   0.102   1.503  0.00  0.00    -0.078 C 
ATOM     18  H   UNL     1      -1.561   2.156   1.271  0.00  0.00    -0.081 HD
ENDBRANCH   1  12
BRANCH   1  19
ATOM     19  C   UNL     1       0.792   0.247  -0.209  0.00  0.00    -0.098 C 
BRANCH  19  20
ATOM     20  N   UNL     1       1.733   0.066   0.904  0.00  0.00    +0.377 N 
ATOM     21  H   UNL     1       2.316  -0.854   0.746  0.00  0.00    -0.090 HD
ATOM     22  H   UNL     1       1.173  -0.012   1.848  0.00  0.00    -0.090 HD
ATOM     23  H   UNL     1       2.414   0.928   0.953  0.00  0.00    -0.090 HD
ENDBRANCH  19  20
ENDBRANCH   1  19
TORSDOF 5
