REMARK  Name = ZINC36541777
REMARK  12 active torsions:
REMARK  status: ('A' for Active; 'I' for Inactive)
REMARK    1  A    between atoms: C_1  and  C_2
REMARK    2  A    between atoms: C_2  and  C_3
REMARK    3  A    between atoms: C_2  and  C_4
REMARK    4  A    between atoms: C_2  and  N_5
REMARK    5  A    between atoms: C_6  and  C_8
REMARK    6  A    between atoms: C_8  and  C_10
REMARK    7  A    between atoms: C_8  and  N_17
REMARK    8  A    between atoms: C_13  and  O_16
REMARK    9  A    between atoms: N_17  and  C_18
REMARK   10  A    between atoms: C_25  and  C_27
REMARK   11  A    between atoms: C_27  and  C_28
REMARK   12  A    between atoms: C_28  and  C_29
REMARK                            x       y       z     vdW  Elec       q    Type
REMARK                         _______ _______ _______ _____ _____    ______ ____
ROOT
ATOM      1  N   UNL     1       3.993   0.020  -2.652  0.00  0.00    -0.254 N 
ATOM      2  C   UNL     1       4.420   0.586  -3.798  0.00  0.00    +0.221 C 
ATOM      3  O   UNL     1       3.626   0.854  -4.675  0.00  0.00    -0.275 OA
ENDROOT
BRANCH   1   4
ATOM      4  C   UNL     1       4.909  -0.290  -1.640  0.00  0.00    +0.056 A 
ATOM      5  C   UNL     1       5.739  -1.395  -1.768  0.00  0.00    +0.025 A 
ATOM      6  C   UNL     1       6.642  -1.698  -0.768  0.00  0.00    +0.002 A 
ATOM      7  C   UNL     1       6.721  -0.902   0.360  0.00  0.00    +0.002 A 
ATOM      8  C   UNL     1       5.896   0.200   0.491  0.00  0.00    +0.022 A 
ATOM      9  C   UNL     1       4.994   0.512  -0.508  0.00  0.00    +0.062 A 
ATOM     10 CL   UNL     1       3.964   1.900  -0.347  0.00  0.00    -0.082 Cl
ENDBRANCH   1   4
BRANCH   1  11
ATOM     11  C   UNL     1       2.569  -0.272  -2.465  0.00  0.00    +0.197 C 
BRANCH  11  12
ATOM     12  C   UNL     1       2.146  -1.350  -3.430  0.00  0.00    -0.018 A 
ATOM     13  C   UNL     1       2.920  -2.486  -3.578  0.00  0.00    +0.009 A 
ATOM     14  C   UNL     1       2.535  -3.475  -4.461  0.00  0.00    +0.046 A 
ATOM     15  C   UNL     1       1.371  -3.328  -5.201  0.00  0.00    +0.117 A 
ATOM     16  C   UNL     1       0.596  -2.187  -5.051  0.00  0.00    +0.046 A 
ATOM     17  C   UNL     1       0.982  -1.203  -4.162  0.00  0.00    +0.009 A 
BRANCH  15  18
ATOM     18  O   UNL     1       0.990  -4.300  -6.071  0.00  0.00    -0.507 OA
ATOM     19  H   UNL     1       0.421  -4.977  -5.681  0.00  0.00    +0.292 HD
ENDBRANCH  15  18
ENDBRANCH  11  12
BRANCH  11  21
ATOM     20  N   UNL     1       1.208  -0.385  -0.403  0.00  0.00    -0.309 N 
ATOM     21  C   UNL     1       2.333  -0.741  -1.053  0.00  0.00    +0.239 C 
ATOM     22  O   UNL     1       3.157  -1.440  -0.500  0.00  0.00    -0.273 OA
ATOM     23  H   UNL     1       0.549   0.174  -0.845  0.00  0.00    +0.149 HD
BRANCH  20  25
ATOM     24  C   UNL     1       2.104  -0.329   1.872  0.00  0.00    +0.031 C 
ATOM     25  C   UNL     1       0.979  -0.841   0.970  0.00  0.00    +0.026 C 
ATOM     26  C   UNL     1       0.956  -2.371   1.002  0.00  0.00    +0.031 C 
ATOM     27  C   UNL     1      -0.362  -0.300   1.470  0.00  0.00    +0.031 C 
ENDBRANCH  20  25
ENDBRANCH  11  21
ENDBRANCH   1  11
BRANCH   2  28
ATOM     28  C   UNL     1       5.884   0.886  -3.990  0.00  0.00    +0.096 C 
BRANCH  28  29
ATOM     29  C   UNL     1       6.098   1.522  -5.365  0.00  0.00    +0.013 C 
BRANCH  29  30
ATOM     30  C   UNL     1       7.585   1.826  -5.560  0.00  0.00    -0.011 C 
ATOM     31  C   UNL     1       8.025   2.888  -4.551  0.00  0.00    +0.003 C 
ATOM     32  C   UNL     1       9.511   3.193  -4.746  0.00  0.00    +0.000 C 
ATOM     33  C   UNL     1       9.743   3.712  -6.166  0.00  0.00    +0.000 C 
ATOM     34  C   UNL     1       9.304   2.650  -7.176  0.00  0.00    +0.000 C 
ATOM     35  C   UNL     1       7.817   2.346  -6.981  0.00  0.00    +0.003 C 
ENDBRANCH  29  30
ENDBRANCH  28  29
ENDBRANCH   2  28
TORSDOF 9
