REMARK  Name = ZINC11654897
REMARK  3 active torsions:
REMARK  status: ('A' for Active; 'I' for Inactive)
REMARK    1  A    between atoms: C_13  and  C_15
REMARK    2  A    between atoms: N_20  and  S_21
REMARK    3  A    between atoms: S_21  and  C_24
REMARK                            x       y       z     vdW  Elec       q    Type
REMARK                         _______ _______ _______ _____ _____    ______ ____
ROOT
ATOM      1  C   UNL     1      -1.875   1.052   2.048  0.00  0.00    +0.166 C 
ATOM      2  C   UNL     1      -2.422   1.893   3.221  0.00  0.00    +0.031 C 
ATOM      3  C   UNL     1      -2.106   3.347   2.782  0.00  0.00    +0.019 C 
ATOM      4  C   UNL     1      -0.748   3.162   2.055  0.00  0.00    +0.110 C 
ATOM      5  N   UNL     1      -0.872   1.871   1.353  0.00  0.00    -0.165 NA
ENDROOT
BRANCH   1  18
ATOM      6  C   UNL     1      -5.864  -6.613   2.955  0.00  0.00    +0.039 A 
ATOM      7  C   UNL     1      -6.434  -5.477   3.508  0.00  0.00    +0.116 A 
ATOM      8  N   UNL     1      -5.673  -4.420   3.738  0.00  0.00    -0.223 NA
ATOM      9  C   UNL     1      -4.381  -4.439   3.447  0.00  0.00    +0.218 A 
ATOM     10  N   UNL     1      -3.807  -5.507   2.913  0.00  0.00    -0.223 NA
ATOM     11  C   UNL     1      -4.510  -6.599   2.662  0.00  0.00    +0.116 A 
ATOM     12  N   UNL     1      -3.614  -3.316   3.701  0.00  0.00    -0.297 N 
ATOM     13  C   UNL     1      -2.215  -3.534   3.311  0.00  0.00    +0.127 C 
ATOM     14  C   UNL     1      -1.368  -2.343   3.772  0.00  0.00    +0.127 C 
ATOM     15  N   UNL     1      -1.974  -1.109   3.249  0.00  0.00    -0.297 N 
ATOM     16  C   UNL     1      -3.408  -0.882   3.488  0.00  0.00    +0.127 C 
ATOM     17  C   UNL     1      -4.176  -2.133   3.033  0.00  0.00    +0.127 C 
ATOM     18  C   UNL     1      -1.234  -0.206   2.575  0.00  0.00    +0.235 C 
ATOM     19  O   UNL     1      -0.052  -0.407   2.392  0.00  0.00    -0.274 OA
ENDBRANCH   1  18
BRANCH   5  20
ATOM     20  S   UNL     1      -0.017   1.417   0.010  0.00  0.00    +0.062 S 
ATOM     21  O   UNL     1       0.002  -0.004   0.002  0.00  0.00    -0.153 OA
ATOM     22  O   UNL     1       1.172   2.195   0.003  0.00  0.00    -0.153 OA
BRANCH  20  23
ATOM     23  C   UNL     1      -0.954   1.915  -1.397  0.00  0.00    +0.106 A 
ATOM     24  C   UNL     1      -1.879   1.052  -1.952  0.00  0.00    +0.029 A 
ATOM     25  C   UNL     1      -2.618   1.444  -3.053  0.00  0.00    +0.017 A 
ATOM     26  C   UNL     1      -2.423   2.698  -3.605  0.00  0.00    +0.018 A 
ATOM     27  C   UNL     1      -1.493   3.559  -3.052  0.00  0.00    +0.017 A 
ATOM     28  C   UNL     1      -0.759   3.168  -1.948  0.00  0.00    +0.029 A 
ATOM     29 BR   UNL     1      -3.427   3.232  -5.115  0.00  0.00    -0.050 Br
ENDBRANCH  20  23
ENDBRANCH   5  20
TORSDOF 3
