REMARK  Name = ZINC17039640
REMARK  7 active torsions:
REMARK  status: ('A' for Active; 'I' for Inactive)
REMARK    1  A    between atoms: C_3  and  S_10
REMARK    2  A    between atoms: C_6  and  N_7
REMARK    3  A    between atoms: S_10  and  C_11
REMARK    4  A    between atoms: C_11  and  C_12
REMARK    5  A    between atoms: C_12  and  C_13
REMARK    6  A    between atoms: C_13  and  N_14
REMARK    7  A    between atoms: C_16  and  C_22
REMARK                            x       y       z     vdW  Elec       q    Type
REMARK                         _______ _______ _______ _____ _____    ______ ____
ROOT
ATOM      1  N   UNL     1       4.648   7.676  -0.002  0.00  0.00    -0.298 N 
ATOM      2  C   UNL     1       4.717   8.344   1.182  0.00  0.00    +0.102 A 
ATOM      3  C   UNL     1       4.833   9.704   1.173  0.00  0.00    +0.038 A 
ATOM      4  C   UNL     1       4.878  10.377  -0.077  0.00  0.00    +0.131 A 
ATOM      5  N   UNL     1       4.807   9.674  -1.198  0.00  0.00    -0.178 NA
ATOM      6  C   UNL     1       4.700   8.347  -1.167  0.00  0.00    +0.350 A 
ATOM      7  O   UNL     1       4.642   7.728  -2.216  0.00  0.00    -0.244 OA
ATOM      8  N   UNL     1       4.994  11.745  -0.123  0.00  0.00    -0.342 N 
ATOM      9  H   UNL     1       5.028  12.262  -1.093  0.00  0.00    +0.144 HD
ATOM     10  H   UNL     1       5.051  12.324   0.811  0.00  0.00    +0.144 HD
ENDROOT
BRANCH   3  11
ATOM     11  C   UNL     1       4.909  10.465   2.444  0.00  0.00    -0.012 A 
ATOM     12  C   UNL     1       6.069  11.166   2.770  0.00  0.00    +0.010 A 
ATOM     13  C   UNL     1       6.136  11.873   3.954  0.00  0.00    +0.022 A 
ATOM     14  C   UNL     1       5.054  11.886   4.817  0.00  0.00    +0.059 A 
ATOM     15  C   UNL     1       3.899  11.191   4.498  0.00  0.00    +0.060 A 
ATOM     16  C   UNL     1       3.820  10.486   3.312  0.00  0.00    +0.030 A 
ATOM     17 CL   UNL     1       2.546  11.213   5.585  0.00  0.00    -0.082 Cl
ATOM     18 CL   UNL     1       5.145  12.776   6.305  0.00  0.00    -0.082 Cl
ENDBRANCH   3  11
BRANCH   1  19
ATOM     19  C   UNL     1       4.524   6.216  -0.009  0.00  0.00    +0.127 C 
BRANCH  19  20
ATOM     20  C   UNL     1       3.044   5.830   0.003  0.00  0.00    +0.033 C 
BRANCH  20  21
ATOM     21  C   UNL     1       2.915   4.306  -0.003  0.00  0.00    +0.076 C 
BRANCH  21  22
ATOM     22  S   UNL     1       1.159   3.848   0.011  0.00  0.00    -0.125 S 
BRANCH  22  25
ATOM     23  C   UNL     1       0.002  -0.004   0.002  0.00  0.00    +0.034 A 
ATOM     24  C   UNL     1      -0.017   1.377   0.010  0.00  0.00    +0.017 A 
ATOM     25  C   UNL     1       1.178   2.086   0.002  0.00  0.00    +0.008 A 
ATOM     26  C   UNL     1       2.388   1.403  -0.013  0.00  0.00    +0.017 A 
ATOM     27  C   UNL     1       2.399   0.022  -0.021  0.00  0.00    +0.034 A 
ATOM     28  C   UNL     1       1.208  -0.681  -0.014  0.00  0.00    +0.126 A 
BRANCH  28  29
ATOM     29  N   UNL     1       1.224  -2.161  -0.022  0.00  0.00    +0.056 N 
ATOM     30  O   UNL     1       0.176  -2.781  -0.015  0.00  0.00    -0.126 OA
ATOM     31  O   UNL     1       2.285  -2.758  -0.035  0.00  0.00    -0.126 OA
ENDBRANCH  28  29
ENDBRANCH  22  25
ENDBRANCH  21  22
ENDBRANCH  20  21
ENDBRANCH  19  20
ENDBRANCH   1  19
TORSDOF 7
