REMARK  Name = ZINC20527604
REMARK  10 active torsions:
REMARK  status: ('A' for Active; 'I' for Inactive)
REMARK    1  A    between atoms: C_1  and  N_2
REMARK    2  A    between atoms: N_2  and  C_3
REMARK    3  A    between atoms: N_2  and  C_4
REMARK    4  A    between atoms: C_7  and  C_10
REMARK    5  A    between atoms: N_11  and  N_12
REMARK    6  A    between atoms: C_16  and  S_19
REMARK    7  A    between atoms: N_17  and  N_18
REMARK    8  A    between atoms: S_19  and  C_20
REMARK    9  A    between atoms: C_20  and  C_21
REMARK   10  A    between atoms: C_21  and  C_23
REMARK                            x       y       z     vdW  Elec       q    Type
REMARK                         _______ _______ _______ _____ _____    ______ ____
ROOT
ATOM      1  N   UNL     1      -4.128  -6.045   2.452  0.00  0.00    -0.204 N 
ATOM      2  C   UNL     1      -3.556  -4.827   2.113  0.00  0.00    +0.254 A 
ATOM      3  N   UNL     1      -4.041  -3.643   2.396  0.00  0.00    -0.109 NA
ATOM      4  N   UNL     1      -3.165  -2.681   1.877  0.00  0.00    -0.119 NA
ATOM      5  C   UNL     1      -2.172  -3.309   1.293  0.00  0.00    +0.210 A 
ATOM      6  N   UNL     1      -2.391  -4.652   1.419  0.00  0.00    -0.211 N 
ATOM      7  H   UNL     1      -3.634  -6.984   2.163  0.00  0.00    +0.177 HD
ENDROOT
BRANCH   6   8
ATOM      8  N   UNL     1      -1.585  -5.645   0.939  0.00  0.00    -0.294 N 
ATOM      9  H   UNL     1      -0.665  -5.391   0.392  0.00  0.00    +0.163 HD
ATOM     10  H   UNL     1      -1.856  -6.699   1.100  0.00  0.00    +0.163 HD
ENDBRANCH   6   8
BRANCH   1  12
ATOM     11  C   UNL     1      -5.869  -7.218   3.482  0.00  0.00    +0.138 C 
ATOM     12  N   UNL     1      -5.334  -6.078   3.164  0.00  0.00    -0.188 NA
BRANCH  11  16
ATOM     13  C   UNL     1      -9.525  -7.319   5.639  0.00  0.00    +0.029 A 
ATOM     14  C   UNL     1      -8.902  -8.508   5.274  0.00  0.00    +0.024 A 
ATOM     15  C   UNL     1      -7.716  -8.479   4.574  0.00  0.00    +0.011 A 
ATOM     16  C   UNL     1      -7.138  -7.253   4.231  0.00  0.00    -0.005 A 
ATOM     17  C   UNL     1      -7.764  -6.061   4.604  0.00  0.00    +0.011 A 
ATOM     18  C   UNL     1      -8.953  -6.097   5.300  0.00  0.00    +0.024 A 
BRANCH  13  20
ATOM     19  C   UNL     1     -11.330  -8.638   6.707  0.00  0.00    +0.129 C 
ATOM     20  N   UNL     1     -10.727  -7.352   6.348  0.00  0.00    -0.336 N 
ATOM     21  C   UNL     1     -11.385  -6.101   6.733  0.00  0.00    +0.129 C 
ENDBRANCH  13  20
ENDBRANCH  11  16
ENDBRANCH   1  12
BRANCH   5  22
ATOM     22  S   UNL     1      -0.802  -2.555   0.483  0.00  0.00    -0.077 S 
BRANCH  22  23
ATOM     23  C   UNL     1      -1.112  -0.776   0.661  0.00  0.00    +0.152 C 
BRANCH  23  24
ATOM     24  C   UNL     1       0.002  -0.004   0.002  0.00  0.00    +0.147 C 
ATOM     25  O   UNL     1       0.911  -0.593  -0.533  0.00  0.00    -0.296 OA
BRANCH  24  26
ATOM     26  C   UNL     1      -0.018   1.503   0.010  0.00  0.00    +0.062 C 
ATOM     27  C   UNL     1      -1.071   2.004  -0.980  0.00  0.00    +0.000 C 
ATOM     28  C   UNL     1      -1.092   3.534  -0.972  0.00  0.00    +0.007 C 
ATOM     29  C   UNL     1       0.284   4.065  -1.378  0.00  0.00    -0.010 C 
ATOM     30  C   UNL     1       0.629   3.567  -2.783  0.00  0.00    +0.007 C 
ATOM     31  C   UNL     1       0.649   2.037  -2.792  0.00  0.00    -0.010 C 
ATOM     32  C   UNL     1      -0.727   1.506  -2.386  0.00  0.00    +0.007 C 
ATOM     33  C   UNL     1       1.702   1.536  -1.801  0.00  0.00    +0.007 C 
ATOM     34  C   UNL     1       1.358   2.034  -0.396  0.00  0.00    +0.000 C 
ATOM     35  C   UNL     1       1.337   3.564  -0.387  0.00  0.00    +0.007 C 
ENDBRANCH  24  26
ENDBRANCH  23  24
ENDBRANCH  22  23
ENDBRANCH   5  22
TORSDOF 8
