REMARK  Name = ZINC28962977
REMARK  4 active torsions:
REMARK  status: ('A' for Active; 'I' for Inactive)
REMARK    1  A    between atoms: C_6  and  S_7
REMARK    2  A    between atoms: S_7  and  N_10
REMARK    3  A    between atoms: N_13  and  C_16
REMARK    4  A    between atoms: C_16  and  C_17
REMARK                            x       y       z     vdW  Elec       q    Type
REMARK                         _______ _______ _______ _____ _____    ______ ____
ROOT
ATOM      1  N   UNL     1       0.936  -4.931   0.598  0.00  0.00    -0.180 NA
ATOM      2  C   UNL     1       1.624  -4.513  -0.633  0.00  0.00    +0.091 C 
ATOM      3  C   UNL     1       2.046  -3.048  -0.482  0.00  0.00    -0.061 C 
ATOM      4  N   UNL     1       0.874  -2.239  -0.120  0.00  0.00    +0.387 N 
ATOM      5  C   UNL     1       0.329  -2.644   1.183  0.00  0.00    -0.061 C 
ATOM      6  C   UNL     1      -0.163  -4.092   1.099  0.00  0.00    +0.091 C 
ATOM      7  H   UNL     1       0.097  -2.419  -0.878  0.00  0.00    -0.081 HD
ENDROOT
BRANCH   1   8
ATOM      8  S   UNL     1       1.387  -6.309   1.398  0.00  0.00    +0.061 S 
ATOM      9  O   UNL     1       0.257  -6.731   2.149  0.00  0.00    -0.153 OA
ATOM     10  O   UNL     1       2.021  -7.146   0.440  0.00  0.00    -0.153 OA
BRANCH   8  16
ATOM     11  C   UNL     1       3.960  -5.876   2.205  0.00  0.00    +0.029 A 
ATOM     12  C   UNL     1       4.924  -5.514   3.124  0.00  0.00    +0.006 A 
ATOM     13  C   UNL     1       4.566  -5.136   4.411  0.00  0.00    -0.044 A 
ATOM     14  C   UNL     1       3.236  -5.113   4.769  0.00  0.00    -0.042 A 
ATOM     15  C   UNL     1       2.267  -5.473   3.842  0.00  0.00    +0.032 A 
ATOM     16  C   UNL     1       2.626  -5.852   2.565  0.00  0.00    +0.106 A 
ATOM     17  C   UNL     1       2.774  -4.704   6.144  0.00  0.00    +0.035 C 
ATOM     18  C   UNL     1       3.932  -4.761   7.138  0.00  0.00    +0.005 C 
ATOM     19  C   UNL     1       5.113  -3.980   6.552  0.00  0.00    +0.005 C 
ATOM     20  C   UNL     1       5.670  -4.766   5.367  0.00  0.00    +0.035 C 
ENDBRANCH   8  16
ENDBRANCH   1   8
BRANCH   4  21
ATOM     21  C   UNL     1       1.198  -0.807  -0.134  0.00  0.00    +0.019 C 
BRANCH  21  22
ATOM     22  C   UNL     1      -0.070  -0.003  -0.002  0.00  0.00    +0.202 C 
ATOM     23  O   UNL     1      -1.139  -0.568   0.093  0.00  0.00    -0.278 OA
ATOM     24  N   UNL     1      -0.016   1.344   0.009  0.00  0.00    -0.272 N 
ATOM     25  C   UNL     1      -1.195   2.088   0.021  0.00  0.00    +0.125 A 
ATOM     26  C   UNL     1      -1.135   3.474  -0.073  0.00  0.00    +0.045 A 
ATOM     27  C   UNL     1      -2.312   4.201  -0.065  0.00  0.00    +0.020 A 
ATOM     28  C   UNL     1      -3.514   3.514   0.048  0.00  0.00    +0.036 A 
ATOM     29  C   UNL     1      -3.499   2.136   0.144  0.00  0.00    +0.128 A 
ATOM     30  N   UNL     1      -2.360   1.470   0.128  0.00  0.00    -0.239 NA
ATOM     31 BR   UNL     1      -5.154   4.455   0.071  0.00  0.00    -0.049 Br
ATOM     32  H   UNL     1       0.958   1.855   0.009  0.00  0.00    +0.156 HD
ENDBRANCH  21  22
ENDBRANCH   4  21
TORSDOF 4
