REMARK  Name = ZINC10505936
REMARK  8 active torsions:
REMARK  status: ('A' for Active; 'I' for Inactive)
REMARK    1  A    between atoms: C_1  and  C_2
REMARK    2  A    between atoms: C_7  and  O_8
REMARK    3  A    between atoms: O_8  and  C_9
REMARK    4  A    between atoms: C_9  and  C_10
REMARK    5  A    between atoms: N_12  and  N_13
REMARK    6  A    between atoms: N_13  and  C_14
REMARK    7  A    between atoms: C_14  and  N_16
REMARK    8  A    between atoms: C_17  and  C_19
REMARK                            x       y       z     vdW  Elec       q    Type
REMARK                         _______ _______ _______ _____ _____    ______ ____
ROOT
ATOM      1  N   UNL     1      -2.441   7.988   0.067  0.00  0.00    -0.245 N 
ATOM      2  H   UNL     1      -2.454   8.957   0.072  0.00  0.00    +0.172 HD
ENDROOT
BRANCH   1   5
ATOM      3  C   UNL     1      -4.821   7.929   0.090  0.00  0.00    +0.267 C 
ATOM      4  O   UNL     1      -4.837   9.141   0.097  0.00  0.00    -0.271 OA
ATOM      5  N   UNL     1      -3.644   7.271   0.075  0.00  0.00    -0.232 N 
ATOM      6  H   UNL     1      -3.631   6.301   0.070  0.00  0.00    +0.173 HD
BRANCH   3   7
ATOM      7  C   UNL     1      -6.115   7.157   0.099  0.00  0.00    +0.326 C 
BRANCH   7   8
ATOM      8  O   UNL     1      -7.214   8.071   0.114  0.00  0.00    -0.482 OA
BRANCH   8  15
ATOM      9  C   UNL     1      -9.399   9.860   0.157  0.00  0.00    +0.047 C 
ATOM     10  C   UNL     1      -9.575   8.364   0.144  0.00  0.00    -0.007 A 
ATOM     11  C   UNL     1     -10.843   7.816   0.149  0.00  0.00    +0.027 A 
ATOM     12  C   UNL     1     -11.005   6.442   0.144  0.00  0.00    +0.041 A 
ATOM     13  C   UNL     1      -9.897   5.614   0.128  0.00  0.00    +0.023 A 
ATOM     14  C   UNL     1      -8.627   6.157   0.118  0.00  0.00    +0.047 A 
ATOM     15  C   UNL     1      -8.463   7.535   0.124  0.00  0.00    +0.124 A 
ATOM     16 CL   UNL     1     -12.600   5.757   0.157  0.00  0.00    -0.084 Cl
ENDBRANCH   8  15
ENDBRANCH   7   8
ENDBRANCH   3   7
ENDBRANCH   1   5
BRANCH   1  17
ATOM     17  C   UNL     1      -1.265   7.330   0.053  0.00  0.00    +0.153 C 
ATOM     18  S   UNL     1       0.206   8.206   0.043  0.00  0.00    -0.017 S 
BRANCH  17  19
ATOM     19  N   UNL     1      -1.246   5.982   0.046  0.00  0.00    -0.263 N 
ATOM     20  C   UNL     1      -0.070   5.324   0.031  0.00  0.00    +0.250 C 
ATOM     21  O   UNL     1       0.974   5.946   0.024  0.00  0.00    -0.270 OA
ATOM     22  H   UNL     1      -2.080   5.486   0.051  0.00  0.00    +0.157 HD
BRANCH  20  23
ATOM     23  C   UNL     1      -0.050   3.846   0.023  0.00  0.00    +0.040 A 
ATOM     24  C   UNL     1       1.167   3.162   0.008  0.00  0.00    +0.033 A 
ATOM     25  C   UNL     1       1.179   1.782   0.000  0.00  0.00    +0.043 A 
ATOM     26  C   UNL     1      -0.013   1.076   0.008  0.00  0.00    +0.040 A 
ATOM     27  C   UNL     1      -1.222   1.749   0.017  0.00  0.00    +0.043 A 
ATOM     28  C   UNL     1      -1.248   3.129   0.031  0.00  0.00    +0.033 A 
ATOM     29 CL   UNL     1      -2.711   0.855   0.019  0.00  0.00    -0.083 Cl
ATOM     30 CL   UNL     1       2.691   0.929  -0.019  0.00  0.00    -0.083 Cl
ENDBRANCH  20  23
ENDBRANCH  17  19
ENDBRANCH   1  17
TORSDOF 7
