REMARK  Name = ZINC46585890
REMARK  4 active torsions:
REMARK  status: ('A' for Active; 'I' for Inactive)
REMARK    1  A    between atoms: C_3  and  C_12
REMARK    2  A    between atoms: C_12  and  O_14
REMARK    3  A    between atoms: O_14  and  C_15
REMARK    4  A    between atoms: C_15  and  C_16
REMARK                            x       y       z     vdW  Elec       q    Type
REMARK                         _______ _______ _______ _____ _____    ______ ____
ROOT
ATOM      1  C   UNL     1       4.431   5.554   0.096  0.00  0.00    +0.170 A 
ATOM      2  N   UNL     1       4.430   6.188  -1.063  0.00  0.00    -0.214 NA
ATOM      3  C   UNL     1       4.671   7.486  -1.157  0.00  0.00    +0.128 A 
ATOM      4  C   UNL     1       4.940   8.227   0.027  0.00  0.00    +0.051 A 
ATOM      5  C   UNL     1       5.232   9.654   0.168  0.00  0.00    -0.025 A 
ATOM      6  C   UNL     1       5.452  10.113   1.417  0.00  0.00    -0.004 A 
ATOM      7  S   UNL     1       5.287   8.694   2.467  0.00  0.00    -0.073 S 
ATOM      8  C   UNL     1       4.922   7.483   1.224  0.00  0.00    +0.114 A 
ATOM      9  N   UNL     1       4.668   6.189   1.227  0.00  0.00    -0.221 NA
ATOM     10  C   UNL     1       5.770  11.519   1.825  0.00  0.00    +0.043 C 
ATOM     11  C   UNL     1       6.177  12.307   0.571  0.00  0.00    +0.005 C 
ATOM     12  C   UNL     1       5.151  12.037  -0.533  0.00  0.00    +0.005 C 
ATOM     13  C   UNL     1       5.290  10.598  -1.030  0.00  0.00    +0.037 C 
ATOM     14  N   UNL     1       4.661   8.113  -2.390  0.00  0.00    -0.343 N 
ATOM     15  H   UNL     1       4.255   7.674  -3.154  0.00  0.00    +0.144 HD
ATOM     16  H   UNL     1       5.060   8.991  -2.490  0.00  0.00    +0.144 HD
ENDROOT
BRANCH   1  17
ATOM     17  C   UNL     1       4.149   4.074   0.126  0.00  0.00    +0.308 C 
BRANCH  17  18
ATOM     18  O   UNL     1       2.744   3.859   0.269  0.00  0.00    -0.453 OA
BRANCH  18  19
ATOM     19  C   UNL     1       2.321   2.580   0.313  0.00  0.00    +0.343 C 
ATOM     20  O   UNL     1       3.124   1.672   0.233  0.00  0.00    -0.245 OA
BRANCH  19  23
ATOM     21  C   UNL     1      -1.375   2.983   0.791  0.00  0.00    +0.021 A 
ATOM     22  C   UNL     1      -0.039   3.315   0.661  0.00  0.00    +0.020 A 
ATOM     23  C   UNL     1       0.886   2.283   0.459  0.00  0.00    +0.099 A 
ATOM     24  C   UNL     1       0.419   0.958   0.398  0.00  0.00    +0.135 A 
ATOM     25  N   UNL     1      -0.873   0.698   0.529  0.00  0.00    -0.239 NA
ATOM     26  C   UNL     1      -1.758   1.656   0.720  0.00  0.00    +0.113 A 
ATOM     27  N   UNL     1       1.313  -0.077   0.200  0.00  0.00    -0.315 N 
ATOM     28  C   UNL     1       1.760  -0.585  -1.105  0.00  0.00    +0.106 C 
ATOM     29  C   UNL     1       2.731  -1.754  -0.834  0.00  0.00    +0.020 C 
ATOM     30  C   UNL     1       2.338  -2.207   0.597  0.00  0.00    +0.020 C 
ATOM     31  C   UNL     1       1.980  -0.852   1.263  0.00  0.00    +0.106 C 
ENDBRANCH  19  23
ENDBRANCH  18  19
ENDBRANCH  17  18
ENDBRANCH   1  17
TORSDOF 4
