REMARK  Name = ZINC39542304
REMARK  7 active torsions:
REMARK  status: ('A' for Active; 'I' for Inactive)
REMARK    1  A    between atoms: C_4  and  C_7
REMARK    2  A    between atoms: C_7  and  C_8
REMARK    3  A    between atoms: C_11  and  C_23
REMARK    4  A    between atoms: N_25  and  C_26
REMARK    5  A    between atoms: N_25  and  C_33
REMARK    6  A    between atoms: C_26  and  C_27
REMARK    7  A    between atoms: C_38  and  O_39
REMARK                            x       y       z     vdW  Elec       q    Type
REMARK                         _______ _______ _______ _____ _____    ______ ____
ROOT
ATOM      1  C   UNL     1       4.171  -0.963   1.399  0.00  0.00    +0.057 C 
ATOM      2  C   UNL     1       5.557  -1.652   1.411  0.00  0.00    +0.045 C 
ATOM      3  C   UNL     1       5.146  -3.138   1.506  0.00  0.00    +0.171 C 
ATOM      4  N   UNL     1       3.812  -3.137   2.123  0.00  0.00    -0.346 N 
ATOM      5  C   UNL     1       3.263  -1.961   2.077  0.00  0.00    +0.079 C 
ATOM      6  N   UNL     1       2.015  -1.685   2.593  0.00  0.00    -0.304 N 
ATOM      7  C   UNL     1       1.452  -2.621   3.472  0.00  0.00    +0.037 A 
ATOM      8  C   UNL     1       0.360  -2.263   4.252  0.00  0.00    +0.023 A 
ATOM      9  C   UNL     1      -0.194  -3.179   5.123  0.00  0.00    +0.002 A 
ATOM     10  C   UNL     1       0.339  -4.452   5.217  0.00  0.00    +0.000 A 
ATOM     11  C   UNL     1       1.425  -4.810   4.440  0.00  0.00    +0.007 A 
ATOM     12  C   UNL     1       1.986  -3.898   3.563  0.00  0.00    -0.007 A 
ATOM     13  C   UNL     1       3.169  -4.318   2.717  0.00  0.00    +0.155 C 
ATOM     14  H   UNL     1       1.542  -0.871   2.357  0.00  0.00    +0.153 HD
ENDROOT
BRANCH   3  15
ATOM     15  C   UNL     1       6.122  -3.895   2.370  0.00  0.00    +0.243 C 
ATOM     16  O   UNL     1       5.740  -4.431   3.389  0.00  0.00    -0.273 OA
ATOM     17  N   UNL     1       7.419  -3.974   2.012  0.00  0.00    -0.262 N 
BRANCH  17  18
ATOM     18  C   UNL     1       7.860  -3.354   0.836  0.00  0.00    +0.078 A 
ATOM     19  C   UNL     1       8.316  -2.045   0.869  0.00  0.00    +0.027 A 
ATOM     20  C   UNL     1       8.751  -1.435  -0.293  0.00  0.00    +0.002 A 
ATOM     21  C   UNL     1       8.732  -2.127  -1.490  0.00  0.00    +0.004 A 
ATOM     22  C   UNL     1       8.279  -3.433  -1.531  0.00  0.00    +0.047 A 
ATOM     23  C   UNL     1       7.847  -4.053  -0.369  0.00  0.00    +0.138 A 
BRANCH  23  24
ATOM     24  O   UNL     1       7.406  -5.338  -0.407  0.00  0.00    -0.505 OA
ATOM     25  H   UNL     1       6.457  -5.424  -0.575  0.00  0.00    +0.292 HD
ENDBRANCH  23  24
ENDBRANCH  17  18
BRANCH  17  26
ATOM     26  C   UNL     1       8.367  -4.710   2.852  0.00  0.00    +0.149 C 
BRANCH  26  27
ATOM     27  C   UNL     1       8.418  -6.150   2.411  0.00  0.00    -0.030 A 
ATOM     28  C   UNL     1       7.554  -7.074   2.969  0.00  0.00    +0.005 A 
ATOM     29  C   UNL     1       7.601  -8.395   2.564  0.00  0.00    +0.000 A 
ATOM     30  C   UNL     1       8.510  -8.792   1.602  0.00  0.00    +0.000 A 
ATOM     31  C   UNL     1       9.373  -7.867   1.043  0.00  0.00    +0.000 A 
ATOM     32  C   UNL     1       9.323  -6.545   1.445  0.00  0.00    +0.005 A 
ENDBRANCH  26  27
ENDBRANCH  17  26
ENDBRANCH   3  15
BRANCH   1  33
ATOM     33  C   UNL     1       3.711  -0.707  -0.038  0.00  0.00    +0.046 C 
BRANCH  33  37
ATOM     34  C   UNL     1      -0.017   1.378   0.010  0.00  0.00    +0.000 A 
ATOM     35  C   UNL     1       1.171   2.086   0.002  0.00  0.00    +0.000 A 
ATOM     36  C   UNL     1       2.377   1.411  -0.013  0.00  0.00    +0.003 A 
ATOM     37  C   UNL     1       2.396   0.029  -0.020  0.00  0.00    -0.047 A 
ATOM     38  C   UNL     1       1.208  -0.679  -0.012  0.00  0.00    +0.003 A 
ATOM     39  C   UNL     1       0.002  -0.004   0.002  0.00  0.00    +0.000 A 
ENDBRANCH  33  37
ENDBRANCH   1  33
TORSDOF 7
