REMARK  Name = ZINC07986464
REMARK  6 active torsions:
REMARK  status: ('A' for Active; 'I' for Inactive)
REMARK    1  A    between atoms: C_4  and  O_27
REMARK    2  A    between atoms: C_5  and  C_7
REMARK    3  A    between atoms: N_9  and  N_10
REMARK    4  A    between atoms: C_11  and  C_13
REMARK    5  A    between atoms: C_13  and  N_14
REMARK    6  A    between atoms: C_15  and  C_17
REMARK                            x       y       z     vdW  Elec       q    Type
REMARK                         _______ _______ _______ _____ _____    ______ ____
ROOT
ATOM      1  N   UNL     1      -0.017   1.397   0.010  0.00  0.00    -0.233 N 
ATOM      2  C   UNL     1      -1.193   2.055   0.019  0.00  0.00    +0.246 C 
ATOM      3  O   UNL     1      -2.235   1.434   0.020  0.00  0.00    -0.273 OA
ATOM      4  H   UNL     1       0.816   1.893   0.004  0.00  0.00    +0.173 HD
ENDROOT
BRANCH   1   7
ATOM      5  C   UNL     1       1.178  -0.662  -0.013  0.00  0.00    +0.264 C 
ATOM      6  O   UNL     1       2.223  -0.040  -0.019  0.00  0.00    -0.269 OA
ATOM      7  N   UNL     1       0.002  -0.004   0.002  0.00  0.00    -0.230 N 
ATOM      8  H   UNL     1      -0.831  -0.500   0.007  0.00  0.00    +0.173 HD
BRANCH   5  13
ATOM      9  C   UNL     1       0.026  -4.234  -0.020  0.00  0.00    +0.001 A 
ATOM     10  C   UNL     1       1.235  -4.910  -0.036  0.00  0.00    +0.004 A 
ATOM     11  C   UNL     1       2.426  -4.212  -0.044  0.00  0.00    +0.046 A 
ATOM     12  C   UNL     1       2.419  -2.825  -0.036  0.00  0.00    +0.129 A 
ATOM     13  C   UNL     1       1.198  -2.137  -0.021  0.00  0.00    +0.079 A 
ATOM     14  C   UNL     1       0.000  -2.856  -0.007  0.00  0.00    +0.017 A 
BRANCH  12  15
ATOM     15  O   UNL     1       3.588  -2.138  -0.043  0.00  0.00    -0.506 OA
ATOM     16  H   UNL     1       3.936  -1.944   0.838  0.00  0.00    +0.292 HD
ENDBRANCH  12  15
ENDBRANCH   5  13
ENDBRANCH   1   7
BRANCH   2  17
ATOM     17  C   UNL     1      -1.214   3.562   0.027  0.00  0.00    +0.201 C 
BRANCH  17  18
ATOM     18  N   UNL     1      -2.601   4.031   0.036  0.00  0.00    -0.306 N 
ATOM     19  C   UNL     1      -2.865   5.353   0.045  0.00  0.00    +0.220 C 
ATOM     20  O   UNL     1      -1.954   6.153   0.045  0.00  0.00    -0.275 OA
ATOM     21  H   UNL     1      -3.330   3.391   0.036  0.00  0.00    +0.149 HD
BRANCH  19  22
ATOM     22  C   UNL     1      -4.293   5.836   0.054  0.00  0.00    +0.048 C 
ATOM     23  C   UNL     1      -5.013   5.323  -1.194  0.00  0.00    +0.019 C 
ATOM     24  C   UNL     1      -6.462   5.813  -1.185  0.00  0.00    -0.009 C 
ATOM     25  C   UNL     1      -6.483   7.343  -1.177  0.00  0.00    +0.007 C 
ATOM     26  C   UNL     1      -5.763   7.856   0.072  0.00  0.00    -0.009 C 
ATOM     27  C   UNL     1      -4.314   7.365   0.062  0.00  0.00    +0.019 C 
ATOM     28  C   UNL     1      -6.471   7.329   1.322  0.00  0.00    +0.007 C 
ATOM     29  C   UNL     1      -6.451   5.799   1.313  0.00  0.00    -0.009 C 
ATOM     30  C   UNL     1      -7.171   5.287   0.065  0.00  0.00    +0.007 C 
ATOM     31  C   UNL     1      -5.001   5.309   1.304  0.00  0.00    +0.019 C 
ENDBRANCH  19  22
ENDBRANCH  17  18
ENDBRANCH   2  17
TORSDOF 6
