REMARK  Name = ZINC59146884
REMARK  6 active torsions:
REMARK  status: ('A' for Active; 'I' for Inactive)
REMARK    1  A    between atoms: C_1  and  O_2
REMARK    2  A    between atoms: O_2  and  C_3
REMARK    3  A    between atoms: C_7  and  C_10
REMARK    4  A    between atoms: C_8  and  O_9
REMARK    5  A    between atoms: N_11  and  N_12
REMARK    6  A    between atoms: N_12  and  C_13
REMARK                            x       y       z     vdW  Elec       q    Type
REMARK                         _______ _______ _______ _____ _____    ______ ____
ROOT
ATOM      1  C   UNL     1       1.338  -4.079  -2.312  0.00  0.00    +0.142 C 
ATOM      2  N   UNL     1       0.810  -4.807  -1.375  0.00  0.00    -0.190 NA
ENDROOT
BRANCH   1   7
ATOM      3  C   UNL     1       0.606  -0.608  -1.056  0.00  0.00    +0.162 A 
ATOM      4  C   UNL     1       1.173   0.161  -2.062  0.00  0.00    +0.049 A 
ATOM      5  C   UNL     1       1.790  -0.446  -3.142  0.00  0.00    +0.004 A 
ATOM      6  C   UNL     1       1.846  -1.821  -3.228  0.00  0.00    +0.013 A 
ATOM      7  C   UNL     1       1.280  -2.608  -2.223  0.00  0.00    +0.040 A 
ATOM      8  C   UNL     1       0.661  -1.994  -1.127  0.00  0.00    +0.167 A 
BRANCH   3  10
ATOM      9  C   UNL     1      -0.017   1.425   0.010  0.00  0.00    +0.277 C 
ATOM     10  O   UNL     1       0.002  -0.004   0.002  0.00  0.00    -0.491 OA
ENDBRANCH   3  10
BRANCH   8  11
ATOM     11  O   UNL     1       0.111  -2.750  -0.141  0.00  0.00    -0.503 OA
ATOM     12  H   UNL     1      -0.817  -2.977  -0.290  0.00  0.00    +0.292 HD
ENDBRANCH   8  11
ENDBRANCH   1   7
BRANCH   2  13
ATOM     13  N   UNL     1       0.865  -6.204  -1.460  0.00  0.00    -0.238 N 
ATOM     14  H   UNL     1       1.298  -6.628  -2.218  0.00  0.00    +0.174 HD
BRANCH  13  15
ATOM     15  C   UNL     1       0.298  -6.987  -0.453  0.00  0.00    +0.048 A 
ATOM     16  C   UNL     1      -0.327  -6.382   0.631  0.00  0.00    +0.026 A 
ATOM     17  C   UNL     1      -0.887  -7.160   1.625  0.00  0.00    +0.017 A 
ATOM     18  C   UNL     1      -0.827  -8.540   1.543  0.00  0.00    +0.018 A 
ATOM     19  C   UNL     1      -0.205  -9.145   0.465  0.00  0.00    +0.017 A 
ATOM     20  C   UNL     1       0.352  -8.373  -0.535  0.00  0.00    +0.026 A 
ATOM     21 BR   UNL     1      -1.596  -9.600   2.906  0.00  0.00    -0.050 Br
ENDBRANCH  13  15
ENDBRANCH   2  13
TORSDOF 5
