REMARK  Name = ZINC40752421
REMARK  7 active torsions:
REMARK  status: ('A' for Active; 'I' for Inactive)
REMARK    1  A    between atoms: C_1  and  C_2
REMARK    2  A    between atoms: C_9  and  O_12
REMARK    3  A    between atoms: O_12  and  C_13
REMARK    4  A    between atoms: C_14  and  N_26
REMARK    5  A    between atoms: C_15  and  N_19
REMARK    6  A    between atoms: C_20  and  C_25
REMARK    7  A    between atoms: C_22  and  C_24
REMARK                            x       y       z     vdW  Elec       q    Type
REMARK                         _______ _______ _______ _____ _____    ______ ____
ROOT
ATOM      1  C   UNL     1       0.007  -2.692   4.744  0.00  0.00    +0.247 A 
ATOM      2  C   UNL     1      -0.109  -2.023   5.965  0.00  0.00    +0.132 A 
ATOM      3  C   UNL     1      -0.251  -2.786   7.123  0.00  0.00    +0.182 A 
ATOM      4  N   UNL     1      -0.271  -4.112   7.023  0.00  0.00    -0.214 NA
ATOM      5  C   UNL     1      -0.159  -4.704   5.852  0.00  0.00    +0.227 A 
ATOM      6  N   UNL     1      -0.028  -4.020   4.732  0.00  0.00    -0.199 NA
ENDROOT
BRANCH   3   7
ATOM      7  N   UNL     1      -0.370  -2.167   8.371  0.00  0.00    -0.217 N 
ATOM      8  C   UNL     1      -1.288  -2.464   9.327  0.00  0.00    +0.044 A 
ATOM      9  C   UNL     1      -1.065  -1.641  10.378  0.00  0.00    +0.048 A 
ATOM     10  C   UNL     1       0.020  -0.817  10.058  0.00  0.00    +0.061 A 
ATOM     11  N   UNL     1       0.440  -1.134   8.860  0.00  0.00    -0.170 NA
ATOM     12  C   UNL     1       0.608   0.251  10.944  0.00  0.00    +0.067 C 
ATOM     13  C   UNL     1      -2.360  -3.519   9.235  0.00  0.00    +0.066 C 
ENDBRANCH   3   7
BRANCH   2  14
ATOM     14  N   UNL     1      -0.082  -0.623   6.023  0.00  0.00    -0.351 N 
ATOM     15  H   UNL     1      -0.053  -0.104   5.205  0.00  0.00    +0.143 HD
ATOM     16  H   UNL     1      -0.092  -0.174   6.883  0.00  0.00    +0.143 HD
ENDBRANCH   2  14
BRANCH   1  17
ATOM     17  O   UNL     1       0.146  -1.997   3.587  0.00  0.00    -0.434 OA
BRANCH  17  26
ATOM     18  C   UNL     1      -4.662  -2.863   2.555  0.00  0.00    +0.065 C 
ATOM     19  C   UNL     1      -3.366  -3.208   1.867  0.00  0.00    +0.039 A 
ATOM     20  C   UNL     1      -3.402  -3.926   0.673  0.00  0.00    +0.023 A 
ATOM     21  C   UNL     1      -2.238  -4.247   0.036  0.00  0.00    +0.012 A 
ATOM     22  C   UNL     1      -1.025  -3.834   0.620  0.00  0.00    +0.004 A 
ATOM     23  C   UNL     1       0.211  -4.128   0.022  0.00  0.00    +0.010 A 
ATOM     24  C   UNL     1       1.364  -3.712   0.615  0.00  0.00    +0.004 A 
ATOM     25  C   UNL     1       1.337  -2.998   1.810  0.00  0.00    +0.048 A 
ATOM     26  C   UNL     1       0.154  -2.694   2.421  0.00  0.00    +0.156 A 
ATOM     27  C   UNL     1      -1.061  -3.108   1.835  0.00  0.00    +0.113 A 
ATOM     28  N   UNL     1      -2.235  -2.822   2.405  0.00  0.00    -0.248 NA
ENDBRANCH  17  26
ENDBRANCH   1  17
TORSDOF 4
