REMARK  Name = ZINC46085191
REMARK  7 active torsions:
REMARK  status: ('A' for Active; 'I' for Inactive)
REMARK    1  A    between atoms: C_10  and  O_11
REMARK    2  A    between atoms: O_11  and  C_12
REMARK    3  A    between atoms: C_12  and  C_13
REMARK    4  A    between atoms: C_13  and  N_14
REMARK    5  A    between atoms: N_22  and  N_23
REMARK    6  A    between atoms: N_23  and  C_24
REMARK    7  A    between atoms: C_24  and  N_26
REMARK                            x       y       z     vdW  Elec       q    Type
REMARK                         _______ _______ _______ _____ _____    ______ ____
ROOT
ATOM      1  N   UNL     1       7.278   1.025   1.190  0.00  0.00    -0.262 N 
ATOM      2  C   UNL     1       6.639   2.244   1.387  0.00  0.00    +0.046 A 
ATOM      3  C   UNL     1       5.862   3.028   0.540  0.00  0.00    +0.024 A 
ATOM      4  C   UNL     1       5.335   4.221   0.991  0.00  0.00    +0.002 A 
ATOM      5  C   UNL     1       5.571   4.653   2.285  0.00  0.00    +0.001 A 
ATOM      6  C   UNL     1       6.340   3.888   3.140  0.00  0.00    +0.012 A 
ATOM      7  C   UNL     1       6.875   2.684   2.695  0.00  0.00    +0.028 A 
ATOM      8  C   UNL     1       7.721   1.652   3.338  0.00  0.00    +0.153 C 
ATOM      9  N   UNL     1       8.184   1.649   4.565  0.00  0.00    -0.175 NA
ATOM     10  C   UNL     1       7.924   0.624   2.298  0.00  0.00    +0.271 C 
ATOM     11  O   UNL     1       8.564  -0.403   2.421  0.00  0.00    -0.268 OA
ENDROOT
BRANCH   9  12
ATOM     12  N   UNL     1       8.976   0.583   5.012  0.00  0.00    -0.218 N 
ATOM     13  H   UNL     1       9.182  -0.152   4.414  0.00  0.00    +0.176 HD
BRANCH  12  14
ATOM     14  C   UNL     1       9.453   0.580   6.272  0.00  0.00    +0.147 C 
ATOM     15  S   UNL     1      10.421  -0.722   6.819  0.00  0.00    -0.017 S 
BRANCH  14  16
ATOM     16  N   UNL     1       9.167   1.602   7.103  0.00  0.00    -0.339 N 
ATOM     17  H   UNL     1       8.619   2.340   6.794  0.00  0.00    +0.144 HD
ATOM     18  H   UNL     1       9.510   1.600   8.011  0.00  0.00    +0.144 HD
ENDBRANCH  14  16
ENDBRANCH  12  14
ENDBRANCH   9  12
BRANCH   1  19
ATOM     19  C   UNL     1       7.246   0.271  -0.066  0.00  0.00    +0.155 C 
BRANCH  19  20
ATOM     20  C   UNL     1       6.047  -0.680  -0.059  0.00  0.00    +0.248 C 
BRANCH  20  21
ATOM     21  O   UNL     1       4.837   0.080  -0.043  0.00  0.00    -0.490 OA
BRANCH  21  31
ATOM     22  C   UNL     1      -0.016   1.357   0.009  0.00  0.00    +0.001 A 
ATOM     23  C   UNL     1       1.169   2.090   0.002  0.00  0.00    +0.001 A 
ATOM     24  C   UNL     1       2.379   1.467  -0.013  0.00  0.00    +0.012 A 
ATOM     25  C   UNL     1       2.437   0.064  -0.021  0.00  0.00    +0.024 A 
ATOM     26  C   UNL     1       1.233  -0.683  -0.013  0.00  0.00    -0.014 A 
ATOM     27  C   UNL     1       0.002  -0.004   0.002  0.00  0.00    +0.008 A 
ATOM     28  C   UNL     1       1.292  -2.087  -0.021  0.00  0.00    +0.009 A 
ATOM     29  C   UNL     1       2.501  -2.713  -0.035  0.00  0.00    +0.004 A 
ATOM     30  C   UNL     1       3.687  -1.984  -0.043  0.00  0.00    +0.046 A 
ATOM     31  C   UNL     1       3.671  -0.617  -0.036  0.00  0.00    +0.128 A 
ENDBRANCH  21  31
ENDBRANCH  20  21
ENDBRANCH  19  20
ENDBRANCH   1  19
TORSDOF 7
