REMARK  Name = ZINC08793052
REMARK  10 active torsions:
REMARK  status: ('A' for Active; 'I' for Inactive)
REMARK    1  A    between atoms: C_1  and  C_2
REMARK    2  A    between atoms: C_2  and  O_3
REMARK    3  A    between atoms: O_3  and  C_4
REMARK    4  A    between atoms: C_4  and  C_6
REMARK    5  A    between atoms: C_10  and  N_11
REMARK    6  A    between atoms: C_12  and  C_14
REMARK    7  A    between atoms: C_15  and  C_16
REMARK    8  A    between atoms: C_19  and  N_22
REMARK    9  A    between atoms: C_28  and  C_29
REMARK   10  A    between atoms: C_28  and  N_60
REMARK                            x       y       z     vdW  Elec       q    Type
REMARK                         _______ _______ _______ _____ _____    ______ ____
ROOT
ATOM      1  C   UNL     1       3.210   8.250  -5.087  0.00  0.00    +0.091 A 
ATOM      2  C   UNL     1       2.824   8.583  -3.728  0.00  0.00    -0.025 A 
ATOM      3  C   UNL     1       1.495   8.558  -3.482  0.00  0.00    -0.021 A 
ATOM      4  S   UNL     1       0.758   8.101  -5.023  0.00  0.00    -0.079 S 
ATOM      5  C   UNL     1       2.192   7.944  -5.984  0.00  0.00    +0.086 A 
ATOM      6  C   UNL     1       0.828   8.855  -2.175  0.00  0.00    -0.035 C 
ATOM      7  C   UNL     1       3.018   9.641  -1.499  0.00  0.00    -0.073 C 
ATOM      8  C   UNL     1       3.801   8.945  -2.615  0.00  0.00    +0.018 C 
ATOM      9  N   UNL     1       1.863   8.803  -1.115  0.00  0.00    +0.386 N 
ATOM     10  H   UNL     1       2.178   7.832  -1.002  0.00  0.00    -0.081 HD
ENDROOT
BRANCH   5  11
ATOM     11  N   UNL     1       2.299   7.598  -7.320  0.00  0.00    -0.276 N 
ATOM     12  C   UNL     1       1.190   7.334  -8.038  0.00  0.00    +0.241 C 
ATOM     13  O   UNL     1       0.094   7.399  -7.512  0.00  0.00    -0.270 OA
ATOM     14  H   UNL     1       3.172   7.546  -7.739  0.00  0.00    +0.156 HD
BRANCH  12  15
ATOM     15  C   UNL     1       1.303   6.968  -9.450  0.00  0.00    +0.068 C 
ATOM     16  C   UNL     1       0.210   6.571 -10.134  0.00  0.00    +0.013 C 
BRANCH  16  17
ATOM     17  C   UNL     1      -1.039   6.273  -9.415  0.00  0.00    -0.025 A 
ATOM     18  C   UNL     1      -1.009   5.526  -8.233  0.00  0.00    +0.010 A 
ATOM     19  C   UNL     1      -2.183   5.255  -7.562  0.00  0.00    +0.033 A 
ATOM     20  C   UNL     1      -3.390   5.712  -8.061  0.00  0.00    +0.126 A 
ATOM     21  C   UNL     1      -3.429   6.447  -9.233  0.00  0.00    +0.033 A 
ATOM     22  C   UNL     1      -2.263   6.730  -9.913  0.00  0.00    +0.010 A 
BRANCH  20  23
ATOM     23  N   UNL     1      -4.647   5.413  -7.338  0.00  0.00    +0.056 N 
ATOM     24  O   UNL     1      -5.711   5.813  -7.774  0.00  0.00    -0.126 OA
ATOM     25  O   UNL     1      -4.616   4.767  -6.306  0.00  0.00    -0.126 OA
ENDBRANCH  20  23
ENDBRANCH  16  17
ENDBRANCH  12  15
ENDBRANCH   5  11
BRANCH   1  26
ATOM     26  C   UNL     1       4.615   8.237  -5.497  0.00  0.00    +0.342 C 
ATOM     27  O   UNL     1       5.268   7.215  -5.399  0.00  0.00    -0.245 OA
BRANCH  26  28
ATOM     28  O   UNL     1       5.186   9.357  -5.984  0.00  0.00    -0.461 OA
BRANCH  28  30
ATOM     29  C   UNL     1       7.052  10.630  -6.896  0.00  0.00    +0.048 C 
ATOM     30  C   UNL     1       6.583   9.271  -6.371  0.00  0.00    +0.229 C 
ENDBRANCH  28  30
ENDBRANCH  26  28
ENDBRANCH   1  26
BRANCH   9  31
ATOM     31  C   UNL     1       1.299   9.277   0.167  0.00  0.00    -0.043 C 
BRANCH  31  32
ATOM     32  C   UNL     1      -0.023   8.594   0.408  0.00  0.00    -0.064 A 
ATOM     33  C   UNL     1      -0.065   7.385   1.076  0.00  0.00    +0.002 A 
ATOM     34  C   UNL     1      -1.277   6.758   1.297  0.00  0.00    +0.000 A 
ATOM     35  C   UNL     1      -2.447   7.339   0.846  0.00  0.00    +0.000 A 
ATOM     36  C   UNL     1      -2.406   8.551   0.182  0.00  0.00    +0.000 A 
ATOM     37  C   UNL     1      -1.194   9.178  -0.038  0.00  0.00    +0.002 A 
ENDBRANCH  31  32
ENDBRANCH   9  31
TORSDOF 9
