REMARK  Name = ZINC36040198
REMARK  12 active torsions:
REMARK  status: ('A' for Active; 'I' for Inactive)
REMARK    1  A    between atoms: C_1  and  C_2
REMARK    2  A    between atoms: C_2  and  O_32
REMARK    3  A    between atoms: N_5  and  O_6
REMARK    4  A    between atoms: C_7  and  C_26
REMARK    5  A    between atoms: C_9  and  C_19
REMARK    6  A    between atoms: C_11  and  C_13
REMARK    7  A    between atoms: C_13  and  O_15
REMARK    8  A    between atoms: O_15  and  C_16
REMARK    9  A    between atoms: C_16  and  C_17
REMARK   10  A    between atoms: C_26  and  O_28
REMARK   11  A    between atoms: O_28  and  C_29
REMARK   12  A    between atoms: C_29  and  C_30
REMARK                            x       y       z     vdW  Elec       q    Type
REMARK                         _______ _______ _______ _____ _____    ______ ____
ROOT
ATOM      1  C   UNL     1       1.070  -0.475  -1.502  0.00  0.00    +0.042 C 
ATOM      2  C   UNL     1       1.058  -1.330  -0.234  0.00  0.00    +0.082 C 
ATOM      3  C   UNL     1      -0.301  -2.026  -0.099  0.00  0.00    +0.090 C 
ATOM      4  C   UNL     1      -1.363  -0.970   0.116  0.00  0.00    +0.074 C 
ATOM      5  N   UNL     1      -2.417  -0.943  -0.608  0.00  0.00    -0.096 NA
ATOM      6  C   UNL     1      -1.146   0.053   1.209  0.00  0.00    +0.154 C 
ATOM      7  C   UNL     1       0.244   0.673   1.027  0.00  0.00    +0.055 C 
ATOM      8  C   UNL     1       1.294  -0.438   0.986  0.00  0.00    +0.138 C 
ENDROOT
BRANCH   7   9
ATOM      9  C   UNL     1       0.282   1.450  -0.264  0.00  0.00    -0.042 A 
ATOM     10  C   UNL     1      -0.756   1.336  -1.170  0.00  0.00    +0.005 A 
ATOM     11  C   UNL     1      -0.721   2.049  -2.353  0.00  0.00    +0.015 A 
ATOM     12  C   UNL     1       0.352   2.877  -2.631  0.00  0.00    +0.018 A 
ATOM     13  C   UNL     1       1.390   2.990  -1.724  0.00  0.00    +0.015 A 
ATOM     14  C   UNL     1       1.352   2.281  -0.538  0.00  0.00    +0.005 A 
ATOM     15 BR   UNL     1       0.400   3.852  -4.251  0.00  0.00    -0.050 Br
ENDBRANCH   7   9
BRANCH   5  16
ATOM     16  O   UNL     1      -3.419   0.027  -0.364  0.00  0.00    -0.409 OA
ATOM     17  H   UNL     1      -4.177  -0.032  -0.961  0.00  0.00    +0.328 HD
ENDBRANCH   5  16
BRANCH   8  18
ATOM     18  C   UNL     1       2.668   0.176   0.898  0.00  0.00    +0.314 C 
ATOM     19  O   UNL     1       3.021   0.987   1.721  0.00  0.00    -0.250 OA
BRANCH  18  20
ATOM     20  O   UNL     1       3.500  -0.179  -0.094  0.00  0.00    -0.460 OA
BRANCH  20  21
ATOM     21  C   UNL     1       4.786   0.442  -0.116  0.00  0.00    +0.259 C 
BRANCH  21  22
ATOM     22  C   UNL     1       5.575  -0.075  -1.291  0.00  0.00    +0.006 C 
ATOM     23  C   UNL     1       6.242   0.758  -2.050  0.00  0.00    +0.007 C 
ENDBRANCH  21  22
ENDBRANCH  20  21
ENDBRANCH  18  20
ENDBRANCH   8  18
BRANCH   6  24
ATOM     24  C   UNL     1      -2.200   1.125   1.114  0.00  0.00    +0.317 C 
ATOM     25  O   UNL     1      -1.947   2.174   0.570  0.00  0.00    -0.250 OA
BRANCH  24  26
ATOM     26  O   UNL     1      -3.419   0.916   1.635  0.00  0.00    -0.460 OA
BRANCH  26  27
ATOM     27  C   UNL     1      -4.369   1.976   1.509  0.00  0.00    +0.259 C 
BRANCH  27  28
ATOM     28  C   UNL     1      -5.670   1.563   2.147  0.00  0.00    +0.006 C 
ATOM     29  C   UNL     1      -6.310   2.397   2.930  0.00  0.00    +0.007 C 
ENDBRANCH  27  28
ENDBRANCH  26  27
ENDBRANCH  24  26
ENDBRANCH   6  24
BRANCH   2  30
ATOM     30  O   UNL     1       2.092  -2.314  -0.312  0.00  0.00    -0.388 OA
ATOM     31  H   UNL     1       2.005  -2.917  -1.063  0.00  0.00    +0.210 HD
ENDBRANCH   2  30
TORSDOF 11
