REMARK  Name = ZINC15322857
REMARK  8 active torsions:
REMARK  status: ('A' for Active; 'I' for Inactive)
REMARK    1  A    between atoms: C_1  and  N_55
REMARK    2  A    between atoms: C_2  and  C_3
REMARK    3  A    between atoms: C_2  and  N_55
REMARK    4  A    between atoms: C_8  and  N_9
REMARK    5  A    between atoms: N_9  and  C_10
REMARK    6  A    between atoms: C_10  and  C_11
REMARK    7  A    between atoms: N_13  and  C_14
REMARK    8  A    between atoms: C_21  and  N_55
REMARK                            x       y       z     vdW  Elec       q    Type
REMARK                         _______ _______ _______ _____ _____    ______ ____
ROOT
ATOM      1  C   UNL     1      -1.529   3.793   2.572  0.00  0.00    -0.043 A 
ATOM      2  C   UNL     1      -1.679   5.149   2.792  0.00  0.00    +0.003 A 
ATOM      3  C   UNL     1      -1.179   6.058   1.878  0.00  0.00    +0.000 A 
ATOM      4  C   UNL     1      -0.528   5.614   0.741  0.00  0.00    +0.002 A 
ATOM      5  C   UNL     1      -0.370   4.261   0.518  0.00  0.00    +0.023 A 
ATOM      6  C   UNL     1      -0.876   3.344   1.431  0.00  0.00    +0.029 A 
ENDROOT
BRANCH   6   7
ATOM      7  N   UNL     1      -0.723   1.974   1.206  0.00  0.00    -0.335 N 
ATOM      8  H   UNL     1      -1.073   1.335   1.847  0.00  0.00    +0.147 HD
BRANCH   7   9
ATOM      9  C   UNL     1      -0.033   1.502   0.003  0.00  0.00    +0.198 C 
BRANCH   9  10
ATOM     10  C   UNL     1      -0.003  -0.004  -0.001  0.00  0.00    +0.234 C 
ATOM     11  O   UNL     1      -0.507  -0.623   0.913  0.00  0.00    -0.274 OA
ATOM     12  N   UNL     1       0.585  -0.664  -1.018  0.00  0.00    -0.283 N 
ATOM     13  H   UNL     1       0.930  -0.173  -1.780  0.00  0.00    +0.155 HD
BRANCH  12  14
ATOM     14  C   UNL     1       0.697  -2.059  -0.976  0.00  0.00    +0.047 A 
ATOM     15  C   UNL     1      -0.305  -2.820  -0.389  0.00  0.00    +0.024 A 
ATOM     16  C   UNL     1      -0.194  -4.196  -0.353  0.00  0.00    +0.002 A 
ATOM     17  C   UNL     1       0.919  -4.816  -0.891  0.00  0.00    +0.001 A 
ATOM     18  C   UNL     1       1.921  -4.061  -1.471  0.00  0.00    +0.016 A 
ATOM     19  C   UNL     1       1.814  -2.684  -1.515  0.00  0.00    +0.035 A 
ATOM     20  I   UNL     1       3.334  -1.541  -2.394  0.00  0.00    -0.042 I 
ENDBRANCH  12  14
ENDBRANCH   9  10
ENDBRANCH   7   9
ENDBRANCH   6   7
BRANCH   1  21
ATOM     21  C   UNL     1      -2.075   2.803   3.568  0.00  0.00    -0.041 C 
BRANCH  21  23
ATOM     22  C   UNL     1      -0.457   3.406   5.266  0.00  0.00    -0.095 C 
ATOM     23  N   UNL     1      -0.964   2.312   4.410  0.00  0.00    +0.382 N 
ATOM     24  H   UNL     1      -0.204   1.985   3.802  0.00  0.00    -0.081 HD
BRANCH  23  25
ATOM     25  C   UNL     1      -1.425   1.186   5.249  0.00  0.00    -0.069 C 
ATOM     26  C   UNL     1      -2.508   1.653   6.224  0.00  0.00    -0.015 C 
ATOM     27  C   UNL     1      -2.966   0.471   7.081  0.00  0.00    -0.002 C 
ATOM     28  C   UNL     1      -1.776  -0.081   7.867  0.00  0.00    -0.000 C 
ATOM     29  C   UNL     1      -0.692  -0.548   6.892  0.00  0.00    -0.002 C 
ATOM     30  C   UNL     1      -0.234   0.634   6.036  0.00  0.00    -0.015 C 
ENDBRANCH  23  25
ENDBRANCH  21  23
ENDBRANCH   1  21
TORSDOF 7
