REMARK  Name = ZINC23601363
REMARK  13 active torsions:
REMARK  status: ('A' for Active; 'I' for Inactive)
REMARK    1  A    between atoms: C_1  and  C_2
REMARK    2  A    between atoms: C_2  and  C_4
REMARK    3  A    between atoms: C_2  and  S_15
REMARK    4  A    between atoms: N_6  and  C_7
REMARK    5  A    between atoms: S_15  and  C_16
REMARK    6  A    between atoms: C_19  and  C_22
REMARK    7  A    between atoms: N_20  and  N_21
REMARK    8  A    between atoms: C_22  and  O_23
REMARK    9  A    between atoms: O_23  and  C_24
REMARK   10  A    between atoms: C_27  and  C_30
REMARK   11  A    between atoms: C_30  and  C_31
REMARK   12  A    between atoms: C_30  and  C_32
REMARK   13  A    between atoms: C_30  and  C_33
REMARK                            x       y       z     vdW  Elec       q    Type
REMARK                         _______ _______ _______ _____ _____    ______ ____
ROOT
ATOM      1  C   UNL     1      -1.377   2.764   2.948  0.00  0.00    +0.209 A 
ATOM      2  N   UNL     1      -2.084   1.660   2.883  0.00  0.00    -0.121 NA
ATOM      3  N   UNL     1      -1.719   0.968   1.863  0.00  0.00    -0.128 NA
ATOM      4  C   UNL     1      -0.766   1.583   1.222  0.00  0.00    +0.189 A 
ATOM      5  N   UNL     1      -0.510   2.747   1.893  0.00  0.00    -0.225 N 
ENDROOT
BRANCH   5   6
ATOM      6  N   UNL     1       0.418   3.697   1.573  0.00  0.00    -0.295 N 
ATOM      7  H   UNL     1       1.060   3.563   0.689  0.00  0.00    +0.163 HD
ATOM      8  H   UNL     1       0.523   4.596   2.197  0.00  0.00    +0.163 HD
ENDBRANCH   5   6
BRANCH   1   9
ATOM      9  S   UNL     1      -1.515   4.026   4.170  0.00  0.00    -0.072 S 
BRANCH   9  11
ATOM     10  C   UNL     1      -4.130   3.263   4.377  0.00  0.00    +0.029 C 
ATOM     11  C   UNL     1      -2.837   3.330   5.192  0.00  0.00    +0.137 C 
BRANCH  11  12
ATOM     12  C   UNL     1      -3.050   4.205   6.401  0.00  0.00    +0.230 C 
ATOM     13  O   UNL     1      -2.745   5.378   6.362  0.00  0.00    -0.274 OA
ATOM     14  N   UNL     1      -3.579   3.683   7.526  0.00  0.00    -0.283 N 
ATOM     15  H   UNL     1      -3.923   2.638   7.538  0.00  0.00    +0.155 HD
BRANCH  14  16
ATOM     16  C   UNL     1      -3.690   4.470   8.678  0.00  0.00    +0.052 A 
ATOM     17  C   UNL     1      -3.965   5.827   8.569  0.00  0.00    +0.026 A 
ATOM     18  C   UNL     1      -4.074   6.601   9.708  0.00  0.00    +0.022 A 
ATOM     19  C   UNL     1      -3.910   6.027  10.956  0.00  0.00    +0.042 A 
ATOM     20  C   UNL     1      -3.636   4.676  11.068  0.00  0.00    +0.041 A 
ATOM     21  C   UNL     1      -3.531   3.894   9.932  0.00  0.00    +0.064 A 
ATOM     22 CL   UNL     1      -3.195   2.197  10.073  0.00  0.00    -0.082 Cl
ATOM     23 CL   UNL     1      -4.048   7.004  12.384  0.00  0.00    -0.083 Cl
ENDBRANCH  14  16
ENDBRANCH  11  12
ENDBRANCH   9  11
ENDBRANCH   1   9
BRANCH   4  24
ATOM     24  C   UNL     1      -0.071   1.099  -0.024  0.00  0.00    +0.306 C 
BRANCH  24  25
ATOM     25  O   UNL     1      -0.768   1.578  -1.175  0.00  0.00    -0.484 OA
BRANCH  25  26
ATOM     26  C   UNL     1      -0.267   1.229  -2.389  0.00  0.00    +0.121 A 
ATOM     27  C   UNL     1       0.875   0.446  -2.471  0.00  0.00    +0.046 A 
ATOM     28  C   UNL     1       1.379   0.087  -3.706  0.00  0.00    +0.008 A 
ATOM     29  C   UNL     1       0.752   0.517  -4.861  0.00  0.00    -0.042 A 
ATOM     30  C   UNL     1      -0.384   1.303  -4.783  0.00  0.00    +0.008 A 
ATOM     31  C   UNL     1      -0.894   1.659  -3.550  0.00  0.00    +0.046 A 
BRANCH  29  32
ATOM     32  C   UNL     1       1.307   0.130  -6.207  0.00  0.00    -0.013 C 
ATOM     33  C   UNL     1       1.675   1.392  -6.990  0.00  0.00    +0.015 C 
ATOM     34  C   UNL     1       2.556  -0.733  -6.015  0.00  0.00    +0.015 C 
ATOM     35  C   UNL     1       0.254  -0.663  -6.984  0.00  0.00    +0.015 C 
ENDBRANCH  29  32
ENDBRANCH  25  26
ENDBRANCH  24  25
ENDBRANCH   4  24
TORSDOF 9
