REMARK  Name = ZINC39361828
REMARK  10 active torsions:
REMARK  status: ('A' for Active; 'I' for Inactive)
REMARK    1  A    between atoms: C_1  and  C_2
REMARK    2  A    between atoms: C_2  and  C_3
REMARK    3  A    between atoms: C_3  and  C_5
REMARK    4  A    between atoms: C_3  and  S_6
REMARK    5  A    between atoms: S_6  and  C_7
REMARK    6  A    between atoms: C_11  and  C_22
REMARK    7  A    between atoms: N_13  and  C_14
REMARK    8  A    between atoms: C_16  and  C_21
REMARK    9  A    between atoms: C_19  and  C_20
REMARK   10  A    between atoms: C_22  and  C_23
REMARK                            x       y       z     vdW  Elec       q    Type
REMARK                         _______ _______ _______ _____ _____    ______ ____
ROOT
ATOM      1  C   UNL     1       0.630  -0.750   4.082  0.00  0.00    +0.217 C 
ATOM      2  N   UNL     1       1.907  -0.009   4.193  0.00  0.00    -0.226 NA
ATOM      3  N   UNL     1       2.877  -1.018   4.649  0.00  0.00    -0.234 NA
ATOM      4  C   UNL     1       2.457  -2.240   3.913  0.00  0.00    +0.163 C 
ATOM      5  N   UNL     1       0.980  -2.170   3.904  0.00  0.00    -0.287 N 
ATOM      6  H   UNL     1       2.179   0.378   3.302  0.00  0.00    +0.143 HD
ATOM      7  H   UNL     1       2.813  -1.156   5.646  0.00  0.00    +0.143 HD
ENDROOT
BRANCH   5   8
ATOM      8  C   UNL     1       0.093  -3.238   3.756  0.00  0.00    +0.036 A 
ATOM      9  C   UNL     1      -0.253  -3.685   2.486  0.00  0.00    +0.026 A 
ATOM     10  C   UNL     1      -1.130  -4.742   2.343  0.00  0.00    -0.049 A 
ATOM     11  C   UNL     1      -1.665  -5.354   3.462  0.00  0.00    +0.004 A 
ATOM     12  C   UNL     1      -1.324  -4.912   4.726  0.00  0.00    +0.005 A 
ATOM     13  C   UNL     1      -0.442  -3.860   4.877  0.00  0.00    -0.029 A 
ATOM     14  C   UNL     1      -0.065  -3.382   6.255  0.00  0.00    +0.045 C 
ATOM     15  C   UNL     1      -1.506  -5.227   0.967  0.00  0.00    +0.044 C 
ENDBRANCH   5   8
BRANCH   1  16
ATOM     16  S   UNL     1      -0.309  -0.157   2.647  0.00  0.00    -0.119 S 
BRANCH  16  17
ATOM     17  C   UNL     1      -1.056   1.393   3.222  0.00  0.00    +0.046 C 
ATOM     18  C   UNL     1       0.043   2.427   3.471  0.00  0.00    +0.019 C 
BRANCH  17  20
ATOM     19  C   UNL     1      -3.187   0.942   1.997  0.00  0.00    +0.005 C 
ATOM     20  C   UNL     1      -2.021   1.919   2.157  0.00  0.00    +0.010 C 
ENDBRANCH  17  20
ENDBRANCH  16  17
ENDBRANCH   1  16
BRANCH   4  21
ATOM     21  C   UNL     1       3.006  -2.220   2.485  0.00  0.00    +0.093 C 
BRANCH  21  22
ATOM     22  C   UNL     1       4.512  -2.262   2.526  0.00  0.00    +0.029 A 
ATOM     23  N   UNL     1       5.227  -1.106   2.681  0.00  0.00    -0.311 N 
ATOM     24  C   UNL     1       6.572  -1.132   2.719  0.00  0.00    +0.327 A 
ATOM     25  O   UNL     1       7.188  -0.093   2.858  0.00  0.00    -0.247 OA
ATOM     26  N   UNL     1       7.245  -2.292   2.606  0.00  0.00    -0.275 N 
ATOM     27  C   UNL     1       6.577  -3.453   2.451  0.00  0.00    +0.254 A 
ATOM     28  O   UNL     1       7.185  -4.503   2.349  0.00  0.00    -0.268 OA
ATOM     29  C   UNL     1       5.161  -3.440   2.414  0.00  0.00    +0.091 A 
ATOM     30  H   UNL     1       8.214  -2.293   2.635  0.00  0.00    +0.173 HD
ATOM     31  H   UNL     1       4.761  -0.259   2.764  0.00  0.00    +0.170 HD
ENDBRANCH  21  22
ENDBRANCH   4  21
TORSDOF 6
