REMARK  Name = ZINC11747355
REMARK  10 active torsions:
REMARK  status: ('A' for Active; 'I' for Inactive)
REMARK    1  A    between atoms: C_1  and  C_2
REMARK    2  A    between atoms: C_2  and  C_3
REMARK    3  A    between atoms: C_2  and  C_4
REMARK    4  A    between atoms: C_4  and  C_6
REMARK    5  A    between atoms: C_4  and  N_26
REMARK    6  A    between atoms: N_11  and  S_14
REMARK    7  A    between atoms: S_14  and  C_17
REMARK    8  A    between atoms: C_19  and  C_23
REMARK    9  A    between atoms: N_20  and  C_22
REMARK   10  A    between atoms: C_27  and  C_29
REMARK                            x       y       z     vdW  Elec       q    Type
REMARK                         _______ _______ _______ _____ _____    ______ ____
ROOT
ATOM      1  C   UNL     1       3.418  -0.486   0.445  0.00  0.00    +0.236 C 
ATOM      2  O   UNL     1       3.442  -1.699   0.447  0.00  0.00    -0.274 OA
ATOM      3  N   UNL     1       2.259   0.166   0.665  0.00  0.00    -0.297 N 
ATOM      4  C   UNL     1       0.997  -0.575   0.793  0.00  0.00    +0.125 C 
ATOM      5  C   UNL     1      -0.004  -0.020  -0.227  0.00  0.00    +0.128 C 
ATOM      6  N   UNL     1      -0.028   1.445  -0.112  0.00  0.00    -0.174 NA
ATOM      7  C   UNL     1       1.235   2.187  -0.241  0.00  0.00    +0.128 C 
ATOM      8  C   UNL     1       2.236   1.631   0.780  0.00  0.00    +0.125 C 
ENDROOT
BRANCH   6   9
ATOM      9  S   UNL     1      -1.453   2.247   0.151  0.00  0.00    +0.062 S 
ATOM     10  O   UNL     1      -1.269   3.571  -0.332  0.00  0.00    -0.153 OA
ATOM     11  O   UNL     1      -2.489   1.400  -0.324  0.00  0.00    -0.153 OA
BRANCH   9  12
ATOM     12  C   UNL     1      -1.665   2.372   1.896  0.00  0.00    +0.124 A 
ATOM     13  C   UNL     1      -2.324   1.448   2.713  0.00  0.00    +0.061 A 
ATOM     14  C   UNL     1      -2.256   1.929   4.004  0.00  0.00    +0.106 A 
ATOM     15  N   UNL     1      -1.577   3.126   3.966  0.00  0.00    -0.344 N 
ATOM     16  C   UNL     1      -1.225   3.383   2.682  0.00  0.00    +0.114 A 
ATOM     17  C   UNL     1      -1.285   3.980   5.120  0.00  0.00    +0.149 C 
BRANCH  14  18
ATOM     18  C   UNL     1      -2.812   1.285   5.199  0.00  0.00    +0.258 C 
ATOM     19  O   UNL     1      -2.778   1.860   6.271  0.00  0.00    -0.269 OA
ATOM     20  N   UNL     1      -3.360   0.057   5.110  0.00  0.00    -0.324 N 
ATOM     21  H   UNL     1      -3.322  -0.431   4.273  0.00  0.00    +0.145 HD
ATOM     22  H   UNL     1      -3.792  -0.338   5.883  0.00  0.00    +0.145 HD
ENDBRANCH  14  18
ENDBRANCH   9  12
ENDBRANCH   6   9
BRANCH   1  23
ATOM     23  C   UNL     1       4.685   0.291   0.195  0.00  0.00    +0.162 C 
BRANCH  23  24
ATOM     24  N   UNL     1       5.627  -0.539  -0.559  0.00  0.00    -0.304 N 
ATOM     25  C   UNL     1       6.574   0.042  -1.322  0.00  0.00    +0.217 C 
ATOM     26  O   UNL     1       6.647   1.250  -1.384  0.00  0.00    -0.275 OA
ATOM     27  H   UNL     1       5.569  -1.506  -0.510  0.00  0.00    +0.149 HD
BRANCH  25  28
ATOM     28  C   UNL     1       7.544  -0.812  -2.099  0.00  0.00    +0.075 C 
ATOM     29  C   UNL     1       8.336  -1.693  -1.131  0.00  0.00    +0.013 C 
ATOM     30  C   UNL     1       9.320  -2.560  -1.919  0.00  0.00    +0.001 C 
ATOM     31  C   UNL     1      10.284  -1.660  -2.696  0.00  0.00    +0.000 C 
ATOM     32  C   UNL     1       9.491  -0.779  -3.663  0.00  0.00    +0.001 C 
ATOM     33  C   UNL     1       8.507   0.087  -2.875  0.00  0.00    +0.013 C 
ENDBRANCH  25  28
ENDBRANCH  23  24
BRANCH  23  35
ATOM     34  C   UNL     1       5.765  -0.572   2.276  0.00  0.00    +0.009 C 
ATOM     35  C   UNL     1       5.312   0.687   1.534  0.00  0.00    +0.012 C 
ATOM     36  C   UNL     1       6.519   1.593   1.283  0.00  0.00    +0.009 C 
ENDBRANCH  23  35
ENDBRANCH   1  23
TORSDOF 7
