REMARK  Name = ZINC09469609
REMARK  9 active torsions:
REMARK  status: ('A' for Active; 'I' for Inactive)
REMARK    1  A    between atoms: C_1  and  C_2
REMARK    2  A    between atoms: C_2  and  N_3
REMARK    3  A    between atoms: C_5  and  C_14
REMARK    4  A    between atoms: C_14  and  N_58
REMARK    5  A    between atoms: C_15  and  N_58
REMARK    6  A    between atoms: C_16  and  C_17
REMARK    7  A    between atoms: C_16  and  N_58
REMARK    8  A    between atoms: N_19  and  C_20
REMARK    9  A    between atoms: C_21  and  C_28
REMARK                            x       y       z     vdW  Elec       q    Type
REMARK                         _______ _______ _______ _____ _____    ______ ____
ROOT
ATOM      1  C   UNL     1      -2.940   3.504  -6.906  0.00  0.00    +0.019 C 
ENDROOT
BRANCH   1   2
ATOM      2  C   UNL     1      -2.184   2.969  -5.718  0.00  0.00    +0.201 C 
ATOM      3  O   UNL     1      -1.096   2.456  -5.872  0.00  0.00    -0.278 OA
ATOM      4  N   UNL     1      -2.717   3.059  -4.483  0.00  0.00    -0.281 N 
ATOM      5  H   UNL     1      -3.588   3.470  -4.360  0.00  0.00    +0.155 HD
BRANCH   4   6
ATOM      6  C   UNL     1      -2.022   2.567  -3.389  0.00  0.00    +0.084 A 
ATOM      7  C   UNL     1      -2.400   2.568  -2.058  0.00  0.00    +0.068 A 
ATOM      8  C   UNL     1      -1.474   1.980  -1.091  0.00  0.00    -0.023 A 
ATOM      9  C   UNL     1      -0.333   1.495  -1.614  0.00  0.00    -0.004 A 
ATOM     10  S   UNL     1      -0.470   1.802  -3.358  0.00  0.00    -0.077 S 
ATOM     11  C   UNL     1       0.568   0.911  -0.559  0.00  0.00    +0.043 C 
ATOM     12  C   UNL     1       0.030   1.479   0.773  0.00  0.00    +0.010 C 
ATOM     13  C   UNL     1      -1.449   1.752   0.421  0.00  0.00    +0.037 C 
BRANCH   7  14
ATOM     14  C   UNL     1      -3.682   3.138  -1.633  0.00  0.00    +0.244 C 
ATOM     15  O   UNL     1      -4.675   2.436  -1.586  0.00  0.00    -0.270 OA
ATOM     16  N   UNL     1      -3.761   4.440  -1.293  0.00  0.00    -0.325 N 
ATOM     17  H   UNL     1      -2.970   5.000  -1.330  0.00  0.00    +0.145 HD
ATOM     18  H   UNL     1      -4.609   4.817  -1.011  0.00  0.00    +0.145 HD
ENDBRANCH   7  14
ENDBRANCH   4   6
ENDBRANCH   1   2
BRANCH   1  20
ATOM     19  C   UNL     1      -2.015   1.853  -8.416  0.00  0.00    -0.095 C 
ATOM     20  N   UNL     1      -2.126   3.297  -8.122  0.00  0.00    +0.386 N 
ATOM     21  H   UNL     1      -1.186   3.678  -7.963  0.00  0.00    -0.081 HD
BRANCH  20  22
ATOM     22  C   UNL     1      -2.740   4.000  -9.268  0.00  0.00    -0.032 C 
BRANCH  22  25
ATOM     23  N   UNL     1      -2.806   7.684 -10.150  0.00  0.00    -0.324 N 
ATOM     24  C   UNL     1      -3.069   6.251 -10.321  0.00  0.00    +0.147 C 
ATOM     25  C   UNL     1      -2.422   5.492  -9.155  0.00  0.00    +0.174 C 
ATOM     26  O   UNL     1      -1.006   5.692  -9.232  0.00  0.00    -0.487 OA
ATOM     27  C   UNL     1      -0.581   6.965  -9.464  0.00  0.00    +0.142 A 
ATOM     28  C   UNL     1      -1.452   7.948  -9.918  0.00  0.00    +0.072 A 
ATOM     29  C   UNL     1      -0.975   9.233 -10.150  0.00  0.00    +0.027 A 
ATOM     30  C   UNL     1       0.355   9.532  -9.928  0.00  0.00    +0.002 A 
ATOM     31  C   UNL     1       1.219   8.553  -9.473  0.00  0.00    +0.004 A 
ATOM     32  C   UNL     1       0.753   7.273  -9.242  0.00  0.00    +0.047 A 
BRANCH  23  34
ATOM     33  C   UNL     1      -4.825   8.328 -11.379  0.00  0.00    +0.024 C 
ATOM     34  C   UNL     1      -3.302   8.451 -11.301  0.00  0.00    +0.102 C 
ENDBRANCH  23  34
ENDBRANCH  22  25
ENDBRANCH  20  22
ENDBRANCH   1  20
TORSDOF 7
