REMARK  Name = ZINC16569301
REMARK  10 active torsions:
REMARK  status: ('A' for Active; 'I' for Inactive)
REMARK    1  A    between atoms: C_1  and  C_2
REMARK    2  A    between atoms: C_2  and  C_3
REMARK    3  A    between atoms: C_3  and  C_5
REMARK    4  A    between atoms: C_3  and  C_11
REMARK    5  A    between atoms: N_13  and  C_14
REMARK    6  A    between atoms: N_13  and  C_39
REMARK    7  A    between atoms: C_14  and  C_15
REMARK    8  A    between atoms: C_29  and  C_31
REMARK    9  A    between atoms: C_34  and  O_37
REMARK   10  A    between atoms: O_37  and  C_38
REMARK                            x       y       z     vdW  Elec       q    Type
REMARK                         _______ _______ _______ _____ _____    ______ ____
ROOT
ATOM      1  C   UNL     1       1.545   5.913  -3.493  0.00  0.00    +0.238 C 
ATOM      2  O   UNL     1       2.352   5.894  -2.588  0.00  0.00    -0.273 OA
ATOM      3  N   UNL     1       1.937   6.245  -4.739  0.00  0.00    -0.255 N 
ATOM      4  C   UNL     1       3.295   6.458  -5.012  0.00  0.00    +0.061 A 
ATOM      5  C   UNL     1       4.272   5.796  -4.285  0.00  0.00    +0.025 A 
ATOM      6  C   UNL     1       5.607   6.023  -4.558  0.00  0.00    +0.002 A 
ATOM      7  C   UNL     1       5.979   6.908  -5.553  0.00  0.00    +0.002 A 
ATOM      8  C   UNL     1       5.012   7.572  -6.288  0.00  0.00    +0.028 A 
ATOM      9  C   UNL     1       3.675   7.347  -6.024  0.00  0.00    +0.068 A 
ATOM     10  N   UNL     1       2.659   7.977  -6.757  0.00  0.00    -0.316 N 
ATOM     11  C   UNL     1       2.720   9.027  -7.610  0.00  0.00    +0.092 A 
ATOM     12  C   UNL     1       1.471   9.273  -8.065  0.00  0.00    +0.020 A 
ATOM     13  C   UNL     1       0.606   8.331  -7.467  0.00  0.00    +0.025 A 
ATOM     14  C   UNL     1       1.351   7.551  -6.676  0.00  0.00    +0.049 A 
ATOM     15  C   UNL     1       0.938   6.378  -5.813  0.00  0.00    +0.159 C 
ENDROOT
BRANCH  15  16
ATOM     16  C   UNL     1       0.904   5.118  -6.638  0.00  0.00    -0.021 A 
ATOM     17  C   UNL     1       2.083   4.469  -6.956  0.00  0.00    +0.009 A 
ATOM     18  C   UNL     1       2.055   3.311  -7.708  0.00  0.00    +0.046 A 
ATOM     19  C   UNL     1       0.842   2.804  -8.153  0.00  0.00    +0.120 A 
ATOM     20  C   UNL     1      -0.339   3.459  -7.837  0.00  0.00    +0.046 A 
ATOM     21  C   UNL     1      -0.305   4.615  -7.080  0.00  0.00    +0.009 A 
BRANCH  19  22
ATOM     22  O   UNL     1       0.812   1.667  -8.896  0.00  0.00    -0.495 OA
ATOM     23  C   UNL     1       2.066   1.045  -9.183  0.00  0.00    +0.277 C 
ENDBRANCH  19  22
ENDBRANCH  15  16
BRANCH   1  24
ATOM     24  C   UNL     1       0.103   5.565  -3.224  0.00  0.00    +0.204 C 
BRANCH  24  27
ATOM     25  C   UNL     1      -0.424   6.386  -0.992  0.00  0.00    +0.224 C 
ATOM     26  O   UNL     1      -0.647   6.199   0.185  0.00  0.00    -0.275 OA
ATOM     27  N   UNL     1      -0.088   5.352  -1.788  0.00  0.00    -0.289 N 
BRANCH  27  28
ATOM     28  C   UNL     1       0.087   4.014  -1.216  0.00  0.00    +0.077 C 
ATOM     29  C   UNL     1      -0.496   3.760   0.176  0.00  0.00    +0.024 C 
ATOM     30  C   UNL     1       1.018   3.878  -0.010  0.00  0.00    +0.024 C 
ENDBRANCH  27  28
BRANCH  25  31
ATOM     31  C   UNL     1      -0.524   7.777  -1.565  0.00  0.00    +0.105 C 
BRANCH  31  32
ATOM     32  C   UNL     1      -1.955   8.065  -1.939  0.00  0.00    -0.036 A 
ATOM     33  C   UNL     1      -2.281   8.363  -3.249  0.00  0.00    +0.004 A 
ATOM     34  C   UNL     1      -3.594   8.626  -3.592  0.00  0.00    +0.000 A 
ATOM     35  C   UNL     1      -4.581   8.591  -2.625  0.00  0.00    +0.000 A 
ATOM     36  C   UNL     1      -4.255   8.293  -1.315  0.00  0.00    +0.000 A 
ATOM     37  C   UNL     1      -2.942   8.030  -0.972  0.00  0.00    +0.004 A 
ENDBRANCH  31  32
BRANCH  31  39
ATOM     38  C   UNL     1       1.437   8.589  -0.246  0.00  0.00    +0.005 C 
ATOM     39  C   UNL     1      -0.055   8.793  -0.522  0.00  0.00    +0.014 C 
ENDBRANCH  31  39
ENDBRANCH  25  31
ENDBRANCH  24  27
ENDBRANCH   1  24
TORSDOF 8
