REMARK  Name = ZINC39856125
REMARK  8 active torsions:
REMARK  status: ('A' for Active; 'I' for Inactive)
REMARK    1  A    between atoms: C_1  and  C_2
REMARK    2  A    between atoms: C_6  and  C_7
REMARK    3  A    between atoms: C_17  and  C_19
REMARK    4  A    between atoms: C_21  and  C_29
REMARK    5  A    between atoms: C_21  and  C_30
REMARK    6  A    between atoms: N_24  and  N_25
REMARK    7  A    between atoms: N_25  and  C_26
REMARK    8  A    between atoms: C_26  and  N_28
REMARK                            x       y       z     vdW  Elec       q    Type
REMARK                         _______ _______ _______ _____ _____    ______ ____
ROOT
ATOM      1  C   UNL     1       0.966   0.360  -0.966  0.00  0.00    +0.048 C 
ATOM      2  C   UNL     1       0.823  -1.084  -0.560  0.00  0.00    +0.009 A 
ATOM      3  C   UNL     1       0.852  -2.201  -1.404  0.00  0.00    +0.042 A 
ATOM      4  C   UNL     1       0.684  -3.317  -0.618  0.00  0.00    +0.116 A 
ATOM      5  O   UNL     1       0.562  -2.915   0.645  0.00  0.00    -0.454 OA
ATOM      6  C   UNL     1       0.647  -1.567   0.707  0.00  0.00    +0.193 A 
ATOM      7  C   UNL     1       0.654  -4.716  -1.177  0.00  0.00    +0.081 C 
ATOM      8  C   UNL     1       0.318  -4.661  -2.670  0.00  0.00    -0.023 C 
ATOM      9  C   UNL     1       1.264  -3.704  -3.401  0.00  0.00    +0.064 C 
ATOM     10  C   UNL     1       1.023  -2.298  -2.871  0.00  0.00    +0.070 C 
ATOM     11  N   UNL     1       0.972  -1.260  -3.648  0.00  0.00    -0.185 NA
ATOM     12  C   UNL     1       0.456  -6.062  -3.269  0.00  0.00    +0.011 C 
ATOM     13  C   UNL     1      -1.123  -4.178  -2.845  0.00  0.00    +0.011 C 
ENDROOT
BRANCH   6  14
ATOM     14  C   UNL     1       0.561  -0.758   1.928  0.00  0.00    +0.287 C 
ATOM     15  O   UNL     1       0.788   0.437   1.883  0.00  0.00    -0.266 OA
ATOM     16  N   UNL     1       0.232  -1.338   3.099  0.00  0.00    -0.262 N 
ATOM     17  C   UNL     1       0.094  -0.665   4.316  0.00  0.00    +0.040 A 
ATOM     18  C   UNL     1       0.255   0.693   4.599  0.00  0.00    +0.024 A 
ATOM     19  C   UNL     1       0.072   1.162   5.882  0.00  0.00    +0.002 A 
ATOM     20  C   UNL     1      -0.273   0.290   6.899  0.00  0.00    +0.000 A 
ATOM     21  C   UNL     1      -0.434  -1.055   6.626  0.00  0.00    +0.005 A 
ATOM     22  C   UNL     1      -0.252  -1.530   5.342  0.00  0.00    -0.024 A 
ATOM     23  C   UNL     1      -0.362  -2.928   4.776  0.00  0.00    +0.059 C 
ATOM     24  C   UNL     1      -0.041  -2.767   3.281  0.00  0.00    +0.083 C 
ATOM     25  C   UNL     1      -1.238  -3.192   2.429  0.00  0.00    +0.029 C 
ENDBRANCH   6  14
BRANCH  11  26
ATOM     26  N   UNL     1       1.141  -1.411  -5.030  0.00  0.00    -0.218 N 
ATOM     27  H   UNL     1       1.297  -2.291  -5.407  0.00  0.00    +0.176 HD
BRANCH  26  28
ATOM     28  C   UNL     1       1.088  -0.333  -5.837  0.00  0.00    +0.147 C 
ATOM     29  S   UNL     1       1.295  -0.517  -7.527  0.00  0.00    -0.017 S 
BRANCH  28  30
ATOM     30  N   UNL     1       0.872   0.890  -5.314  0.00  0.00    -0.339 N 
ATOM     31  H   UNL     1       0.754   0.995  -4.357  0.00  0.00    +0.144 HD
ATOM     32  H   UNL     1       0.833   1.666  -5.895  0.00  0.00    +0.144 HD
ENDBRANCH  28  30
ENDBRANCH  26  28
ENDBRANCH  11  26
TORSDOF 4
