REMARK  Name = ZINC03254810
REMARK  4 active torsions:
REMARK  status: ('A' for Active; 'I' for Inactive)
REMARK    1  A    between atoms: C_3  and  C_18
REMARK    2  A    between atoms: C_5  and  C_11
REMARK    3  A    between atoms: N_20  and  C_21
REMARK    4  A    between atoms: C_26  and  C_27
REMARK                            x       y       z     vdW  Elec       q    Type
REMARK                         _______ _______ _______ _____ _____    ______ ____
ROOT
ATOM      1  C   UNL     1       6.110   4.420  -0.998  0.00  0.00    +0.029 C 
ATOM      2  C   UNL     1       6.229   3.108  -1.058  0.00  0.00    +0.019 C 
ATOM      3  C   UNL     1       6.047   2.240   0.172  0.00  0.00    +0.143 C 
ATOM      4  C   UNL     1       7.233   1.269   0.234  0.00  0.00    +0.122 C 
ATOM      5  N   UNL     1       7.402   0.622  -1.066  0.00  0.00    -0.291 N 
ATOM      6  C   UNL     1       7.091   1.231  -2.218  0.00  0.00    +0.304 C 
ATOM      7  O   UNL     1       7.323   0.658  -3.265  0.00  0.00    -0.253 OA
ATOM      8  N   UNL     1       6.530   2.454  -2.260  0.00  0.00    -0.273 N 
ATOM      9  H   UNL     1       7.752  -0.282  -1.096  0.00  0.00    +0.151 HD
ATOM     10  H   UNL     1       6.336   2.877  -3.111  0.00  0.00    +0.156 HD
ENDROOT
BRANCH   4  11
ATOM     11  C   UNL     1       8.487   2.029   0.584  0.00  0.00    -0.026 A 
ATOM     12  C   UNL     1       9.165   2.731  -0.395  0.00  0.00    +0.006 A 
ATOM     13  C   UNL     1      10.312   3.432  -0.074  0.00  0.00    +0.015 A 
ATOM     14  C   UNL     1      10.787   3.422   1.225  0.00  0.00    +0.018 A 
ATOM     15  C   UNL     1      10.112   2.715   2.203  0.00  0.00    +0.015 A 
ATOM     16  C   UNL     1       8.962   2.019   1.882  0.00  0.00    +0.006 A 
ATOM     17 BR   UNL     1      12.361   4.374   1.664  0.00  0.00    -0.050 Br
ENDBRANCH   4  11
BRANCH   3  18
ATOM     18  C   UNL     1       4.758   1.467   0.066  0.00  0.00    +0.228 C 
ATOM     19  O   UNL     1       4.777   0.255   0.059  0.00  0.00    -0.275 OA
ATOM     20  N   UNL     1       3.584   2.123  -0.020  0.00  0.00    -0.284 N 
ATOM     21  H   UNL     1       3.573   3.091  -0.081  0.00  0.00    +0.155 HD
BRANCH  20  22
ATOM     22  C   UNL     1       2.381   1.408  -0.023  0.00  0.00    +0.045 A 
ATOM     23  C   UNL     1       2.313   0.163  -0.635  0.00  0.00    +0.024 A 
ATOM     24  C   UNL     1       1.125  -0.540  -0.637  0.00  0.00    +0.002 A 
ATOM     25  C   UNL     1       0.003  -0.006  -0.029  0.00  0.00    +0.001 A 
ATOM     26  C   UNL     1       0.067   1.233   0.581  0.00  0.00    +0.014 A 
ATOM     27  C   UNL     1       1.253   1.942   0.585  0.00  0.00    +0.076 A 
BRANCH  27  28
ATOM     28  C   UNL     1       1.322   3.293   1.250  0.00  0.00    +0.419 C 
ATOM     29  F   UNL     1       0.070   3.612   1.787  0.00  0.00    -0.166 F 
ATOM     30  F   UNL     1       2.274   3.260   2.274  0.00  0.00    -0.166 F 
ATOM     31  F   UNL     1       1.685   4.259   0.306  0.00  0.00    -0.166 F 
ENDBRANCH  27  28
ENDBRANCH  20  22
ENDBRANCH   3  18
TORSDOF 4
