REMARK  Name = ZINC12371481
REMARK  9 active torsions:
REMARK  status: ('A' for Active; 'I' for Inactive)
REMARK    1  A    between atoms: C_1  and  O_2
REMARK    2  A    between atoms: O_2  and  C_3
REMARK    3  A    between atoms: C_13  and  C_18
REMARK    4  A    between atoms: C_21  and  O_26
REMARK    5  A    between atoms: C_22  and  O_24
REMARK    6  A    between atoms: O_24  and  C_25
REMARK    7  A    between atoms: O_26  and  C_27
REMARK    8  A    between atoms: C_27  and  C_28
REMARK    9  A    between atoms: C_31  and  N_34
REMARK                            x       y       z     vdW  Elec       q    Type
REMARK                         _______ _______ _______ _____ _____    ______ ____
ROOT
ATOM      1  C   UNL     1      -2.797   1.549  -2.459  0.00  0.00    -0.021 A 
ATOM      2  C   UNL     1      -2.799   2.927  -2.567  0.00  0.00    +0.009 A 
ATOM      3  C   UNL     1      -3.517   3.544  -3.574  0.00  0.00    +0.050 A 
ATOM      4  C   UNL     1      -4.238   2.781  -4.478  0.00  0.00    +0.162 A 
ATOM      5  C   UNL     1      -4.237   1.393  -4.369  0.00  0.00    +0.162 A 
ATOM      6  C   UNL     1      -3.510   0.781  -3.361  0.00  0.00    +0.055 A 
ENDROOT
BRANCH   1  17
ATOM      7  C   UNL     1      -4.448   1.380   4.162  0.00  0.00    +0.121 A 
ATOM      8  C   UNL     1      -5.616   1.037   3.493  0.00  0.00    +0.047 A 
ATOM      9  C   UNL     1      -5.641   0.793   2.131  0.00  0.00    +0.030 A 
ATOM     10  C   UNL     1      -4.434   0.904   1.444  0.00  0.00    +0.047 A 
ATOM     11  C   UNL     1      -3.240   1.254   2.125  0.00  0.00    +0.007 A 
ATOM     12  C   UNL     1      -3.234   1.497   3.502  0.00  0.00    +0.056 A 
ATOM     13  C   UNL     1      -2.201   1.277   1.119  0.00  0.00    -0.016 A 
ATOM     14  C   UNL     1      -2.779   0.960  -0.062  0.00  0.00    +0.042 A 
ATOM     15  N   UNL     1      -4.116   0.735   0.124  0.00  0.00    -0.356 N 
ATOM     16  H   UNL     1      -4.897   0.457  -0.599  0.00  0.00    +0.166 HD
ATOM     17  C   UNL     1      -2.011   0.882  -1.360  0.00  0.00    +0.132 C 
ATOM     18  N   UNL     1      -0.724   1.573  -1.182  0.00  0.00    -0.304 NA
ATOM     19  C   UNL     1      -0.013   1.086   0.008  0.00  0.00    +0.086 C 
ATOM     20  C   UNL     1      -0.732   1.581   1.271  0.00  0.00    +0.052 C 
ATOM     21  H   UNL     1      -0.089   1.398  -2.064  0.00  0.00    +0.123 HD
BRANCH   7  23
ATOM     22  C   UNL     1      -5.770   1.474   6.137  0.00  0.00    +0.277 C 
ATOM     23  O   UNL     1      -4.497   1.607   5.502  0.00  0.00    -0.495 OA
ENDBRANCH   7  23
ENDBRANCH   1  17
BRANCH   5  24
ATOM     24  O   UNL     1      -4.943   0.640  -5.254  0.00  0.00    -0.491 OA
ATOM     25  C   UNL     1      -4.896  -0.778  -5.082  0.00  0.00    +0.277 C 
ENDBRANCH   5  24
BRANCH   4  26
ATOM     26  O   UNL     1      -4.946   3.386  -5.469  0.00  0.00    -0.484 OA
BRANCH  26  27
ATOM     27  C   UNL     1      -4.902   4.813  -5.519  0.00  0.00    +0.264 C 
BRANCH  27  28
ATOM     28  C   UNL     1      -5.739   5.302  -6.673  0.00  0.00    -0.010 A 
ATOM     29  C   UNL     1      -5.164   5.476  -7.918  0.00  0.00    +0.009 A 
ATOM     30  C   UNL     1      -5.933   5.920  -8.978  0.00  0.00    +0.033 A 
ATOM     31  C   UNL     1      -7.274   6.198  -8.791  0.00  0.00    +0.126 A 
ATOM     32  C   UNL     1      -7.847   6.028  -7.544  0.00  0.00    +0.033 A 
ATOM     33  C   UNL     1      -7.080   5.580  -6.486  0.00  0.00    +0.009 A 
BRANCH  31  34
ATOM     34  N   UNL     1      -8.095   6.678  -9.924  0.00  0.00    +0.056 N 
ATOM     35  O   UNL     1      -9.277   6.923  -9.759  0.00  0.00    -0.126 OA
ATOM     36  O   UNL     1      -7.590   6.827 -11.023  0.00  0.00    -0.126 OA
ENDBRANCH  31  34
ENDBRANCH  27  28
ENDBRANCH  26  27
ENDBRANCH   4  26
TORSDOF 7
