REMARK  Name = ZINC39867170
REMARK  7 active torsions:
REMARK  status: ('A' for Active; 'I' for Inactive)
REMARK    1  A    between atoms: C_9  and  C_11
REMARK    2  A    between atoms: C_13  and  C_21
REMARK    3  A    between atoms: C_21  and  C_22
REMARK    4  A    between atoms: C_22  and  C_23
REMARK    5  A    between atoms: C_23  and  C_24
REMARK    6  A    between atoms: N_26  and  C_27
REMARK    7  A    between atoms: C_32  and  N_33
REMARK                            x       y       z     vdW  Elec       q    Type
REMARK                         _______ _______ _______ _____ _____    ______ ____
ROOT
ATOM      1  C   UNL     1       4.994  -2.555  -0.048  0.00  0.00    +0.069 A 
ATOM      2  H   UNL     1       4.610  -4.420   0.818  0.00  0.00    +0.166 HD
ATOM      3  C   UNL     1       6.133  -2.002  -0.538  0.00  0.00    -0.013 A 
ATOM      4  C   UNL     1       7.192  -2.995  -0.375  0.00  0.00    +0.003 A 
ATOM      5  C   UNL     1       8.556  -3.014  -0.682  0.00  0.00    +0.010 A 
ATOM      6  C   UNL     1       9.300  -4.124  -0.398  0.00  0.00    +0.001 A 
ATOM      7  C   UNL     1       8.713  -5.234   0.193  0.00  0.00    +0.002 A 
ATOM      8  C   UNL     1       7.370  -5.238   0.504  0.00  0.00    +0.026 A 
ATOM      9  C   UNL     1       6.592  -4.119   0.225  0.00  0.00    +0.047 A 
ATOM     10  N   UNL     1       5.262  -3.824   0.417  0.00  0.00    -0.353 N 
ENDROOT
BRANCH   1  19
ATOM     11  C   UNL     1      -0.019   1.357   0.095  0.00  0.00    +0.001 A 
ATOM     12  C   UNL     1       1.166   2.089   0.074  0.00  0.00    +0.002 A 
ATOM     13  C   UNL     1       2.376   1.466   0.042  0.00  0.00    +0.028 A 
ATOM     14  C   UNL     1       2.436   0.060   0.030  0.00  0.00    +0.072 A 
ATOM     15  C   UNL     1       1.228  -0.682   0.052  0.00  0.00    +0.000 A 
ATOM     16  C   UNL     1      -0.001  -0.004   0.084  0.00  0.00    +0.010 A 
ATOM     17  C   UNL     1       1.286  -2.090   0.040  0.00  0.00    +0.012 A 
ATOM     18  C   UNL     1       2.511  -2.686   0.007  0.00  0.00    +0.030 A 
ATOM     19  C   UNL     1       3.673  -1.896  -0.013  0.00  0.00    +0.088 A 
ATOM     20  N   UNL     1       3.609  -0.576  -0.001  0.00  0.00    -0.245 NA
ENDBRANCH   1  19
BRANCH   3  21
ATOM     21  C   UNL     1       6.276  -0.627  -1.136  0.00  0.00    +0.038 C 
BRANCH  21  22
ATOM     22  C   UNL     1       6.626   0.375  -0.034  0.00  0.00    +0.014 C 
BRANCH  22  23
ATOM     23  C   UNL     1       6.772   1.772  -0.641  0.00  0.00    +0.096 C 
BRANCH  23  24
ATOM     24  C   UNL     1       7.116   2.758   0.445  0.00  0.00    +0.217 C 
ATOM     25  O   UNL     1       7.234   2.381   1.592  0.00  0.00    -0.275 OA
ATOM     26  N   UNL     1       7.294   4.059   0.142  0.00  0.00    -0.284 N 
ATOM     27  H   UNL     1       7.280   4.348  -0.784  0.00  0.00    +0.155 HD
BRANCH  26  28
ATOM     28  C   UNL     1       7.499   4.995   1.164  0.00  0.00    +0.068 A 
ATOM     29  C   UNL     1       7.021   4.742   2.443  0.00  0.00    +0.075 A 
ATOM     30  C   UNL     1       7.224   5.668   3.453  0.00  0.00    +0.168 A 
ATOM     31  C   UNL     1       7.908   6.851   3.183  0.00  0.00    +0.169 A 
ATOM     32  C   UNL     1       8.384   7.099   1.906  0.00  0.00    +0.084 A 
ATOM     33  C   UNL     1       8.186   6.172   0.900  0.00  0.00    +0.151 A 
ATOM     34  O   UNL     1       7.976   7.587   4.332  0.00  0.00    -0.453 OA
ATOM     35  C   UNL     1       6.973   7.031   5.204  0.00  0.00    +0.466 C 
ATOM     36  O   UNL     1       6.863   5.663   4.769  0.00  0.00    -0.453 OA
BRANCH  33  37
ATOM     37  N   UNL     1       8.701   6.438  -0.462  0.00  0.00    +0.058 N 
ATOM     38  O   UNL     1       9.375   7.419  -0.672  0.00  0.00    -0.126 OA
ATOM     39  O   UNL     1       8.448   5.674  -1.364  0.00  0.00    -0.126 OA
ENDBRANCH  33  37
ENDBRANCH  26  28
ENDBRANCH  23  24
ENDBRANCH  22  23
ENDBRANCH  21  22
ENDBRANCH   3  21
TORSDOF 7
