REMARK  Name = ZINC20899180
REMARK  6 active torsions:
REMARK  status: ('A' for Active; 'I' for Inactive)
REMARK    1  A    between atoms: C_1  and  C_2
REMARK    2  A    between atoms: C_4  and  C_37
REMARK    3  A    between atoms: C_6  and  N_8
REMARK    4  A    between atoms: C_26  and  C_29
REMARK    5  A    between atoms: C_34  and  O_35
REMARK    6  A    between atoms: O_35  and  C_36
REMARK                            x       y       z     vdW  Elec       q    Type
REMARK                         _______ _______ _______ _____ _____    ______ ____
ROOT
ATOM      1  N   UNL     1       0.341  -2.801   2.425  0.00  0.00    -0.190 N 
ATOM      2  C   UNL     1       0.439  -2.167   3.612  0.00  0.00    +0.265 C 
ATOM      3  O   UNL     1       0.763  -0.996   3.670  0.00  0.00    -0.269 OA
ATOM      4  C   UNL     1       0.142  -2.932   4.836  0.00  0.00    +0.117 C 
ATOM      5  C   UNL     1      -0.243  -4.344   4.669  0.00  0.00    +0.258 C 
ATOM      6  N   UNL     1      -0.299  -4.846   3.418  0.00  0.00    -0.235 N 
ATOM      7  C   UNL     1      -0.021  -4.089   2.347  0.00  0.00    +0.320 C 
ATOM      8  O   UNL     1      -0.095  -4.600   1.246  0.00  0.00    -0.251 OA
ATOM      9  O   UNL     1      -0.502  -5.040   5.633  0.00  0.00    -0.270 OA
ATOM     10  C   UNL     1       0.222  -2.349   6.088  0.00  0.00    +0.027 C 
ATOM     11  N   UNL     1       0.185  -1.063   6.098  0.00  0.00    -0.316 N 
ATOM     12  C   UNL     1       0.421   0.008   6.916  0.00  0.00    +0.045 A 
ATOM     13  C   UNL     1       0.459   1.249   6.256  0.00  0.00    +0.024 A 
ATOM     14  C   UNL     1       0.684   2.422   6.934  0.00  0.00    +0.002 A 
ATOM     15  C   UNL     1       0.881   2.395   8.303  0.00  0.00    +0.001 A 
ATOM     16  C   UNL     1       0.847   1.191   8.965  0.00  0.00    +0.016 A 
ATOM     17  C   UNL     1       0.617  -0.016   8.288  0.00  0.00    +0.030 A 
ATOM     18  S   UNL     1       0.599  -1.464   9.266  0.00  0.00    -0.115 S 
ATOM     19  C   UNL     1       1.267  -2.806   8.295  0.00  0.00    +0.090 C 
ATOM     20  C   UNL     1       0.332  -3.302   7.225  0.00  0.00    +0.071 C 
ATOM     21  H   UNL     1      -0.551  -5.774   3.290  0.00  0.00    +0.159 HD
ATOM     22  H   UNL     1      -0.111  -0.744   5.231  0.00  0.00    +0.152 HD
ENDROOT
BRANCH   1  28
ATOM     23  C   UNL     1       3.582  -1.334  -0.970  0.00  0.00    +0.044 C 
ATOM     24  C   UNL     1       2.179  -1.367  -0.420  0.00  0.00    -0.048 A 
ATOM     25  C   UNL     1       1.164  -0.698  -1.078  0.00  0.00    +0.006 A 
ATOM     26  C   UNL     1      -0.125  -0.726  -0.577  0.00  0.00    -0.048 A 
ATOM     27  C   UNL     1      -0.401  -1.422   0.584  0.00  0.00    +0.027 A 
ATOM     28  C   UNL     1       0.617  -2.094   1.247  0.00  0.00    +0.046 A 
ATOM     29  C   UNL     1       1.909  -2.069   0.738  0.00  0.00    +0.027 A 
ATOM     30  C   UNL     1      -1.229   0.004  -1.297  0.00  0.00    +0.044 C 
ENDBRANCH   1  28
BRANCH  19  31
ATOM     31  C   UNL     1       1.589  -3.953   9.218  0.00  0.00    +0.008 A 
ATOM     32  C   UNL     1       2.689  -4.752   8.970  0.00  0.00    +0.008 A 
ATOM     33  C   UNL     1       2.984  -5.805   9.816  0.00  0.00    +0.001 A 
ATOM     34  C   UNL     1       2.181  -6.061  10.912  0.00  0.00    +0.004 A 
ATOM     35  C   UNL     1       1.080  -5.265  11.165  0.00  0.00    +0.046 A 
ATOM     36  C   UNL     1       0.784  -4.205  10.320  0.00  0.00    +0.124 A 
BRANCH  36  37
ATOM     37  O   UNL     1      -0.294  -3.417  10.569  0.00  0.00    -0.495 OA
ATOM     38  C   UNL     1      -1.077  -3.734  11.722  0.00  0.00    +0.277 C 
ENDBRANCH  36  37
ENDBRANCH  19  31
TORSDOF 3
