REMARK  Name = ZINC09678760
REMARK  7 active torsions:
REMARK  status: ('A' for Active; 'I' for Inactive)
REMARK    1  A    between atoms: C_1  and  C_2
REMARK    2  A    between atoms: C_2  and  C_3
REMARK    3  A    between atoms: C_3  and  O_4
REMARK    4  A    between atoms: O_4  and  C_5
REMARK    5  A    between atoms: C_8  and  C_11
REMARK    6  A    between atoms: C_16  and  C_21
REMARK    7  A    between atoms: C_24  and  C_27
REMARK                            x       y       z     vdW  Elec       q    Type
REMARK                         _______ _______ _______ _____ _____    ______ ____
ROOT
ATOM      1  C   UNL     1      -1.126   7.561   1.859  0.00  0.00    +0.136 C 
ATOM      2  C   UNL     1      -2.269   8.059   1.006  0.00  0.00    +0.036 C 
ATOM      3  C   UNL     1      -2.157   8.803  -0.105  0.00  0.00    +0.017 C 
ATOM      4  C   UNL     1      -3.395   9.202  -0.892  0.00  0.00    +0.059 C 
ATOM      5  C   UNL     1      -4.573   9.402   0.060  0.00  0.00    +0.032 C 
ATOM      6  C   UNL     1      -4.814   8.075   0.790  0.00  0.00    +0.088 C 
ATOM      7  C   UNL     1      -3.545   7.671   1.479  0.00  0.00    +0.163 C 
ATOM      8  O   UNL     1      -3.615   6.986   2.481  0.00  0.00    -0.292 OA
ATOM      9  N   UNL     1      -0.986   9.246  -0.630  0.00  0.00    -0.316 N 
ATOM     10  C   UNL     1       0.146   8.460  -0.816  0.00  0.00    +0.052 A 
ATOM     11  C   UNL     1       0.685   8.228  -2.070  0.00  0.00    +0.025 A 
ATOM     12  C   UNL     1       1.875   7.527  -2.177  0.00  0.00    +0.002 A 
ATOM     13  C   UNL     1       2.517   7.064  -1.044  0.00  0.00    +0.002 A 
ATOM     14  C   UNL     1       1.968   7.277   0.209  0.00  0.00    +0.025 A 
ATOM     15  C   UNL     1       0.769   7.963   0.319  0.00  0.00    +0.049 A 
ATOM     16  N   UNL     1       0.155   8.163   1.554  0.00  0.00    -0.331 N 
ATOM     17  H   UNL     1      -0.935  10.178  -0.894  0.00  0.00    +0.152 HD
ATOM     18  H   UNL     1       0.593   8.715   2.221  0.00  0.00    +0.147 HD
ENDROOT
BRANCH   5  19
ATOM     19  C   UNL     1      -5.803   9.786  -0.722  0.00  0.00    -0.043 A 
ATOM     20  C   UNL     1      -6.298   8.935  -1.692  0.00  0.00    +0.004 A 
ATOM     21  C   UNL     1      -7.428   9.286  -2.407  0.00  0.00    +0.003 A 
ATOM     22  C   UNL     1      -8.058  10.491  -2.157  0.00  0.00    -0.050 A 
ATOM     23  C   UNL     1      -7.559  11.344  -1.190  0.00  0.00    +0.003 A 
ATOM     24  C   UNL     1      -6.431  10.992  -0.473  0.00  0.00    +0.004 A 
ATOM     25  C   UNL     1      -9.287  10.875  -2.939  0.00  0.00    +0.044 C 
ENDBRANCH   5  19
BRANCH   1  29
ATOM     26  C   UNL     1      -0.793   3.332   1.349  0.00  0.00    +0.121 A 
ATOM     27  C   UNL     1      -0.533   4.183   0.284  0.00  0.00    +0.046 A 
ATOM     28  C   UNL     1      -0.647   5.549   0.450  0.00  0.00    +0.009 A 
ATOM     29  C   UNL     1      -1.009   6.070   1.679  0.00  0.00    -0.023 A 
ATOM     30  C   UNL     1      -1.263   5.224   2.743  0.00  0.00    +0.009 A 
ATOM     31  C   UNL     1      -1.156   3.856   2.580  0.00  0.00    +0.046 A 
BRANCH  26  32
ATOM     32  O   UNL     1      -0.688   1.987   1.186  0.00  0.00    -0.492 OA
BRANCH  32  33
ATOM     33  C   UNL     1      -0.310   1.517  -0.110  0.00  0.00    +0.229 C 
BRANCH  33  35
ATOM     34  C   UNL     1       0.162  -0.514  -1.486  0.00  0.00    +0.007 C 
ATOM     35  C   UNL     1      -0.243  -0.011  -0.099  0.00  0.00    +0.038 C 
ENDBRANCH  33  35
ENDBRANCH  32  33
ENDBRANCH  26  32
ENDBRANCH   1  29
TORSDOF 5
