REMARK  Name = ZINC64773919
REMARK  5 active torsions:
REMARK  status: ('A' for Active; 'I' for Inactive)
REMARK    1  A    between atoms: C_1  and  C_2
REMARK    2  A    between atoms: C_5  and  C_8
REMARK    3  A    between atoms: C_8  and  S_9
REMARK    4  A    between atoms: S_9  and  C_10
REMARK    5  A    between atoms: C_16  and  C_24
REMARK                            x       y       z     vdW  Elec       q    Type
REMARK                         _______ _______ _______ _____ _____    ______ ____
ROOT
ATOM      1  C   UNL     1       1.632  -6.614  -0.043  0.00  0.00    +0.182 C 
ATOM      2  N   UNL     1       0.412  -7.124  -0.044  0.00  0.00    -0.154 NA
ATOM      3  C   UNL     1       0.193  -8.438  -0.117  0.00  0.00    +0.249 C 
ATOM      4  O   UNL     1      -0.932  -8.900  -0.091  0.00  0.00    -0.273 OA
ATOM      5  C   UNL     1       1.414  -9.327  -0.233  0.00  0.00    +0.148 C 
ATOM      6  C   UNL     1       1.368 -10.356   0.897  0.00  0.00    +0.047 C 
ATOM      7  C   UNL     1       2.501 -11.364   0.689  0.00  0.00    +0.105 C 
ATOM      8  C   UNL     1       3.804 -10.663   0.433  0.00  0.00    +0.219 C 
ATOM      9  O   UNL     1       4.835 -11.280   0.593  0.00  0.00    -0.275 OA
ATOM     10  N   UNL     1       3.878  -9.382   0.035  0.00  0.00    -0.273 N 
ATOM     11  C   UNL     1       2.755  -8.627  -0.114  0.00  0.00    +0.117 C 
ATOM     12  N   UNL     1       2.765  -7.326  -0.053  0.00  0.00    -0.212 NA
ATOM     13  H   UNL     1       4.744  -8.990  -0.161  0.00  0.00    +0.156 HD
ENDROOT
BRANCH   6  14
ATOM     14  C   UNL     1       0.041 -11.071   0.877  0.00  0.00    -0.041 A 
ATOM     15  C   UNL     1      -0.337 -11.793  -0.239  0.00  0.00    +0.007 A 
ATOM     16  C   UNL     1      -1.553 -12.449  -0.260  0.00  0.00    +0.040 A 
ATOM     17  C   UNL     1      -2.393 -12.383   0.839  0.00  0.00    +0.137 A 
ATOM     18  C   UNL     1      -2.014 -11.659   1.957  0.00  0.00    +0.053 A 
ATOM     19  C   UNL     1      -0.794 -11.008   1.976  0.00  0.00    +0.022 A 
ATOM     20 BR   UNL     1      -3.160 -11.567   3.458  0.00  0.00    -0.047 Br
ATOM     21  F   UNL     1      -3.583 -13.024   0.820  0.00  0.00    -0.204 F 
ENDBRANCH   6  14
BRANCH   1  22
ATOM     22  S   UNL     1       1.777  -4.858  -0.034  0.00  0.00    -0.084 S 
BRANCH  22  23
ATOM     23  C   UNL     1       0.059  -4.275  -0.021  0.00  0.00    +0.112 C 
BRANCH  23  28
ATOM     24  C   UNL     1      -0.018   1.503   0.010  0.00  0.00    +0.044 C 
ATOM     25  C   UNL     1       0.002  -0.004   0.002  0.00  0.00    -0.050 A 
ATOM     26  C   UNL     1       0.006  -0.689  -1.199  0.00  0.00    +0.003 A 
ATOM     27  C   UNL     1       0.025  -2.071  -1.206  0.00  0.00    +0.005 A 
ATOM     28  C   UNL     1       0.040  -2.768  -0.013  0.00  0.00    -0.037 A 
ATOM     29  C   UNL     1       0.037  -2.084   1.188  0.00  0.00    +0.005 A 
ATOM     30  C   UNL     1       0.023  -0.702   1.195  0.00  0.00    +0.003 A 
ENDBRANCH  23  28
ENDBRANCH  22  23
ENDBRANCH   1  22
TORSDOF 4
