REMARK  Name = ZINC12691590
REMARK  5 active torsions:
REMARK  status: ('A' for Active; 'I' for Inactive)
REMARK    1  A    between atoms: C_1  and  N_2
REMARK    2  A    between atoms: C_3  and  C_5
REMARK    3  A    between atoms: C_5  and  N_6
REMARK    4  A    between atoms: C_14  and  C_16
REMARK    5  A    between atoms: C_16  and  N_50
REMARK                            x       y       z     vdW  Elec       q    Type
REMARK                         _______ _______ _______ _____ _____    ______ ____
ROOT
ATOM      1  N   UNL     1       7.545  -0.124   0.811  0.00  0.00    -0.320 N 
ATOM      2  C   UNL     1       6.502   0.357   1.582  0.00  0.00    +0.131 A 
ATOM      3  C   UNL     1       6.679   1.505   2.402  0.00  0.00    +0.051 A 
ATOM      4  C   UNL     1       7.889   2.326   2.577  0.00  0.00    -0.025 A 
ATOM      5  C   UNL     1       7.797   3.370   3.416  0.00  0.00    -0.004 A 
ATOM      6  S   UNL     1       6.126   3.332   4.022  0.00  0.00    -0.073 S 
ATOM      7  C   UNL     1       5.552   1.905   3.141  0.00  0.00    +0.114 A 
ATOM      8  N   UNL     1       4.411   1.246   3.069  0.00  0.00    -0.227 NA
ATOM      9  C   UNL     1       4.305   0.186   2.291  0.00  0.00    +0.116 A 
ATOM     10  N   UNL     1       5.325  -0.248   1.573  0.00  0.00    -0.219 NA
ATOM     11  C   UNL     1       9.088   4.138   3.511  0.00  0.00    +0.043 C 
ATOM     12  C   UNL     1       9.899   3.687   2.276  0.00  0.00    +0.010 C 
ATOM     13  C   UNL     1       9.311   2.288   2.009  0.00  0.00    +0.037 C 
ATOM     14  H   UNL     1       8.406   0.323   0.827  0.00  0.00    +0.148 HD
ENDROOT
BRANCH   1  15
ATOM     15  C   UNL     1       7.349  -1.308  -0.029  0.00  0.00    +0.198 C 
BRANCH  15  18
ATOM     16  C   UNL     1       9.930  -2.980  -2.310  0.00  0.00    +0.128 C 
ATOM     17  N   UNL     1       8.686  -2.675  -1.599  0.00  0.00    -0.317 N 
ATOM     18  C   UNL     1       8.629  -1.621  -0.761  0.00  0.00    +0.230 C 
ATOM     19  O   UNL     1       9.608  -0.924  -0.597  0.00  0.00    -0.274 OA
ATOM     20  H   UNL     1       7.903  -3.233  -1.730  0.00  0.00    +0.148 HD
ENDBRANCH  15  18
ENDBRANCH   1  15
BRANCH   9  21
ATOM     21  C   UNL     1       2.991  -0.550   2.226  0.00  0.00    -0.001 C 
BRANCH  21  27
ATOM     22  C   UNL     1       0.793  -0.505   1.212  0.00  0.00    -0.078 C 
ATOM     23  C   UNL     1       0.002  -0.004   0.002  0.00  0.00    -0.019 C 
ATOM     24  C   UNL     1      -0.019   1.527   0.010  0.00  0.00    -0.004 C 
ATOM     25  C   UNL     1       1.421   2.049  -0.001  0.00  0.00    -0.019 C 
ATOM     26  C   UNL     1       2.171   1.488   1.210  0.00  0.00    -0.078 C 
ATOM     27  N   UNL     1       2.176   0.012   1.129  0.00  0.00    +0.384 N 
ATOM     28  H   UNL     1       2.584  -0.271   0.231  0.00  0.00    -0.081 HD
ENDBRANCH  21  27
ENDBRANCH   9  21
TORSDOF 4
