REMARK  Name = ZINC20637689
REMARK  6 active torsions:
REMARK  status: ('A' for Active; 'I' for Inactive)
REMARK    1  A    between atoms: C_1  and  C_2
REMARK    2  A    between atoms: C_2  and  O_3
REMARK    3  A    between atoms: O_3  and  C_4
REMARK    4  A    between atoms: C_4  and  C_6
REMARK    5  A    between atoms: C_8  and  C_22
REMARK    6  A    between atoms: C_23  and  C_27
REMARK                            x       y       z     vdW  Elec       q    Type
REMARK                         _______ _______ _______ _____ _____    ______ ____
ROOT
ATOM      1  C   UNL     1       4.518   0.129   1.205  0.00  0.00    +0.211 C 
ATOM      2  C   UNL     1       3.791  -0.395  -0.036  0.00  0.00    +0.150 C 
ATOM      3  N   UNL     1       4.465   0.119  -1.232  0.00  0.00    -0.302 N 
ATOM      4  C   UNL     1       4.576  -0.426  -2.477  0.00  0.00    +0.071 A 
ATOM      5  C   UNL     1       4.129  -1.619  -3.032  0.00  0.00    +0.028 A 
ATOM      6  C   UNL     1       4.430  -1.847  -4.365  0.00  0.00    +0.002 A 
ATOM      7  C   UNL     1       5.144  -0.934  -5.123  0.00  0.00    +0.002 A 
ATOM      8  C   UNL     1       5.600   0.259  -4.595  0.00  0.00    +0.030 A 
ATOM      9  C   UNL     1       5.310   0.511  -3.249  0.00  0.00    +0.091 A 
ATOM     10  N   UNL     1       5.606   1.551  -2.444  0.00  0.00    -0.214 NA
ATOM     11  C   UNL     1       5.122   1.329  -1.252  0.00  0.00    +0.204 A 
ATOM     12  N   UNL     1       5.217   2.125  -0.119  0.00  0.00    -0.255 N 
ATOM     13  C   UNL     1       4.835   1.595   1.062  0.00  0.00    +0.236 C 
ATOM     14  O   UNL     1       4.745   2.317   2.033  0.00  0.00    -0.274 OA
ATOM     15  H   UNL     1       5.596   3.155  -0.200  0.00  0.00    +0.158 HD
ENDROOT
BRANCH   2  16
ATOM     16  C   UNL     1       2.360   0.076  -0.020  0.00  0.00    +0.017 A 
ATOM     17  C   UNL     1       1.220  -0.658  -0.013  0.00  0.00    -0.038 A 
ATOM     18  C   UNL     1       0.002  -0.004   0.002  0.00  0.00    +0.011 A 
ATOM     19  C   UNL     1      -0.016   1.351   0.009  0.00  0.00    +0.046 A 
ATOM     20  S   UNL     1       1.725   1.744  -0.005  0.00  0.00    -0.099 S 
ATOM     21  C   UNL     1       1.279  -2.164  -0.021  0.00  0.00    +0.044 C 
ENDBRANCH   2  16
BRANCH   1  22
ATOM     22  C   UNL     1       3.642  -0.076   2.415  0.00  0.00    +0.322 C 
ATOM     23  O   UNL     1       2.554  -0.587   2.293  0.00  0.00    -0.250 OA
BRANCH  22  24
ATOM     24  O   UNL     1       4.071   0.309   3.627  0.00  0.00    -0.464 OA
BRANCH  24  26
ATOM     25  C   UNL     1       3.831   0.581   6.035  0.00  0.00    +0.048 C 
ATOM     26  C   UNL     1       3.175   0.081   4.746  0.00  0.00    +0.229 C 
ENDBRANCH  24  26
ENDBRANCH  22  24
ENDBRANCH   1  22
TORSDOF 4
