REMARK  Name = ZINC04658797
REMARK  5 active torsions:
REMARK  status: ('A' for Active; 'I' for Inactive)
REMARK    1  A    between atoms: C_1  and  C_2
REMARK    2  A    between atoms: C_6  and  N_9
REMARK    3  A    between atoms: C_7  and  C_8
REMARK    4  A    between atoms: C_13  and  C_14
REMARK    5  A    between atoms: C_15  and  C_24
REMARK                            x       y       z     vdW  Elec       q    Type
REMARK                         _______ _______ _______ _____ _____    ______ ____
ROOT
ATOM      1  N   UNL     1       4.574   5.112   1.952  0.00  0.00    -0.214 N 
ATOM      2  C   UNL     1       3.597   5.315   1.085  0.00  0.00    +0.263 C 
ATOM      3  O   UNL     1       3.491   6.379   0.502  0.00  0.00    -0.269 OA
ATOM      4  C   UNL     1       2.669   4.258   0.849  0.00  0.00    +0.079 C 
ATOM      5  C   UNL     1       1.594   4.226   0.016  0.00  0.00    +0.030 C 
ATOM      6  S   UNL     1       3.289   2.989   1.944  0.00  0.00    -0.049 S 
ATOM      7  C   UNL     1       4.679   3.896   2.605  0.00  0.00    +0.165 C 
ATOM      8  N   UNL     1       5.564   3.511   3.483  0.00  0.00    -0.279 NA
ATOM      9  H   UNL     1       5.516   2.620   3.863  0.00  0.00    +0.189 HD
ENDROOT
BRANCH   5  10
ATOM     10  C   UNL     1       0.700   3.067   0.019  0.00  0.00    +0.004 A 
ATOM     11  C   UNL     1       0.376   2.281  -1.050  0.00  0.00    +0.021 A 
ATOM     12  N   UNL     1      -0.481   1.304  -0.656  0.00  0.00    -0.358 N 
ATOM     13  H   UNL     1      -0.851   0.624  -1.241  0.00  0.00    +0.166 HD
ATOM     14  C   UNL     1      -0.756   1.419   0.691  0.00  0.00    +0.047 A 
ATOM     15  C   UNL     1      -0.029   2.518   1.178  0.00  0.00    +0.007 A 
ATOM     16  C   UNL     1      -0.113   2.870   2.522  0.00  0.00    +0.010 A 
ATOM     17  C   UNL     1      -0.907   2.131   3.373  0.00  0.00    +0.001 A 
ATOM     18  C   UNL     1      -1.621   1.042   2.894  0.00  0.00    +0.002 A 
ATOM     19  C   UNL     1      -1.548   0.683   1.566  0.00  0.00    +0.026 A 
ATOM     20  C   UNL     1       0.892   2.469  -2.454  0.00  0.00    +0.064 C 
ENDBRANCH   5  10
BRANCH   1  26
ATOM     21  C   UNL     1       8.840   7.316   0.885  0.00  0.00    +0.044 C 
ATOM     22  C   UNL     1       7.580   7.219   1.706  0.00  0.00    -0.046 A 
ATOM     23  C   UNL     1       7.341   8.134   2.715  0.00  0.00    +0.004 A 
ATOM     24  C   UNL     1       6.188   8.048   3.472  0.00  0.00    +0.002 A 
ATOM     25  C   UNL     1       5.266   7.051   3.217  0.00  0.00    +0.024 A 
ATOM     26  C   UNL     1       5.505   6.128   2.208  0.00  0.00    +0.047 A 
ATOM     27  C   UNL     1       6.665   6.216   1.451  0.00  0.00    -0.026 A 
ATOM     28  C   UNL     1       6.926   5.220   0.350  0.00  0.00    +0.046 C 
ENDBRANCH   1  26
TORSDOF 2
