REMARK  Name = ZINC13063897
REMARK  14 active torsions:
REMARK  status: ('A' for Active; 'I' for Inactive)
REMARK    1  A    between atoms: C_1  and  C_2
REMARK    2  A    between atoms: C_2  and  C_3
REMARK    3  A    between atoms: C_3  and  C_5
REMARK    4  A    between atoms: C_3  and  N_68
REMARK    5  A    between atoms: N_9  and  C_10
REMARK    6  A    between atoms: C_10  and  C_11
REMARK    7  A    between atoms: C_11  and  O_13
REMARK    8  A    between atoms: O_13  and  C_14
REMARK    9  A    between atoms: C_14  and  C_15
REMARK   10  A    between atoms: C_16  and  C_17
REMARK   11  A    between atoms: C_16  and  N_68
REMARK   12  A    between atoms: C_26  and  C_27
REMARK   13  A    between atoms: C_26  and  N_68
REMARK   14  A    between atoms: C_32  and  C_39
REMARK                            x       y       z     vdW  Elec       q    Type
REMARK                         _______ _______ _______ _____ _____    ______ ____
ROOT
ATOM      1  N   UNL     1      -1.843   2.206   1.516  0.00  0.00    +0.392 N 
ATOM      2  H   UNL     1      -2.079   1.626   2.330  0.00  0.00    -0.080 HD
ENDROOT
BRANCH   1   3
ATOM      3  C   UNL     1      -2.874   3.253   1.358  0.00  0.00    +0.003 C 
BRANCH   3   4
ATOM      4  C   UNL     1      -2.747   3.921   0.013  0.00  0.00    +0.139 A 
ATOM      5  N   UNL     1      -2.451   3.340  -1.124  0.00  0.00    -0.115 NA
ATOM      6  N   UNL     1      -2.438   4.245  -2.041  0.00  0.00    -0.023 NA
ATOM      7  N   UNL     1      -2.717   5.388  -1.519  0.00  0.00    -0.043 NA
ATOM      8  N   UNL     1      -2.919   5.229  -0.254  0.00  0.00    -0.220 N 
BRANCH   8   9
ATOM      9  C   UNL     1      -3.268   6.276   0.710  0.00  0.00    +0.267 C 
BRANCH   9  10
ATOM     10  C   UNL     1      -2.007   6.867   1.286  0.00  0.00    +0.329 C 
ATOM     11  O   UNL     1      -0.929   6.457   0.928  0.00  0.00    -0.249 OA
BRANCH  10  12
ATOM     12  O   UNL     1      -2.083   7.850   2.197  0.00  0.00    -0.464 OA
BRANCH  12  13
ATOM     13  C   UNL     1      -0.829   8.373   2.709  0.00  0.00    +0.229 C 
ATOM     14  C   UNL     1      -1.114   9.477   3.728  0.00  0.00    +0.048 C 
ENDBRANCH  12  13
ENDBRANCH  10  12
ENDBRANCH   9  10
ENDBRANCH   8   9
ENDBRANCH   3   4
BRANCH   3  16
ATOM     15  C   UNL     1      -4.397   1.956   2.855  0.00  0.00    +0.002 C 
ATOM     16  C   UNL     1      -4.255   2.605   1.477  0.00  0.00    -0.011 C 
ENDBRANCH   3  16
ENDBRANCH   1   3
BRANCH   1  17
ATOM     17  C   UNL     1      -0.521   2.829   1.738  0.00  0.00    -0.041 C 
BRANCH  17  18
ATOM     18  C   UNL     1      -0.452   3.324   3.160  0.00  0.00    -0.060 A 
ATOM     19  C   UNL     1      -0.780   4.635   3.451  0.00  0.00    +0.005 A 
ATOM     20  C   UNL     1      -0.724   5.091   4.754  0.00  0.00    +0.050 A 
ATOM     21  C   UNL     1      -0.327   4.238   5.771  0.00  0.00    +0.166 A 
ATOM     22  C   UNL     1       0.009   2.919   5.478  0.00  0.00    +0.166 A 
ATOM     23  C   UNL     1      -0.056   2.467   4.170  0.00  0.00    +0.051 A 
ATOM     24  O   UNL     1       0.362   2.290   6.636  0.00  0.00    -0.453 OA
ATOM     25  C   UNL     1       0.633   3.345   7.579  0.00  0.00    +0.466 C 
ATOM     26  O   UNL     1      -0.184   4.436   7.114  0.00  0.00    -0.453 OA
ENDBRANCH  17  18
ENDBRANCH   1  17
BRANCH   1  27
ATOM     27  C   UNL     1      -1.803   1.351   0.311  0.00  0.00    -0.036 C 
BRANCH  27  28
ATOM     28  C   UNL     1      -1.152   0.040   0.672  0.00  0.00    +0.001 A 
ATOM     29  C   UNL     1      -1.920  -1.018   1.031  0.00  0.00    +0.017 A 
ATOM     30  C   UNL     1      -1.258  -2.280   1.370  0.00  0.00    -0.001 A 
ATOM     31  C   UNL     1      -1.996  -3.406   1.747  0.00  0.00    +0.010 A 
ATOM     32  C   UNL     1      -1.348  -4.568   2.057  0.00  0.00    +0.004 A 
ATOM     33  C   UNL     1       0.037  -4.641   2.000  0.00  0.00    -0.048 A 
ATOM     34  C   UNL     1       0.785  -3.544   1.631  0.00  0.00    +0.029 A 
ATOM     35  C   UNL     1       0.147  -2.350   1.312  0.00  0.00    +0.049 A 
ATOM     36  N   UNL     1       0.870  -1.237   0.939  0.00  0.00    -0.322 N 
ATOM     37  H   UNL     1       1.838  -1.287   0.899  0.00  0.00    +0.169 HD
ATOM     38  C   UNL     1       0.253  -0.083   0.630  0.00  0.00    +0.251 A 
ATOM     39  O   UNL     1       0.924   0.881   0.305  0.00  0.00    -0.268 OA
ATOM     40  C   UNL     1       0.730  -5.934   2.346  0.00  0.00    +0.044 C 
ENDBRANCH  27  28
ENDBRANCH   1  27
TORSDOF 11
