REMARK  Name = ZINC09303513
REMARK  7 active torsions:
REMARK  status: ('A' for Active; 'I' for Inactive)
REMARK    1  A    between atoms: C_1  and  C_2
REMARK    2  A    between atoms: C_6  and  N_9
REMARK    3  A    between atoms: C_7  and  C_8
REMARK    4  A    between atoms: N_9  and  C_10
REMARK    5  A    between atoms: C_10  and  C_11
REMARK    6  A    between atoms: C_17  and  C_23
REMARK    7  A    between atoms: C_24  and  C_26
REMARK                            x       y       z     vdW  Elec       q    Type
REMARK                         _______ _______ _______ _____ _____    ______ ____
ROOT
ATOM      1  N   UNL     1       1.553  -2.934   5.208  0.00  0.00    -0.262 N 
ATOM      2  C   UNL     1       2.027  -2.225   6.251  0.00  0.00    +0.258 C 
ATOM      3  O   UNL     1       3.104  -2.510   6.742  0.00  0.00    -0.269 OA
ENDROOT
BRANCH   1   9
ATOM      4  C   UNL     1       2.175  -7.802   5.500  0.00  0.00    +0.044 C 
ATOM      5  C   UNL     1       2.541  -6.463   4.913  0.00  0.00    -0.046 A 
ATOM      6  C   UNL     1       3.536  -6.377   3.956  0.00  0.00    +0.004 A 
ATOM      7  C   UNL     1       3.874  -5.150   3.415  0.00  0.00    +0.002 A 
ATOM      8  C   UNL     1       3.218  -4.007   3.828  0.00  0.00    +0.024 A 
ATOM      9  C   UNL     1       2.219  -4.090   4.788  0.00  0.00    +0.040 A 
ATOM     10  C   UNL     1       1.885  -5.323   5.334  0.00  0.00    -0.026 A 
ATOM     11  C   UNL     1       0.806  -5.417   6.381  0.00  0.00    +0.046 C 
ENDBRANCH   1   9
BRANCH   2  12
ATOM     12  C   UNL     1       1.246  -1.111   6.795  0.00  0.00    +0.074 A 
ATOM     13  C   UNL     1       1.609  -0.173   7.749  0.00  0.00    +0.021 A 
ATOM     14  C   UNL     1       0.673   0.776   8.081  0.00  0.00    +0.008 A 
ATOM     15  C   UNL     1      -0.541   0.751   7.471  0.00  0.00    +0.046 A 
ATOM     16  S   UNL     1      -0.418  -0.604   6.397  0.00  0.00    -0.092 S 
ENDBRANCH   2  12
BRANCH   1  17
ATOM     17  C   UNL     1       0.340  -2.495   4.514  0.00  0.00    +0.154 C 
BRANCH  17  18
ATOM     18  C   UNL     1       0.542  -2.613   3.025  0.00  0.00    +0.035 A 
ATOM     19  C   UNL     1       0.027  -3.674   2.356  0.00  0.00    +0.020 A 
ATOM     20  C   UNL     1       0.240  -3.759   0.910  0.00  0.00    -0.001 A 
ATOM     21  C   UNL     1      -0.266  -4.829   0.165  0.00  0.00    +0.010 A 
ATOM     22  C   UNL     1      -0.049  -4.880  -1.182  0.00  0.00    +0.001 A 
ATOM     23  C   UNL     1       0.664  -3.874  -1.821  0.00  0.00    +0.005 A 
ATOM     24  C   UNL     1       1.178  -2.813  -1.107  0.00  0.00    -0.026 A 
ATOM     25  C   UNL     1       0.970  -2.741   0.267  0.00  0.00    +0.052 A 
ATOM     26  N   UNL     1       1.468  -1.689   1.005  0.00  0.00    -0.322 N 
ATOM     27  H   UNL     1       2.039  -0.891   0.509  0.00  0.00    +0.169 HD
ATOM     28  C   UNL     1       1.266  -1.619   2.333  0.00  0.00    +0.254 A 
ATOM     29  O   UNL     1       1.721  -0.674   2.954  0.00  0.00    -0.268 OA
ATOM     30  C   UNL     1       1.957  -1.733  -1.812  0.00  0.00    +0.046 C 
ENDBRANCH  17  18
ENDBRANCH   1  17
TORSDOF 4
