REMARK  Name = ZINC45878717
REMARK  3 active torsions:
REMARK  status: ('A' for Active; 'I' for Inactive)
REMARK    1  A    between atoms: C_3  and  N_19
REMARK    2  A    between atoms: C_6  and  C_7
REMARK    3  A    between atoms: C_7  and  N_8
REMARK                            x       y       z     vdW  Elec       q    Type
REMARK                         _______ _______ _______ _____ _____    ______ ____
ROOT
ATOM      1  C   UNL     1      -0.016   1.384   0.036  0.00  0.00    +0.010 A 
ATOM      2  C   UNL     1       1.190   2.061   0.028  0.00  0.00    +0.042 A 
ATOM      3  C   UNL     1       2.374   1.332  -0.013  0.00  0.00    +0.099 A 
ATOM      4  N   UNL     1       2.350   0.008  -0.045  0.00  0.00    -0.349 N 
ATOM      5  C   UNL     1       1.214  -0.663  -0.040  0.00  0.00    +0.089 A 
ATOM      6  C   UNL     1       0.002  -0.004   0.001  0.00  0.00    -0.014 A 
ATOM      7  H   UNL     1       3.188  -0.480  -0.074  0.00  0.00    +0.167 HD
ENDROOT
BRANCH   3   8
ATOM      8  N   UNL     1       3.594   1.999  -0.022  0.00  0.00    -0.317 N 
ATOM      9  C   UNL     1       4.856   1.252   0.066  0.00  0.00    +0.106 C 
ATOM     10  C   UNL     1       5.754   1.662  -1.105  0.00  0.00    +0.019 C 
ATOM     11  C   UNL     1       5.922   3.183  -1.106  0.00  0.00    +0.003 C 
ATOM     12  C   UNL     1       4.556   3.849  -1.289  0.00  0.00    +0.019 C 
ATOM     13  C   UNL     1       3.645   3.464  -0.125  0.00  0.00    +0.106 C 
ENDBRANCH   3   8
BRANCH   6  14
ATOM     14  C   UNL     1      -1.288  -0.783   0.009  0.00  0.00    +0.142 C 
BRANCH  14  15
ATOM     15  N   UNL     1      -1.734  -1.001  -1.370  0.00  0.00    -0.295 N 
ATOM     16  C   UNL     1      -2.874  -1.680  -1.609  0.00  0.00    +0.302 C 
ATOM     17  O   UNL     1      -3.531  -2.111  -0.682  0.00  0.00    -0.253 OA
ATOM     18  N   UNL     1      -3.284  -1.881  -2.877  0.00  0.00    -0.286 N 
ATOM     19  C   UNL     1      -2.493  -1.369  -4.004  0.00  0.00    +0.109 C 
ATOM     20  C   UNL     1      -1.184  -2.144  -4.086  0.00  0.00    +0.019 C 
ATOM     21  C   UNL     1      -1.468  -3.561  -4.612  0.00  0.00    +0.002 C 
ATOM     22  C   UNL     1      -2.042  -4.414  -3.487  0.00  0.00    +0.000 C 
ATOM     23  C   UNL     1      -3.502  -4.800  -3.785  0.00  0.00    +0.002 C 
ATOM     24  C   UNL     1      -4.262  -3.579  -4.304  0.00  0.00    +0.019 C 
ATOM     25  C   UNL     1      -4.512  -2.612  -3.145  0.00  0.00    +0.109 C 
ATOM     26  H   UNL     1      -1.210  -0.657  -2.110  0.00  0.00    +0.151 HD
ENDBRANCH  14  15
ENDBRANCH   6  14
TORSDOF 3
