REMARK  Name = ZINC38806246
REMARK  14 active torsions:
REMARK  status: ('A' for Active; 'I' for Inactive)
REMARK    1  A    between atoms: C_1  and  C_2
REMARK    2  A    between atoms: C_2  and  O_3
REMARK    3  A    between atoms: O_3  and  C_4
REMARK    4  A    between atoms: C_7  and  O_10
REMARK    5  A    between atoms: O_10  and  C_11
REMARK    6  A    between atoms: C_11  and  C_12
REMARK    7  A    between atoms: N_14  and  C_15
REMARK    8  A    between atoms: C_16  and  C_28
REMARK    9  A    between atoms: C_20  and  C_26
REMARK   10  A    between atoms: C_20  and  C_27
REMARK   11  A    between atoms: C_22  and  C_24
REMARK   12  A    between atoms: C_22  and  C_25
REMARK   13  A    between atoms: C_28  and  O_30
REMARK   14  A    between atoms: O_30  and  C_31
REMARK                            x       y       z     vdW  Elec       q    Type
REMARK                         _______ _______ _______ _____ _____    ______ ____
ROOT
ATOM      1  C   UNL     1       2.455  -9.953   3.898  0.00  0.00    +0.086 A 
ATOM      2  C   UNL     1       3.021 -10.803   4.841  0.00  0.00    +0.091 A 
ATOM      3  C   UNL     1       2.906 -12.223   4.594  0.00  0.00    -0.024 A 
ATOM      4  C   UNL     1       2.253 -12.547   3.454  0.00  0.00    -0.016 A 
ATOM      5  S   UNL     1       1.801 -10.990   2.750  0.00  0.00    -0.079 S 
ATOM      6  C   UNL     1       2.003 -13.925   2.939  0.00  0.00    -0.041 C 
ATOM      7  N   UNL     1       2.353 -14.956   3.915  0.00  0.00    +0.389 N 
ATOM      8  C   UNL     1       2.461 -14.530   5.303  0.00  0.00    -0.069 C 
ATOM      9  C   UNL     1       3.426 -13.351   5.472  0.00  0.00    +0.024 C 
ATOM     10  C   UNL     1       1.091 -14.152   5.872  0.00  0.00    -0.010 C 
ATOM     11  C   UNL     1       3.007 -15.709   6.131  0.00  0.00    -0.010 C 
ATOM     12  C   UNL     1       0.529 -14.058   2.532  0.00  0.00    -0.005 C 
ATOM     13  C   UNL     1       2.862 -14.131   1.675  0.00  0.00    -0.005 C 
ATOM     14  H   UNL     1       1.659 -15.704   3.858  0.00  0.00    -0.084 HD
ATOM     15  H   UNL     1       3.239 -15.381   3.635  0.00  0.00    -0.084 HD
ENDROOT
BRANCH   1  18
ATOM     16  C   UNL     1       1.839  -7.896   2.902  0.00  0.00    +0.255 C 
ATOM     17  O   UNL     1       1.317  -8.505   1.992  0.00  0.00    -0.272 OA
ATOM     18  N   UNL     1       2.437  -8.568   3.905  0.00  0.00    -0.277 N 
ATOM     19  H   UNL     1       2.854  -8.081   4.633  0.00  0.00    +0.155 HD
BRANCH  16  20
ATOM     20  C   UNL     1       1.818  -6.389   2.910  0.00  0.00    +0.324 C 
BRANCH  20  21
ATOM     21  O   UNL     1       1.132  -5.916   1.749  0.00  0.00    -0.483 OA
BRANCH  21  25
ATOM     22  C   UNL     1       0.802  -1.825   1.306  0.00  0.00    +0.121 A 
ATOM     23  C   UNL     1       0.260  -2.672   0.351  0.00  0.00    +0.049 A 
ATOM     24  C   UNL     1       0.370  -4.041   0.499  0.00  0.00    +0.049 A 
ATOM     25  C   UNL     1       1.024  -4.568   1.603  0.00  0.00    +0.121 A 
ATOM     26  C   UNL     1       1.567  -3.721   2.557  0.00  0.00    +0.049 A 
ATOM     27  C   UNL     1       1.461  -2.352   2.407  0.00  0.00    +0.049 A 
BRANCH  22  28
ATOM     28  O   UNL     1       0.693  -0.477   1.160  0.00  0.00    -0.492 OA
BRANCH  28  30
ATOM     29  C   UNL     1      -0.019   1.526   0.010  0.00  0.00    +0.048 C 
ATOM     30  C   UNL     1       0.002  -0.004   0.002  0.00  0.00    +0.225 C 
ENDBRANCH  28  30
ENDBRANCH  22  28
ENDBRANCH  21  25
ENDBRANCH  20  21
ENDBRANCH  16  20
ENDBRANCH   1  18
BRANCH   2  31
ATOM     31  C   UNL     1       3.703 -10.273   6.024  0.00  0.00    +0.342 C 
ATOM     32  O   UNL     1       3.076 -10.069   7.046  0.00  0.00    -0.245 OA
BRANCH  31  33
ATOM     33  O   UNL     1       5.025 -10.009   5.980  0.00  0.00    -0.464 OA
ATOM     34  C   UNL     1       5.624  -9.494   7.170  0.00  0.00    +0.280 C 
ENDBRANCH  31  33
ENDBRANCH   2  31
TORSDOF 8
