REMARK  Name = ZINC14474057
REMARK  7 active torsions:
REMARK  status: ('A' for Active; 'I' for Inactive)
REMARK    1  A    between atoms: C_1  and  C_2
REMARK    2  A    between atoms: C_5  and  N_9
REMARK    3  A    between atoms: C_6  and  C_8
REMARK    4  A    between atoms: N_9  and  S_10
REMARK    5  A    between atoms: S_10  and  C_13
REMARK    6  A    between atoms: C_26  and  C_29
REMARK    7  A    between atoms: C_34  and  O_35
REMARK                            x       y       z     vdW  Elec       q    Type
REMARK                         _______ _______ _______ _____ _____    ______ ____
ROOT
ATOM      1  C   UNL     1       1.621  -0.511   4.192  0.00  0.00    +0.109 A 
ATOM      2  C   UNL     1       0.494  -0.742   4.960  0.00  0.00    +0.030 A 
ATOM      3  C   UNL     1       0.101  -2.038   5.227  0.00  0.00    +0.025 A 
ATOM      4  C   UNL     1       0.840  -3.105   4.733  0.00  0.00    +0.031 A 
ATOM      5  C   UNL     1       1.974  -2.879   3.967  0.00  0.00    -0.018 A 
ATOM      6  C   UNL     1       2.357  -1.571   3.702  0.00  0.00    +0.034 A 
ATOM      7  C   UNL     1       2.801  -3.994   3.413  0.00  0.00    +0.049 C 
ATOM      8  C   UNL     1       2.570  -4.170   1.931  0.00  0.00    -0.023 C 
ATOM      9  C   UNL     1       2.611  -5.440   1.612  0.00  0.00    -0.030 C 
ATOM     10  C   UNL     1       2.882  -6.287   2.840  0.00  0.00    +0.033 C 
ATOM     11  C   UNL     1       2.444  -5.367   4.017  0.00  0.00    +0.029 C 
ATOM     12  C   UNL     1       0.924  -5.496   4.155  0.00  0.00    +0.108 C 
ATOM     13  N   UNL     1       0.431  -4.413   5.013  0.00  0.00    -0.336 N 
ATOM     14  H   UNL     1      -0.163  -4.600   5.756  0.00  0.00    +0.147 HD
ENDROOT
BRANCH  12  15
ATOM     15  C   UNL     1       0.283  -5.395   2.796  0.00  0.00    +0.014 A 
ATOM     16  C   UNL     1      -0.089  -4.161   2.297  0.00  0.00    +0.009 A 
ATOM     17  C   UNL     1      -0.673  -4.067   1.047  0.00  0.00    +0.001 A 
ATOM     18  C   UNL     1      -0.896  -5.208   0.298  0.00  0.00    +0.004 A 
ATOM     19  C   UNL     1      -0.531  -6.444   0.794  0.00  0.00    +0.046 A 
ATOM     20  C   UNL     1       0.060  -6.540   2.046  0.00  0.00    +0.122 A 
BRANCH  20  21
ATOM     21  O   UNL     1       0.420  -7.756   2.537  0.00  0.00    -0.506 OA
ATOM     22  H   UNL     1      -0.273  -8.194   3.049  0.00  0.00    +0.292 HD
ENDBRANCH  20  21
ENDBRANCH  12  15
BRANCH   1  23
ATOM     23  S   UNL     1       2.124   1.141   3.845  0.00  0.00    +0.072 S 
ATOM     24  O   UNL     1       3.517   1.093   3.570  0.00  0.00    -0.150 OA
ATOM     25  O   UNL     1       1.578   1.956   4.873  0.00  0.00    -0.150 OA
BRANCH  23  26
ATOM     26  N   UNL     1       1.379   1.593   2.436  0.00  0.00    -0.216 N 
ATOM     27  H   UNL     1       1.912   1.849   1.667  0.00  0.00    +0.174 HD
BRANCH  26  32
ATOM     28  C   UNL     1      -4.282   1.644   2.111  0.00  0.00    +0.044 C 
ATOM     29  C   UNL     1      -2.777   1.631   2.198  0.00  0.00    -0.050 A 
ATOM     30  C   UNL     1      -2.151   1.985   3.379  0.00  0.00    +0.005 A 
ATOM     31  C   UNL     1      -0.772   1.974   3.461  0.00  0.00    +0.025 A 
ATOM     32  C   UNL     1      -0.015   1.606   2.356  0.00  0.00    +0.051 A 
ATOM     33  C   UNL     1      -0.647   1.250   1.172  0.00  0.00    -0.028 A 
ATOM     34  C   UNL     1      -2.026   1.268   1.095  0.00  0.00    +0.008 A 
ATOM     35  C   UNL     1       0.170   0.850  -0.029  0.00  0.00    +0.046 C 
ENDBRANCH  26  32
ENDBRANCH  23  26
ENDBRANCH   1  23
TORSDOF 5
