REMARK  Name = ZINC58191851
REMARK  4 active torsions:
REMARK  status: ('A' for Active; 'I' for Inactive)
REMARK    1  A    between atoms: C_6  and  C_7
REMARK    2  A    between atoms: C_12  and  N_16
REMARK    3  A    between atoms: N_19  and  C_22
REMARK    4  A    between atoms: C_22  and  C_23
REMARK                            x       y       z     vdW  Elec       q    Type
REMARK                         _______ _______ _______ _____ _____    ______ ____
ROOT
ATOM      1  C   UNL     1      -1.463  -0.460  -0.287  0.00  0.00    +0.002 A 
ATOM      2  C   UNL     1      -2.467  -0.123   0.556  0.00  0.00    +0.056 A 
ATOM      3  S   UNL     1      -3.716  -1.353   0.230  0.00  0.00    -0.076 S 
ATOM      4  C   UNL     1      -2.873  -2.285  -1.020  0.00  0.00    +0.114 A 
ATOM      5  C   UNL     1      -1.639  -1.615  -1.161  0.00  0.00    +0.055 A 
ATOM      6  C   UNL     1      -0.753  -2.166  -2.126  0.00  0.00    +0.133 A 
ATOM      7  N   UNL     1      -1.128  -3.233  -2.813  0.00  0.00    -0.220 NA
ATOM      8  C   UNL     1      -2.304  -3.807  -2.632  0.00  0.00    +0.224 A 
ATOM      9  N   UNL     1      -3.164  -3.348  -1.744  0.00  0.00    -0.228 NA
ENDROOT
BRANCH   1  15
ATOM     10  C   UNL     1      -0.253   1.689  -0.651  0.00  0.00    +0.010 A 
ATOM     11  C   UNL     1       0.915   2.423  -0.686  0.00  0.00    +0.020 A 
ATOM     12  C   UNL     1       2.126   1.815  -0.401  0.00  0.00    +0.041 A 
ATOM     13  C   UNL     1       2.172   0.469  -0.080  0.00  0.00    +0.020 A 
ATOM     14  C   UNL     1       1.010  -0.274  -0.042  0.00  0.00    +0.010 A 
ATOM     15  C   UNL     1      -0.212   0.333  -0.328  0.00  0.00    -0.017 A 
ATOM     16 CL   UNL     1       3.591   2.745  -0.448  0.00  0.00    -0.084 Cl
ENDBRANCH   1  15
BRANCH   6  17
ATOM     17  N   UNL     1       0.486  -1.592  -2.345  0.00  0.00    -0.312 N 
ATOM     18  C   UNL     1       1.713  -2.233  -1.847  0.00  0.00    +0.122 C 
ATOM     19  C   UNL     1       2.710  -2.342  -3.005  0.00  0.00    +0.104 C 
ATOM     20  N   UNL     1       2.903  -1.017  -3.608  0.00  0.00    -0.287 NA
ATOM     21  C   UNL     1       1.653  -0.510  -4.191  0.00  0.00    +0.104 C 
ATOM     22  C   UNL     1       0.614  -0.329  -3.087  0.00  0.00    +0.122 C 
BRANCH  20  23
ATOM     23  C   UNL     1       3.978  -1.044  -4.609  0.00  0.00    +0.204 C 
BRANCH  23  24
ATOM     24  C   UNL     1       4.306   0.332  -5.015  0.00  0.00    +0.078 C 
ATOM     25  N   UNL     1       4.559   1.394  -5.328  0.00  0.00    -0.195 NA
ENDBRANCH  23  24
ENDBRANCH  20  23
ENDBRANCH   6  17
TORSDOF 4
