REMARK  Name = ZINC36892100
REMARK  3 active torsions:
REMARK  status: ('A' for Active; 'I' for Inactive)
REMARK    1  A    between atoms: C_6  and  C_7
REMARK    2  A    between atoms: C_7  and  C_9
REMARK    3  A    between atoms: C_7  and  N_20
REMARK                            x       y       z     vdW  Elec       q    Type
REMARK                         _______ _______ _______ _____ _____    ______ ____
ROOT
ATOM      1  C   UNL     1      -1.293  -0.775   0.011  0.00  0.00    -0.013 C 
ENDROOT
BRANCH   1   2
ATOM      2  C   UNL     1      -1.612  -1.237  -1.388  0.00  0.00    -0.054 A 
ATOM      3  C   UNL     1      -0.990  -2.362  -1.901  0.00  0.00    +0.004 A 
ATOM      4  C   UNL     1      -1.278  -2.791  -3.182  0.00  0.00    +0.030 A 
ATOM      5  C   UNL     1      -2.192  -2.092  -3.954  0.00  0.00    +0.087 A 
ATOM      6  C   UNL     1      -2.819  -0.958  -3.438  0.00  0.00    +0.157 A 
ATOM      7  C   UNL     1      -2.528  -0.538  -2.150  0.00  0.00    +0.050 A 
ATOM      8  O   UNL     1      -3.650  -0.485  -4.399  0.00  0.00    -0.408 OA
ATOM      9  C   UNL     1      -3.564  -1.273  -5.483  0.00  0.00    +0.419 A 
ATOM     10  O   UNL     1      -4.185  -1.115  -6.517  0.00  0.00    -0.223 OA
ATOM     11  N   UNL     1      -2.683  -2.265  -5.248  0.00  0.00    -0.288 N 
ATOM     12  H   UNL     1      -2.436  -2.971  -5.866  0.00  0.00    +0.172 HD
ENDBRANCH   1   2
BRANCH   1  18
ATOM     13  C   UNL     1      -0.017   1.378   0.010  0.00  0.00    +0.003 A 
ATOM     14  C   UNL     1       1.171   2.086   0.002  0.00  0.00    +0.014 A 
ATOM     15  C   UNL     1       2.378   1.411  -0.013  0.00  0.00    +0.013 A 
ATOM     16  C   UNL     1       2.396   0.028  -0.021  0.00  0.00    +0.014 A 
ATOM     17  C   UNL     1       1.208  -0.679  -0.013  0.00  0.00    +0.003 A 
ATOM     18  C   UNL     1       0.002  -0.004   0.002  0.00  0.00    -0.058 A 
ATOM     19  I   UNL     1       4.178   2.482  -0.025  0.00  0.00    -0.044 I 
ENDBRANCH   1  18
BRANCH   1  20
ATOM     20  N   UNL     1      -1.162  -1.942   0.893  0.00  0.00    +0.385 N 
ATOM     21  H   UNL     1      -0.419  -2.536   0.557  0.00  0.00    -0.089 HD
ATOM     22  H   UNL     1      -0.948  -1.633   1.830  0.00  0.00    -0.089 HD
ATOM     23  H   UNL     1      -2.029  -2.458   0.899  0.00  0.00    -0.089 HD
ENDBRANCH   1  20
TORSDOF 3
