REMARK  Name = ZINC39544712
REMARK  7 active torsions:
REMARK  status: ('A' for Active; 'I' for Inactive)
REMARK    1  A    between atoms: C_1  and  C_2
REMARK    2  A    between atoms: C_2  and  C_3
REMARK    3  A    between atoms: C_3  and  N_4
REMARK    4  A    between atoms: N_4  and  S_22
REMARK    5  A    between atoms: C_5  and  C_7
REMARK    6  A    between atoms: S_22  and  O_25
REMARK    7  A    between atoms: O_25  and  C_26
REMARK                            x       y       z     vdW  Elec       q    Type
REMARK                         _______ _______ _______ _____ _____    ______ ____
ROOT
ATOM      1  N   UNL     1      -1.059  -2.098   0.061  0.00  0.00    -0.142 N 
ATOM      2  C   UNL     1      -1.541  -2.613   1.210  0.00  0.00    +0.256 C 
ATOM      3  O   UNL     1      -1.646  -1.910   2.193  0.00  0.00    -0.272 OA
ENDROOT
BRANCH   2   4
ATOM      4  C   UNL     1      -1.949  -4.063   1.273  0.00  0.00    +0.151 C 
ATOM      5  C   UNL     1      -3.329  -4.264   0.617  0.00  0.00    +0.081 C 
ATOM      6  C   UNL     1      -4.188  -4.820   1.730  0.00  0.00    +0.055 C 
ATOM      7  C   UNL     1      -3.475  -4.920   2.822  0.00  0.00    +0.090 C 
ATOM      8  N   UNL     1      -3.918  -5.432   4.058  0.00  0.00    -0.303 N 
ATOM      9  C   UNL     1      -2.958  -6.171   4.770  0.00  0.00    +0.037 A 
ATOM     10  C   UNL     1      -3.317  -6.818   5.944  0.00  0.00    +0.023 A 
ATOM     11  C   UNL     1      -2.372  -7.536   6.649  0.00  0.00    +0.002 A 
ATOM     12  C   UNL     1      -1.072  -7.608   6.181  0.00  0.00    +0.000 A 
ATOM     13  C   UNL     1      -0.716  -6.968   5.010  0.00  0.00    +0.007 A 
ATOM     14  C   UNL     1      -1.658  -6.248   4.293  0.00  0.00    -0.010 A 
ATOM     15  C   UNL     1      -1.245  -5.583   3.006  0.00  0.00    +0.124 C 
ATOM     16  N   UNL     1      -2.149  -4.482   2.670  0.00  0.00    -0.369 NA
ATOM     17 CL   UNL     1      -5.861  -5.258   1.581  0.00  0.00    -0.085 Cl
ATOM     18  H   UNL     1      -4.817  -5.284   4.392  0.00  0.00    +0.153 HD
ATOM     19  H   UNL     1      -1.975  -3.703   3.287  0.00  0.00    +0.129 HD
ENDBRANCH   2   4
BRANCH   1  20
ATOM     20  S   UNL     1      -0.789  -3.086  -1.240  0.00  0.00    +0.212 S 
ATOM     21  O   UNL     1      -1.515  -4.284  -0.998  0.00  0.00    -0.115 OA
ATOM     22  O   UNL     1      -0.993  -2.293  -2.401  0.00  0.00    -0.115 OA
BRANCH  20  23
ATOM     23  O   UNL     1       0.686  -3.460  -1.223  0.00  0.00    -0.331 OA
BRANCH  23  24
ATOM     24  C   UNL     1       1.012  -4.379  -0.276  0.00  0.00    +0.158 A 
ATOM     25  C   UNL     1       1.389  -3.964   0.994  0.00  0.00    +0.048 A 
ATOM     26  C   UNL     1       1.719  -4.899   1.955  0.00  0.00    +0.004 A 
ATOM     27  C   UNL     1       1.676  -6.248   1.653  0.00  0.00    +0.000 A 
ATOM     28  C   UNL     1       1.302  -6.664   0.388  0.00  0.00    +0.004 A 
ATOM     29  C   UNL     1       0.964  -5.732  -0.575  0.00  0.00    +0.048 A 
ENDBRANCH  23  24
ENDBRANCH  20  23
ENDBRANCH   1  20
BRANCH   1  30
ATOM     30  C   UNL     1      -0.774  -0.664  -0.036  0.00  0.00    +0.137 C 
BRANCH  30  32
ATOM     31  C   UNL     1       0.927   1.112   0.405  0.00  0.00    +0.005 C 
ATOM     32  C   UNL     1       0.629  -0.386   0.507  0.00  0.00    +0.018 C 
ENDBRANCH  30  32
ENDBRANCH   1  30
TORSDOF 6
