REMARK  Name = ZINC09377359
REMARK  5 active torsions:
REMARK  status: ('A' for Active; 'I' for Inactive)
REMARK    1  A    between atoms: C_6  and  C_11
REMARK    2  A    between atoms: C_11  and  C_13
REMARK    3  A    between atoms: C_13  and  C_14
REMARK    4  A    between atoms: C_14  and  C_15
REMARK    5  A    between atoms: C_20  and  N_23
REMARK                            x       y       z     vdW  Elec       q    Type
REMARK                         _______ _______ _______ _____ _____    ______ ____
ROOT
ATOM      1  C   UNL     1       3.383  10.449   0.020  0.00  0.00    +0.216 C 
ATOM      2  O   UNL     1       4.438   9.851   0.007  0.00  0.00    -0.276 OA
ATOM      3  N   UNL     1       3.373  11.797   0.027  0.00  0.00    -0.301 N 
ATOM      4  C   UNL     1       2.103  12.536   0.036  0.00  0.00    +0.110 C 
ATOM      5  C   UNL     1       2.098  13.532  -1.121  0.00  0.00    +0.044 C 
ATOM      6  C   UNL     1       3.343  14.419  -1.033  0.00  0.00    +0.095 C 
ATOM      7  C   UNL     1       4.598  13.552  -1.145  0.00  0.00    +0.044 C 
ATOM      8  C   UNL     1       4.631  12.555   0.018  0.00  0.00    +0.110 C 
ENDROOT
BRANCH   6   9
ATOM      9  N   UNL     1       3.325  15.395  -2.125  0.00  0.00    -0.289 N 
ATOM     10  C   UNL     1       3.315  16.780  -1.980  0.00  0.00    +0.070 A 
ATOM     11  C   UNL     1       3.318  17.622  -0.878  0.00  0.00    +0.028 A 
ATOM     12  C   UNL     1       3.304  18.991  -1.059  0.00  0.00    +0.002 A 
ATOM     13  C   UNL     1       3.289  19.527  -2.335  0.00  0.00    +0.002 A 
ATOM     14  C   UNL     1       3.287  18.697  -3.439  0.00  0.00    +0.028 A 
ATOM     15  C   UNL     1       3.300  17.321  -3.268  0.00  0.00    +0.067 A 
ATOM     16  N   UNL     1       3.301  16.247  -4.155  0.00  0.00    -0.306 N 
ATOM     17  H   UNL     1       3.292  16.310  -5.123  0.00  0.00    +0.170 HD
ATOM     18  C   UNL     1       3.321  15.106  -3.440  0.00  0.00    +0.328 A 
ATOM     19  O   UNL     1       3.332  13.984  -3.911  0.00  0.00    -0.247 OA
ENDBRANCH   6   9
BRANCH   1  20
ATOM     20  C   UNL     1       2.084   9.685   0.029  0.00  0.00    +0.104 C 
BRANCH  20  21
ATOM     21  C   UNL     1       2.375   8.183   0.019  0.00  0.00    +0.089 C 
BRANCH  21  22
ATOM     22  C   UNL     1       1.075   7.420   0.028  0.00  0.00    +0.164 C 
ATOM     23  O   UNL     1       0.021   8.018   0.041  0.00  0.00    -0.292 OA
BRANCH  22  29
ATOM     24  C   UNL     1      -0.013   1.076   0.008  0.00  0.00    +0.001 A 
ATOM     25  C   UNL     1      -1.235   1.745   0.017  0.00  0.00    +0.001 A 
ATOM     26  C   UNL     1      -1.288   3.105   0.030  0.00  0.00    +0.008 A 
ATOM     27  C   UNL     1      -0.093   3.849   0.023  0.00  0.00    -0.017 A 
ATOM     28  C   UNL     1      -0.113   5.251   0.029  0.00  0.00    +0.020 A 
ATOM     29  C   UNL     1       1.087   5.949   0.021  0.00  0.00    +0.018 A 
ATOM     30  C   UNL     1       2.315   5.259   0.007  0.00  0.00    +0.012 A 
ATOM     31  C   UNL     1       2.350   3.903  -0.000  0.00  0.00    +0.009 A 
ATOM     32  C   UNL     1       1.150   3.167   0.008  0.00  0.00    -0.018 A 
ATOM     33  C   UNL     1       1.163   1.762   0.000  0.00  0.00    +0.008 A 
ENDBRANCH  22  29
ENDBRANCH  21  22
ENDBRANCH  20  21
ENDBRANCH   1  20
TORSDOF 5
