REMARK  Name = ZINC30819391
REMARK  10 active torsions:
REMARK  status: ('A' for Active; 'I' for Inactive)
REMARK    1  A    between atoms: C_1  and  C_2
REMARK    2  A    between atoms: C_5  and  C_7
REMARK    3  A    between atoms: C_8  and  N_34
REMARK    4  A    between atoms: N_9  and  C_13
REMARK    5  A    between atoms: C_13  and  C_14
REMARK    6  A    between atoms: C_14  and  C_33
REMARK    7  A    between atoms: C_18  and  C_32
REMARK    8  A    between atoms: C_27  and  C_29
REMARK    9  A    between atoms: C_29  and  C_30
REMARK   10  A    between atoms: C_29  and  C_31
REMARK                            x       y       z     vdW  Elec       q    Type
REMARK                         _______ _______ _______ _____ _____    ______ ____
ROOT
ATOM      1  C   UNL     1       0.904   0.603   3.396  0.00  0.00    -0.014 C 
ATOM      2  C   UNL     1       0.065   0.917   4.636  0.00  0.00    +0.008 C 
ATOM      3  C   UNL     1      -0.425   2.359   4.644  0.00  0.00    +0.001 C 
ATOM      4  C   UNL     1      -1.254   2.639   3.389  0.00  0.00    +0.011 C 
ATOM      5  C   UNL     1      -0.387   2.438   2.150  0.00  0.00    -0.003 C 
ATOM      6  C   UNL     1       0.208   1.043   2.128  0.00  0.00    +0.007 C 
ATOM      7  C   UNL     1       1.068   0.880   0.876  0.00  0.00    +0.009 C 
ATOM      8  C   UNL     1       0.140   0.856  -0.340  0.00  0.00    +0.036 C 
ATOM      9  C   UNL     1      -0.961   1.876  -0.238  0.00  0.00    -0.043 A 
ATOM     10  C   UNL     1      -1.223   2.610   0.899  0.00  0.00    -0.038 A 
ATOM     11  C   UNL     1      -2.258   3.528   0.914  0.00  0.00    +0.005 A 
ATOM     12  C   UNL     1      -3.039   3.720  -0.209  0.00  0.00    +0.004 A 
ATOM     13  C   UNL     1      -2.781   2.990  -1.353  0.00  0.00    -0.045 A 
ATOM     14  C   UNL     1      -1.750   2.075  -1.367  0.00  0.00    +0.007 A 
ATOM     15  C   UNL     1       0.684   3.529   2.116  0.00  0.00    +0.016 C 
ATOM     16  C   UNL     1       1.071  -0.935   3.350  0.00  0.00    +0.013 C 
ENDROOT
BRANCH  13  17
ATOM     17  C   UNL     1      -3.625   3.195  -2.585  0.00  0.00    +0.013 C 
ATOM     18  C   UNL     1      -5.085   2.871  -2.263  0.00  0.00    +0.012 C 
ATOM     19  C   UNL     1      -3.515   4.650  -3.043  0.00  0.00    +0.012 C 
ENDBRANCH  13  17
BRANCH   1  20
ATOM     20  C   UNL     1       2.301   1.207   3.541  0.00  0.00    +0.093 C 
BRANCH  20  23
ATOM     21  C   UNL     1       3.696   0.354   6.848  0.00  0.00    +0.085 C 
ATOM     22  C   UNL     1       2.979   1.154   5.965  0.00  0.00    +0.081 C 
ATOM     23  N   UNL     1       2.965   0.628   4.711  0.00  0.00    -0.376 NA
ATOM     24  C   UNL     1       3.738  -0.622   4.735  0.00  0.00    +0.167 C 
ATOM     25  C   UNL     1       4.204  -0.765   6.168  0.00  0.00    +0.184 C 
ATOM     26  O   UNL     1       4.878  -1.664   6.634  0.00  0.00    -0.290 OA
ATOM     27  H   UNL     1       2.341   1.351   4.165  0.00  0.00    +0.128 HD
BRANCH  21  32
ATOM     28  C   UNL     1       5.404  -0.455  11.456  0.00  0.00    +0.066 C 
ATOM     29  C   UNL     1       4.640   0.355  10.440  0.00  0.00    +0.046 A 
ATOM     30  C   UNL     1       4.030   1.508  10.812  0.00  0.00    +0.070 A 
ATOM     31  S   UNL     1       3.315   2.021   9.255  0.00  0.00    -0.075 S 
ATOM     32  C   UNL     1       3.897   0.640   8.281  0.00  0.00    +0.115 A 
ATOM     33  N   UNL     1       4.564  -0.056   9.193  0.00  0.00    -0.244 NA
ENDBRANCH  21  32
BRANCH  22  34
ATOM     34  N   UNL     1       2.362   2.321   6.314  0.00  0.00    -0.347 N 
ATOM     35  H   UNL     1       1.813   2.900   5.558  0.00  0.00    +0.143 HD
ATOM     36  H   UNL     1       2.416   2.682   7.352  0.00  0.00    +0.143 HD
ENDBRANCH  22  34
ENDBRANCH  20  23
ENDBRANCH   1  20
TORSDOF 5
