REMARK  Name = ZINC36329586
REMARK  10 active torsions:
REMARK  status: ('A' for Active; 'I' for Inactive)
REMARK    1  A    between atoms: C_1  and  O_2
REMARK    2  A    between atoms: O_2  and  C_3
REMARK    3  A    between atoms: C_6  and  C_9
REMARK    4  A    between atoms: C_9  and  C_11
REMARK    5  A    between atoms: C_9  and  C_28
REMARK    6  A    between atoms: C_11  and  N_12
REMARK    7  A    between atoms: C_13  and  C_15
REMARK    8  A    between atoms: C_15  and  C_16
REMARK    9  A    between atoms: C_16  and  C_17
REMARK   10  A    between atoms: C_17  and  C_18
REMARK                            x       y       z     vdW  Elec       q    Type
REMARK                         _______ _______ _______ _____ _____    ______ ____
ROOT
ATOM      1  C   UNL     1       2.587  -2.550   4.310  0.00  0.00    +0.068 C 
ENDROOT
BRANCH   1   2
ATOM      2  C   UNL     1       1.604  -3.434   5.035  0.00  0.00    -0.013 A 
ATOM      3  C   UNL     1       0.930  -4.472   4.515  0.00  0.00    +0.088 A 
ATOM      4  N   UNL     1       0.130  -5.035   5.472  0.00  0.00    -0.360 N 
ATOM      5  H   UNL     1      -0.451  -5.799   5.333  0.00  0.00    +0.165 HD
ATOM      6  C   UNL     1       0.274  -4.356   6.661  0.00  0.00    +0.047 A 
ATOM      7  C   UNL     1       1.208  -3.327   6.441  0.00  0.00    +0.003 A 
ATOM      8  C   UNL     1       1.559  -2.470   7.485  0.00  0.00    +0.010 A 
ATOM      9  C   UNL     1       0.995  -2.637   8.719  0.00  0.00    +0.001 A 
ATOM     10  C   UNL     1       0.075  -3.652   8.942  0.00  0.00    +0.002 A 
ATOM     11  C   UNL     1      -0.292  -4.504   7.923  0.00  0.00    +0.026 A 
ENDBRANCH   1   2
BRANCH   1  15
ATOM     12  C   UNL     1       0.626  -0.618   1.042  0.00  0.00    +0.120 A 
ATOM     13  C   UNL     1       1.202   0.138   2.051  0.00  0.00    +0.046 A 
ATOM     14  C   UNL     1       1.835  -0.488   3.107  0.00  0.00    +0.008 A 
ATOM     15  C   UNL     1       1.895  -1.869   3.158  0.00  0.00    -0.038 A 
ATOM     16  C   UNL     1       1.322  -2.625   2.152  0.00  0.00    +0.008 A 
ATOM     17  C   UNL     1       0.682  -2.003   1.098  0.00  0.00    +0.046 A 
BRANCH  12  19
ATOM     18  C   UNL     1      -0.017   1.425   0.010  0.00  0.00    +0.277 C 
ATOM     19  O   UNL     1       0.002  -0.004   0.002  0.00  0.00    -0.495 OA
ENDBRANCH  12  19
ENDBRANCH   1  15
BRANCH   1  20
ATOM     20  C   UNL     1       3.743  -3.400   3.781  0.00  0.00    +0.117 C 
BRANCH  20  21
ATOM     21  N   UNL     1       4.489  -3.967   4.907  0.00  0.00    -0.314 N 
ATOM     22  C   UNL     1       5.557  -4.756   4.680  0.00  0.00    +0.213 C 
ATOM     23  O   UNL     1       5.902  -4.997   3.542  0.00  0.00    -0.276 OA
ATOM     24  H   UNL     1       4.213  -3.774   5.817  0.00  0.00    +0.149 HD
BRANCH  22  25
ATOM     25  C   UNL     1       6.324  -5.339   5.839  0.00  0.00    +0.096 C 
BRANCH  25  26
ATOM     26  C   UNL     1       7.481  -6.189   5.309  0.00  0.00    +0.014 C 
BRANCH  26  27
ATOM     27  C   UNL     1       8.259  -6.781   6.486  0.00  0.00    +0.038 C 
BRANCH  27  28
ATOM     28  C   UNL     1       9.398  -7.618   5.964  0.00  0.00    -0.022 A 
ATOM     29  C   UNL     1       9.386  -8.945   5.760  0.00  0.00    +0.087 A 
ATOM     30  N   UNL     1      10.600  -9.355   5.280  0.00  0.00    -0.360 N 
ATOM     31  H   UNL     1      10.830 -10.270   5.056  0.00  0.00    +0.165 HD
ATOM     32  C   UNL     1      11.445  -8.274   5.161  0.00  0.00    +0.047 A 
ATOM     33  C   UNL     1      10.727  -7.138   5.578  0.00  0.00    +0.003 A 
ATOM     34  C   UNL     1      11.338  -5.883   5.559  0.00  0.00    +0.010 A 
ATOM     35  C   UNL     1      12.630  -5.764   5.131  0.00  0.00    +0.001 A 
ATOM     36  C   UNL     1      13.341  -6.881   4.714  0.00  0.00    +0.002 A 
ATOM     37  C   UNL     1      12.761  -8.130   4.734  0.00  0.00    +0.026 A 
ENDBRANCH  27  28
ENDBRANCH  26  27
ENDBRANCH  25  26
ENDBRANCH  22  25
ENDBRANCH  20  21
ENDBRANCH   1  20
TORSDOF 9
