REMARK  Name = ZINC22924955
REMARK  9 active torsions:
REMARK  status: ('A' for Active; 'I' for Inactive)
REMARK    1  A    between atoms: C_4  and  C_7
REMARK    2  A    between atoms: C_7  and  C_8
REMARK    3  A    between atoms: C_7  and  N_14
REMARK    4  A    between atoms: N_17  and  C_20
REMARK    5  A    between atoms: C_20  and  C_21
REMARK    6  A    between atoms: C_21  and  C_23
REMARK    7  A    between atoms: C_21  and  O_38
REMARK    8  A    between atoms: C_23  and  O_24
REMARK    9  A    between atoms: O_24  and  C_25
REMARK                            x       y       z     vdW  Elec       q    Type
REMARK                         _______ _______ _______ _____ _____    ______ ____
ROOT
ATOM      1  N   UNL     1      -1.372   2.487  -1.315  0.00  0.00    +0.389 N 
ATOM      2  C   UNL     1      -1.316   1.031  -1.123  0.00  0.00    -0.062 C 
ATOM      3  C   UNL     1      -0.389   0.709   0.051  0.00  0.00    +0.066 C 
ATOM      4  N   UNL     1      -0.885   1.377   1.262  0.00  0.00    -0.303 NA
ATOM      5  C   UNL     1      -0.941   2.833   1.070  0.00  0.00    +0.066 C 
ATOM      6  C   UNL     1      -1.868   3.156  -0.104  0.00  0.00    -0.062 C 
ATOM      7  H   UNL     1      -0.349   2.844  -1.505  0.00  0.00    -0.080 HD
ENDROOT
BRANCH   1   8
ATOM      8  C   UNL     1      -2.193   2.834  -2.482  0.00  0.00    -0.007 C 
BRANCH   8  12
ATOM      9  C   UNL     1      -2.288   7.079  -2.946  0.00  0.00    +0.000 A 
ATOM     10  C   UNL     1      -3.433   6.335  -3.159  0.00  0.00    +0.000 A 
ATOM     11  C   UNL     1      -3.402   4.961  -3.009  0.00  0.00    +0.002 A 
ATOM     12  C   UNL     1      -2.227   4.332  -2.646  0.00  0.00    -0.057 A 
ATOM     13  C   UNL     1      -1.083   5.076  -2.428  0.00  0.00    +0.002 A 
ATOM     14  C   UNL     1      -1.112   6.450  -2.583  0.00  0.00    +0.000 A 
ENDBRANCH   8  12
BRANCH   8  15
ATOM     15  C   UNL     1      -1.601   2.206  -3.717  0.00  0.00    -0.057 A 
ATOM     16  C   UNL     1      -0.230   2.188  -3.894  0.00  0.00    +0.002 A 
ATOM     17  C   UNL     1       0.313   1.608  -5.025  0.00  0.00    +0.000 A 
ATOM     18  C   UNL     1      -0.515   1.056  -5.984  0.00  0.00    +0.000 A 
ATOM     19  C   UNL     1      -1.886   1.079  -5.810  0.00  0.00    +0.000 A 
ATOM     20  C   UNL     1      -2.429   1.654  -4.677  0.00  0.00    +0.002 A 
ENDBRANCH   8  15
ENDBRANCH   1   8
BRANCH   4  21
ATOM     21  C   UNL     1      -0.062   1.031   2.429  0.00  0.00    +0.119 C 
BRANCH  21  22
ATOM     22  C   UNL     1      -0.548   1.819   3.647  0.00  0.00    +0.166 C 
BRANCH  22  23
ATOM     23  O   UNL     1      -1.919   1.508   3.900  0.00  0.00    -0.387 OA
ATOM     24  H   UNL     1      -2.444   1.982   4.742  0.00  0.00    +0.210 HD
ENDBRANCH  22  23
BRANCH  22  25
ATOM     25  C   UNL     1       0.294   1.441   4.867  0.00  0.00    +0.261 C 
BRANCH  25  26
ATOM     26  O   UNL     1      -0.080   2.261   5.976  0.00  0.00    -0.489 OA
BRANCH  26  27
ATOM     27  C   UNL     1       0.577   2.052   7.148  0.00  0.00    +0.121 A 
ATOM     28  C   UNL     1       1.561   1.072   7.228  0.00  0.00    +0.049 A 
ATOM     29  C   UNL     1       2.238   0.854   8.409  0.00  0.00    +0.050 A 
ATOM     30  C   UNL     1       1.935   1.607   9.537  0.00  0.00    +0.136 A 
ATOM     31  C   UNL     1       0.940   2.591   9.457  0.00  0.00    +0.031 A 
ATOM     32  C   UNL     1       0.264   2.810   8.262  0.00  0.00    +0.058 A 
ATOM     33  C   UNL     1       0.867   3.195  10.802  0.00  0.00    +0.028 A 
ATOM     34  C   UNL     1       0.095   4.204  11.367  0.00  0.00    +0.012 A 
ATOM     35  C   UNL     1       0.274   4.542  12.693  0.00  0.00    +0.001 A 
ATOM     36  C   UNL     1       1.220   3.878  13.458  0.00  0.00    +0.004 A 
ATOM     37  C   UNL     1       1.991   2.876  12.907  0.00  0.00    +0.047 A 
ATOM     38  C   UNL     1       1.824   2.522  11.573  0.00  0.00    +0.136 A 
ATOM     39  O   UNL     1       2.430   1.598  10.795  0.00  0.00    -0.455 OA
ENDBRANCH  26  27
ENDBRANCH  25  26
ENDBRANCH  22  25
ENDBRANCH  21  22
ENDBRANCH   4  21
TORSDOF 9
