REMARK  Name = ZINC59147247
REMARK  7 active torsions:
REMARK  status: ('A' for Active; 'I' for Inactive)
REMARK    1  A    between atoms: C_1  and  C_2
REMARK    2  A    between atoms: C_5  and  S_8
REMARK    3  A    between atoms: S_8  and  O_11
REMARK    4  A    between atoms: O_11  and  C_12
REMARK    5  A    between atoms: C_17  and  C_18
REMARK    6  A    between atoms: N_19  and  N_20
REMARK    7  A    between atoms: C_21  and  C_23
REMARK                            x       y       z     vdW  Elec       q    Type
REMARK                         _______ _______ _______ _____ _____    ______ ____
ROOT
ATOM      1  C   UNL     1       2.150  -4.816   1.162  0.00  0.00    +0.165 A 
ATOM      2  C   UNL     1       2.792  -3.629   1.471  0.00  0.00    +0.049 A 
ATOM      3  C   UNL     1       3.430  -3.482   2.689  0.00  0.00    +0.004 A 
ATOM      4  C   UNL     1       3.432  -4.518   3.607  0.00  0.00    +0.001 A 
ATOM      5  C   UNL     1       2.798  -5.707   3.316  0.00  0.00    +0.013 A 
ATOM      6  C   UNL     1       2.145  -5.866   2.092  0.00  0.00    +0.039 A 
ENDROOT
BRANCH   6   7
ATOM      7  C   UNL     1       1.460  -7.132   1.776  0.00  0.00    +0.142 C 
ATOM      8  N   UNL     1       0.858  -7.277   0.634  0.00  0.00    -0.187 NA
BRANCH   8   9
ATOM      9  N   UNL     1       0.207  -8.481   0.335  0.00  0.00    -0.201 N 
ATOM     10  C   UNL     1      -0.417  -8.632  -0.850  0.00  0.00    +0.288 C 
ATOM     11  O   UNL     1      -0.415  -7.724  -1.659  0.00  0.00    -0.266 OA
ATOM     12  H   UNL     1       0.205  -9.205   0.980  0.00  0.00    +0.178 HD
BRANCH  10  13
ATOM     13  C   UNL     1      -1.104  -9.901  -1.167  0.00  0.00    +0.166 A 
ATOM     14  N   UNL     1      -1.220 -10.983  -0.429  0.00  0.00    -0.234 NA
ATOM     15  C   UNL     1      -1.876 -12.073  -0.840  0.00  0.00    +0.079 A 
ATOM     16  C   UNL     1      -2.070 -13.294  -0.145  0.00  0.00    +0.029 A 
ATOM     17  C   UNL     1      -2.767 -14.313  -0.711  0.00  0.00    +0.002 A 
ATOM     18  C   UNL     1      -3.315 -14.207  -1.983  0.00  0.00    +0.001 A 
ATOM     19  C   UNL     1      -3.151 -13.036  -2.697  0.00  0.00    +0.017 A 
ATOM     20  C   UNL     1      -2.447 -11.996  -2.136  0.00  0.00    +0.040 A 
ATOM     21  S   UNL     1      -1.997 -10.356  -2.647  0.00  0.00    -0.063 S 
ENDBRANCH  10  13
ENDBRANCH   8   9
ENDBRANCH   6   7
BRANCH   1  22
ATOM     22  O   UNL     1       1.522  -4.962  -0.033  0.00  0.00    -0.342 OA
BRANCH  22  23
ATOM     23  S   UNL     1       0.063  -4.530  -0.023  0.00  0.00    +0.151 S 
ATOM     24  O   UNL     1      -0.476  -4.950   1.223  0.00  0.00    -0.131 OA
ATOM     25  O   UNL     1      -0.490  -4.937  -1.267  0.00  0.00    -0.131 OA
BRANCH  23  30
ATOM     26  C   UNL     1      -0.018   1.503   0.010  0.00  0.00    +0.044 C 
ATOM     27  C   UNL     1       0.002  -0.004   0.002  0.00  0.00    -0.050 A 
ATOM     28  C   UNL     1       0.006  -0.689  -1.199  0.00  0.00    +0.005 A 
ATOM     29  C   UNL     1       0.025  -2.071  -1.206  0.00  0.00    +0.031 A 
ATOM     30  C   UNL     1       0.040  -2.768  -0.013  0.00  0.00    +0.128 A 
ATOM     31  C   UNL     1       0.037  -2.084   1.188  0.00  0.00    +0.031 A 
ATOM     32  C   UNL     1       0.023  -0.702   1.195  0.00  0.00    +0.005 A 
ENDBRANCH  23  30
ENDBRANCH  22  23
ENDBRANCH   1  22
TORSDOF 6
