REMARK  Name = ZINC66360035
REMARK  8 active torsions:
REMARK  status: ('A' for Active; 'I' for Inactive)
REMARK    1  A    between atoms: C_1  and  C_2
REMARK    2  A    between atoms: C_2  and  C_3
REMARK    3  A    between atoms: N_12  and  C_13
REMARK    4  A    between atoms: C_13  and  C_14
REMARK    5  A    between atoms: C_14  and  N_15
REMARK    6  A    between atoms: N_15  and  S_16
REMARK    7  A    between atoms: S_16  and  C_19
REMARK    8  A    between atoms: C_22  and  N_25
REMARK                            x       y       z     vdW  Elec       q    Type
REMARK                         _______ _______ _______ _____ _____    ______ ____
ROOT
ATOM      1  C   UNL     1      -3.617   2.278  -4.605  0.00  0.00    +0.124 C 
ENDROOT
BRANCH   1   2
ATOM      2  N   UNL     1      -4.861   3.036  -4.445  0.00  0.00    -0.188 NA
ATOM      3  H   UNL     1      -5.284   3.094  -3.574  0.00  0.00    +0.148 HD
BRANCH   2   4
ATOM      4  S   UNL     1      -5.544   3.793  -5.750  0.00  0.00    +0.058 S 
ATOM      5  O   UNL     1      -6.736   4.410  -5.283  0.00  0.00    -0.153 OA
ATOM      6  O   UNL     1      -4.505   4.526  -6.384  0.00  0.00    -0.153 OA
BRANCH   4   7
ATOM      7  C   UNL     1      -6.037   2.536  -6.881  0.00  0.00    +0.105 A 
ATOM      8  C   UNL     1      -5.156   2.095  -7.851  0.00  0.00    +0.031 A 
ATOM      9  C   UNL     1      -5.543   1.108  -8.739  0.00  0.00    +0.034 A 
ATOM     10  C   UNL     1      -6.811   0.563  -8.657  0.00  0.00    +0.126 A 
ATOM     11  C   UNL     1      -7.692   1.004  -7.687  0.00  0.00    +0.034 A 
ATOM     12  C   UNL     1      -7.303   1.987  -6.796  0.00  0.00    +0.031 A 
BRANCH  10  13
ATOM     13  N   UNL     1      -7.226  -0.492  -9.609  0.00  0.00    +0.056 N 
ATOM     14  O   UNL     1      -6.456  -0.877 -10.457  0.00  0.00    -0.126 OA
ATOM     15  O   UNL     1      -8.335  -0.968  -9.537  0.00  0.00    -0.126 OA
ENDBRANCH  10  13
ENDBRANCH   4   7
ENDBRANCH   2   4
ENDBRANCH   1   2
BRANCH   1  16
ATOM     16  C   UNL     1      -3.006   2.003  -3.230  0.00  0.00    +0.122 C 
BRANCH  16  25
ATOM     17  C   UNL     1       0.763  -0.391  -1.266  0.00  0.00    +0.077 C 
ATOM     18  C   UNL     1       0.884  -1.915  -1.362  0.00  0.00    +0.022 C 
ATOM     19  C   UNL     1       1.532  -2.289  -2.697  0.00  0.00    +0.003 C 
ATOM     20  C   UNL     1       0.649  -1.801  -3.849  0.00  0.00    +0.019 C 
ATOM     21  C   UNL     1       0.525  -0.275  -3.781  0.00  0.00    +0.109 C 
ATOM     22  N   UNL     1       0.041   0.104  -2.446  0.00  0.00    -0.283 N 
ATOM     23  C   UNL     1      -1.047   0.887  -2.307  0.00  0.00    +0.302 C 
ATOM     24  O   UNL     1      -1.382   1.272  -1.203  0.00  0.00    -0.253 OA
ATOM     25  N   UNL     1      -1.763   1.245  -3.391  0.00  0.00    -0.298 N 
ATOM     26  H   UNL     1      -1.455   1.001  -4.278  0.00  0.00    +0.150 HD
BRANCH  17  28
ATOM     27  C   UNL     1       0.724  -0.571   1.226  0.00  0.00    +0.006 C 
ATOM     28  C   UNL     1      -0.008  -0.017   0.002  0.00  0.00    +0.019 C 
ENDBRANCH  17  28
ENDBRANCH  16  25
ENDBRANCH   1  16
TORSDOF 7
