REMARK  Name = ZINC66536000
REMARK  6 active torsions:
REMARK  status: ('A' for Active; 'I' for Inactive)
REMARK    1  A    between atoms: N_4  and  C_6
REMARK    2  A    between atoms: C_6  and  C_7
REMARK    3  A    between atoms: N_12  and  C_13
REMARK    4  A    between atoms: C_13  and  C_14
REMARK    5  A    between atoms: N_16  and  C_17
REMARK    6  A    between atoms: C_20  and  C_23
REMARK                            x       y       z     vdW  Elec       q    Type
REMARK                         _______ _______ _______ _____ _____    ______ ____
ROOT
ATOM      1  C   UNL     1       0.280  -2.831  -2.265  0.00  0.00    +0.019 C 
ENDROOT
BRANCH   1   6
ATOM      2  C   UNL     1       0.921  -2.814   0.054  0.00  0.00    -0.085 C 
ATOM      3  C   UNL     1       1.262  -4.131   0.783  0.00  0.00    -0.019 C 
ATOM      4  C   UNL     1       1.416  -5.145  -0.381  0.00  0.00    -0.020 C 
ATOM      5  C   UNL     1       2.058  -4.263  -1.481  0.00  0.00    -0.078 C 
ATOM      6  N   UNL     1       1.409  -2.939  -1.332  0.00  0.00    +0.386 N 
ATOM      7  H   UNL     1       2.078  -2.209  -1.524  0.00  0.00    -0.081 HD
BRANCH   2   8
ATOM      8  C   UNL     1       1.618  -1.641   0.747  0.00  0.00    -0.094 C 
BRANCH   8  12
ATOM      9  C   UNL     1      -0.019   1.536   0.011  0.00  0.00    -0.020 C 
ATOM     10  C   UNL     1       1.468   1.960  -0.001  0.00  0.00    -0.020 C 
ATOM     11  C   UNL     1       2.191   0.705   0.550  0.00  0.00    -0.079 C 
ATOM     12  N   UNL     1       1.421  -0.418  -0.044  0.00  0.00    +0.379 N 
ATOM     13  C   UNL     1       0.002  -0.004   0.002  0.00  0.00    -0.079 C 
ATOM     14  H   UNL     1       1.708  -0.571  -0.999  0.00  0.00    -0.082 HD
ENDBRANCH   8  12
ENDBRANCH   2   8
ENDBRANCH   1   6
BRANCH   1  15
ATOM     15  C   UNL     1       0.796  -2.836  -3.681  0.00  0.00    +0.197 C 
ATOM     16  O   UNL     1       1.987  -2.922  -3.892  0.00  0.00    -0.278 OA
ATOM     17  N   UNL     1      -0.066  -2.745  -4.713  0.00  0.00    -0.314 N 
ATOM     18  H   UNL     1      -1.019  -2.677  -4.544  0.00  0.00    +0.149 HD
BRANCH  17  19
ATOM     19  C   UNL     1       0.435  -2.751  -6.089  0.00  0.00    +0.073 C 
ATOM     20  C   UNL     1       0.837  -1.330  -6.491  0.00  0.00    +0.023 C 
ATOM     21  C   UNL     1       1.361  -1.336  -7.928  0.00  0.00    +0.014 C 
ATOM     22  C   UNL     1       0.265  -1.841  -8.869  0.00  0.00    +0.093 C 
ATOM     23  C   UNL     1      -0.137  -3.262  -8.467  0.00  0.00    +0.014 C 
ATOM     24  C   UNL     1      -0.660  -3.256  -7.029  0.00  0.00    +0.023 C 
BRANCH  22  25
ATOM     25  C   UNL     1       0.789  -1.847 -10.306  0.00  0.00    +0.393 C 
ATOM     26  F   UNL     1       1.903  -2.688 -10.393  0.00  0.00    -0.170 F 
ATOM     27  F   UNL     1      -0.213  -2.309 -11.166  0.00  0.00    -0.170 F 
ATOM     28  F   UNL     1       1.156  -0.547 -10.674  0.00  0.00    -0.170 F 
ENDBRANCH  22  25
ENDBRANCH  17  19
ENDBRANCH   1  15
TORSDOF 6
