REMARK  Name = ZINC21232454
REMARK  6 active torsions:
REMARK  status: ('A' for Active; 'I' for Inactive)
REMARK    1  A    between atoms: C_1  and  C_2
REMARK    2  A    between atoms: C_2  and  C_3
REMARK    3  A    between atoms: C_3  and  O_4
REMARK    4  A    between atoms: O_4  and  C_5
REMARK    5  A    between atoms: C_8  and  C_11
REMARK    6  A    between atoms: C_16  and  C_26
REMARK                            x       y       z     vdW  Elec       q    Type
REMARK                         _______ _______ _______ _____ _____    ______ ____
ROOT
ATOM      1  C   UNL     1       3.804  -1.578  -2.800  0.00  0.00    +0.032 C 
ATOM      2  C   UNL     1       3.291  -1.741  -1.371  0.00  0.00    +0.059 C 
ATOM      3  C   UNL     1       2.486  -0.517  -0.965  0.00  0.00    +0.017 C 
ATOM      4  C   UNL     1       2.801   0.695  -1.452  0.00  0.00    +0.036 C 
ATOM      5  C   UNL     1       2.088   1.989  -1.135  0.00  0.00    +0.137 C 
ATOM      6  N   UNL     1       1.154   1.903  -0.032  0.00  0.00    -0.331 N 
ATOM      7  C   UNL     1       0.020   1.099  -0.115  0.00  0.00    +0.049 A 
ATOM      8  C   UNL     1      -1.253   1.647  -0.136  0.00  0.00    +0.025 A 
ATOM      9  C   UNL     1      -2.350   0.816  -0.285  0.00  0.00    +0.002 A 
ATOM     10  C   UNL     1      -2.181  -0.550  -0.414  0.00  0.00    +0.002 A 
ATOM     11  C   UNL     1      -0.912  -1.103  -0.376  0.00  0.00    +0.025 A 
ATOM     12  C   UNL     1       0.183  -0.275  -0.207  0.00  0.00    +0.052 A 
ATOM     13  N   UNL     1       1.479  -0.767  -0.090  0.00  0.00    -0.316 N 
ATOM     14  C   UNL     1       3.877   0.843  -2.359  0.00  0.00    +0.163 C 
ATOM     15  O   UNL     1       4.154   1.955  -2.763  0.00  0.00    -0.292 OA
ATOM     16  C   UNL     1       4.686  -0.324  -2.840  0.00  0.00    +0.088 C 
ATOM     17  H   UNL     1       1.335   2.479   0.887  0.00  0.00    +0.147 HD
ATOM     18  H   UNL     1       1.659  -1.403   0.789  0.00  0.00    +0.152 HD
ENDROOT
BRANCH   5  19
ATOM     19  C   UNL     1       1.334   2.432  -2.362  0.00  0.00    -0.009 A 
ATOM     20  C   UNL     1       1.082   1.533  -3.381  0.00  0.00    +0.007 A 
ATOM     21  C   UNL     1       0.390   1.939  -4.507  0.00  0.00    +0.000 A 
ATOM     22  C   UNL     1      -0.050   3.245  -4.614  0.00  0.00    +0.001 A 
ATOM     23  C   UNL     1       0.202   4.145  -3.596  0.00  0.00    +0.015 A 
ATOM     24  C   UNL     1       0.890   3.738  -2.467  0.00  0.00    +0.023 A 
ATOM     25 BR   UNL     1       1.229   4.967  -1.071  0.00  0.00    -0.050 Br
ENDBRANCH   5  19
BRANCH   1  29
ATOM     26  C   UNL     1       6.106  -5.003  -3.913  0.00  0.00    +0.121 A 
ATOM     27  C   UNL     1       4.970  -4.665  -4.633  0.00  0.00    +0.046 A 
ATOM     28  C   UNL     1       4.227  -3.558  -4.272  0.00  0.00    +0.007 A 
ATOM     29  C   UNL     1       4.616  -2.786  -3.193  0.00  0.00    -0.043 A 
ATOM     30  C   UNL     1       5.751  -3.117  -2.476  0.00  0.00    +0.007 A 
ATOM     31  C   UNL     1       6.494  -4.226  -2.830  0.00  0.00    +0.046 A 
BRANCH  26  32
ATOM     32  O   UNL     1       6.838  -6.092  -4.266  0.00  0.00    -0.492 OA
BRANCH  32  33
ATOM     33  C   UNL     1       7.995  -6.379  -3.478  0.00  0.00    +0.229 C 
BRANCH  33  35
ATOM     34  C   UNL     1       9.924  -7.939  -3.180  0.00  0.00    +0.007 C 
ATOM     35  C   UNL     1       8.685  -7.631  -4.023  0.00  0.00    +0.038 C 
ENDBRANCH  33  35
ENDBRANCH  32  33
ENDBRANCH  26  32
ENDBRANCH   1  29
TORSDOF 5
