REMARK  Name = ZINC16526154
REMARK  2 active torsions:
REMARK  status: ('A' for Active; 'I' for Inactive)
REMARK    1  A    between atoms: N_14  and  S_15
REMARK    2  A    between atoms: S_15  and  C_18
REMARK                            x       y       z     vdW  Elec       q    Type
REMARK                         _______ _______ _______ _____ _____    ______ ____
ROOT
ATOM      1  C   UNL     1       4.558  -3.288  -8.435  0.00  0.00    +0.001 A 
ATOM      2  C   UNL     1       3.351  -3.744  -7.912  0.00  0.00    +0.001 A 
ATOM      3  C   UNL     1       3.024  -3.517  -6.607  0.00  0.00    +0.010 A 
ATOM      4  C   UNL     1       3.915  -2.817  -5.785  0.00  0.00    +0.009 A 
ATOM      5  C   UNL     1       5.140  -2.352  -6.310  0.00  0.00    -0.016 A 
ATOM      6  C   UNL     1       5.444  -2.602  -7.661  0.00  0.00    +0.008 A 
ATOM      7  C   UNL     1       6.044  -1.646  -5.491  0.00  0.00    +0.010 A 
ATOM      8  C   UNL     1       5.738  -1.410  -4.187  0.00  0.00    +0.018 A 
ATOM      9  C   UNL     1       4.548  -1.849  -3.638  0.00  0.00    +0.041 A 
ATOM     10  C   UNL     1       3.581  -2.561  -4.370  0.00  0.00    +0.088 A 
ATOM     11  N   UNL     1       2.473  -2.918  -3.694  0.00  0.00    -0.223 NA
ATOM     12  C   UNL     1       2.296  -2.625  -2.424  0.00  0.00    +0.179 A 
ATOM     13  S   UNL     1       3.796  -1.737  -2.030  0.00  0.00    -0.051 S 
ATOM     14  N   UNL     1       1.223  -2.922  -1.606  0.00  0.00    -0.194 N 
ATOM     15  H   UNL     1       0.465  -3.413  -1.960  0.00  0.00    +0.176 HD
ENDROOT
BRANCH  14  16
ATOM     16  S   UNL     1       1.232  -2.441  -0.022  0.00  0.00    +0.074 S 
ATOM     17  O   UNL     1       2.487  -2.833   0.515  0.00  0.00    -0.150 OA
ATOM     18  O   UNL     1      -0.003  -2.866   0.538  0.00  0.00    -0.150 OA
BRANCH  16  19
ATOM     19  C   UNL     1       1.208  -0.679  -0.013  0.00  0.00    +0.109 A 
ATOM     20  C   UNL     1       0.002  -0.004   0.002  0.00  0.00    +0.030 A 
ATOM     21  C   UNL     1      -0.017   1.378   0.010  0.00  0.00    +0.017 A 
ATOM     22  C   UNL     1       1.172   2.086   0.002  0.00  0.00    +0.018 A 
ATOM     23  C   UNL     1       2.379   1.410  -0.013  0.00  0.00    +0.017 A 
ATOM     24  C   UNL     1       2.396   0.028  -0.021  0.00  0.00    +0.030 A 
ATOM     25 BR   UNL     1       1.147   3.976   0.013  0.00  0.00    -0.050 Br
ENDBRANCH  16  19
ENDBRANCH  14  16
TORSDOF 2
