REMARK  Name = ZINC32716610
REMARK  7 active torsions:
REMARK  status: ('A' for Active; 'I' for Inactive)
REMARK    1  A    between atoms: C_1  and  O_2
REMARK    2  A    between atoms: O_2  and  C_3
REMARK    3  A    between atoms: C_3  and  C_5
REMARK    4  A    between atoms: C_5  and  C_7
REMARK    5  A    between atoms: C_5  and  N_18
REMARK    6  A    between atoms: C_7  and  C_8
REMARK    7  A    between atoms: C_19  and  C_21
REMARK                            x       y       z     vdW  Elec       q    Type
REMARK                         _______ _______ _______ _____ _____    ______ ____
ROOT
ATOM      1  C   UNL     1       4.246  -4.534   4.784  0.00  0.00    +0.186 C 
ENDROOT
BRANCH   1   2
ATOM      2  N   UNL     1       3.332  -3.861   3.857  0.00  0.00    -0.298 N 
ATOM      3  C   UNL     1       3.508  -2.558   3.563  0.00  0.00    +0.245 C 
ATOM      4  O   UNL     1       4.425  -1.940   4.069  0.00  0.00    -0.270 OA
ATOM      5  H   UNL     1       2.503  -4.421   3.400  0.00  0.00    +0.150 HD
BRANCH   3   6
ATOM      6  C   UNL     1       2.588  -1.881   2.629  0.00  0.00    +0.042 A 
ATOM      7  C   UNL     1       2.768  -0.529   2.324  0.00  0.00    +0.062 A 
ATOM      8  C   UNL     1       1.905   0.102   1.448  0.00  0.00    +0.164 A 
ATOM      9  C   UNL     1       0.858  -0.609   0.869  0.00  0.00    +0.180 A 
ATOM     10  C   UNL     1       0.677  -1.954   1.173  0.00  0.00    +0.087 A 
ATOM     11  C   UNL     1       1.534  -2.589   2.047  0.00  0.00    +0.037 A 
ATOM     12 CL   UNL     1      -0.632  -2.836   0.452  0.00  0.00    -0.080 Cl
ATOM     13  O   UNL     1       0.002  -0.004   0.002  0.00  0.00    -0.483 OA
ATOM     14  C   UNL     1      -0.017   1.427   0.010  0.00  0.00    +0.270 C 
ATOM     15  C   UNL     1       1.433   1.928  -0.001  0.00  0.00    +0.270 C 
ATOM     16  O   UNL     1       2.091   1.421   1.165  0.00  0.00    -0.485 OA
ENDBRANCH   3   6
ENDBRANCH   1   2
BRANCH   1  17
ATOM     17  C   UNL     1       5.460  -5.015   4.032  0.00  0.00    +0.328 C 
ATOM     18  O   UNL     1       5.553  -4.817   2.844  0.00  0.00    -0.249 OA
BRANCH  17  20
ATOM     19  C   UNL     1       7.578  -6.099   3.895  0.00  0.00    +0.280 C 
ATOM     20  O   UNL     1       6.438  -5.664   4.683  0.00  0.00    -0.467 OA
ENDBRANCH  17  20
ENDBRANCH   1  17
BRANCH   1  21
ATOM     21  C   UNL     1       3.535  -5.728   5.424  0.00  0.00    +0.071 C 
BRANCH  21  22
ATOM     22  C   UNL     1       2.393  -5.236   6.276  0.00  0.00    -0.020 A 
ATOM     23  C   UNL     1       2.426  -5.001   7.597  0.00  0.00    +0.087 A 
ATOM     24  N   UNL     1       1.202  -4.563   8.023  0.00  0.00    -0.360 N 
ATOM     25  H   UNL     1       1.044  -4.320   9.085  0.00  0.00    +0.165 HD
ATOM     26  C   UNL     1       0.330  -4.503   6.960  0.00  0.00    +0.047 A 
ATOM     27  C   UNL     1       1.039  -4.916   5.817  0.00  0.00    +0.003 A 
ATOM     28  C   UNL     1       0.398  -4.962   4.578  0.00  0.00    +0.010 A 
ATOM     29  C   UNL     1      -0.915  -4.595   4.479  0.00  0.00    +0.001 A 
ATOM     30  C   UNL     1      -1.617  -4.181   5.603  0.00  0.00    +0.002 A 
ATOM     31  C   UNL     1      -1.005  -4.133   6.836  0.00  0.00    +0.026 A 
ENDBRANCH  21  22
ENDBRANCH   1  21
TORSDOF 6
