REMARK  Name = ZINC66491902
REMARK  4 active torsions:
REMARK  status: ('A' for Active; 'I' for Inactive)
REMARK    1  A    between atoms: C_7  and  N_25
REMARK    2  A    between atoms: C_9  and  C_11
REMARK    3  A    between atoms: C_11  and  N_12
REMARK    4  A    between atoms: N_15  and  C_18
REMARK                            x       y       z     vdW  Elec       q    Type
REMARK                         _______ _______ _______ _____ _____    ______ ____
ROOT
ATOM      1  C   UNL     1       4.952  -2.612  -0.057  0.00  0.00    +0.160 C 
ENDROOT
BRANCH   1  10
ATOM      2  C   UNL     1      -0.016   1.360   0.009  0.00  0.00    +0.001 A 
ATOM      3  C   UNL     1       1.168   2.091   0.002  0.00  0.00    +0.002 A 
ATOM      4  C   UNL     1       2.380   1.466  -0.013  0.00  0.00    +0.028 A 
ATOM      5  C   UNL     1       2.436   0.065  -0.021  0.00  0.00    +0.076 A 
ATOM      6  C   UNL     1       1.229  -0.676  -0.013  0.00  0.00    +0.040 A 
ATOM      7  C   UNL     1       0.002  -0.004   0.002  0.00  0.00    +0.013 A 
ATOM      8  C   UNL     1       1.313  -2.090  -0.021  0.00  0.00    +0.127 A 
ATOM      9  N   UNL     1       2.518  -2.646  -0.035  0.00  0.00    -0.216 NA
ATOM     10  C   UNL     1       3.618  -1.911  -0.042  0.00  0.00    +0.146 A 
ATOM     11  N   UNL     1       3.600  -0.599  -0.035  0.00  0.00    -0.231 NA
BRANCH   8  12
ATOM     12  N   UNL     1       0.175  -2.867  -0.014  0.00  0.00    -0.343 N 
ATOM     13  H   UNL     1      -0.699  -2.447  -0.003  0.00  0.00    +0.144 HD
ATOM     14  H   UNL     1       0.248  -3.834  -0.019  0.00  0.00    +0.144 HD
ENDBRANCH   8  12
ENDBRANCH   1  10
BRANCH   1  15
ATOM     15  N   UNL     1       5.372  -2.834  -1.447  0.00  0.00    -0.299 NA
ATOM     16  C   UNL     1       4.476  -3.783  -2.124  0.00  0.00    +0.066 C 
ATOM     17  C   UNL     1       4.912  -3.940  -3.582  0.00  0.00    -0.062 C 
ATOM     18  N   UNL     1       6.297  -4.428  -3.629  0.00  0.00    +0.385 N 
ATOM     19  C   UNL     1       7.183  -3.459  -2.971  0.00  0.00    -0.062 C 
ATOM     20  C   UNL     1       6.766  -3.298  -1.508  0.00  0.00    +0.066 C 
ATOM     21  H   UNL     1       6.356  -5.316  -3.153  0.00  0.00    -0.081 HD
BRANCH  18  22
ATOM     22  C   UNL     1       6.709  -4.596  -5.029  0.00  0.00    -0.045 C 
ATOM     23  C   UNL     1       8.153  -5.099  -5.076  0.00  0.00    -0.011 C 
ATOM     24  C   UNL     1       8.476  -5.514  -6.517  0.00  0.00    +0.003 C 
ATOM     25  C   UNL     1       7.639  -6.746  -6.865  0.00  0.00    +0.027 C 
ATOM     26  C   UNL     1       6.201  -6.513  -6.504  0.00  0.00    -0.033 C 
ATOM     27  C   UNL     1       5.799  -5.583  -5.701  0.00  0.00    -0.046 C 
ENDBRANCH  18  22
ENDBRANCH   1  15
TORSDOF 4
