REMARK  Name = ZINC59718912
REMARK  11 active torsions:
REMARK  status: ('A' for Active; 'I' for Inactive)
REMARK    1  A    between atoms: C_1  and  C_2
REMARK    2  A    between atoms: C_5  and  N_8
REMARK    3  A    between atoms: C_9  and  C_24
REMARK    4  A    between atoms: N_11  and  C_17
REMARK    5  A    between atoms: C_13  and  C_14
REMARK    6  A    between atoms: C_14  and  C_16
REMARK    7  A    between atoms: C_27  and  O_32
REMARK    8  A    between atoms: C_28  and  O_30
REMARK    9  A    between atoms: O_30  and  C_31
REMARK   10  A    between atoms: O_32  and  C_33
REMARK   11  A    between atoms: C_33  and  C_34
REMARK                            x       y       z     vdW  Elec       q    Type
REMARK                         _______ _______ _______ _____ _____    ______ ____
ROOT
ATOM      1  N   UNL     1      -0.294  -4.281  -0.065  0.00  0.00    -0.256 N 
ATOM      2  C   UNL     1      -0.162  -5.123   1.136  0.00  0.00    +0.221 C 
ATOM      3  N   UNL     1       0.338  -6.409   0.621  0.00  0.00    -0.197 N 
ATOM      4  N   UNL     1       0.464  -6.260  -0.765  0.00  0.00    -0.158 NA
ATOM      5  C   UNL     1       0.104  -5.071  -1.150  0.00  0.00    +0.188 C 
ENDROOT
BRANCH   1  10
ATOM      6  C   UNL     1      -2.091   1.094  -0.258  0.00  0.00    +0.044 C 
ATOM      7  C   UNL     1      -1.613  -0.335  -0.207  0.00  0.00    -0.050 A 
ATOM      8  C   UNL     1      -2.516  -1.370  -0.367  0.00  0.00    +0.005 A 
ATOM      9  C   UNL     1      -2.082  -2.680  -0.321  0.00  0.00    +0.024 A 
ATOM     10  C   UNL     1      -0.737  -2.958  -0.113  0.00  0.00    +0.037 A 
ATOM     11  C   UNL     1       0.168  -1.915   0.048  0.00  0.00    +0.024 A 
ATOM     12  C   UNL     1      -0.272  -0.607  -0.006  0.00  0.00    +0.005 A 
ENDBRANCH   1  10
BRANCH   3  13
ATOM     13  C   UNL     1       0.630  -7.550   1.369  0.00  0.00    +0.054 A 
ATOM     14  C   UNL     1       0.585  -7.504   2.757  0.00  0.00    +0.026 A 
ATOM     15  C   UNL     1       0.874  -8.635   3.494  0.00  0.00    +0.022 A 
ATOM     16  C   UNL     1       1.209  -9.815   2.851  0.00  0.00    +0.041 A 
ATOM     17  C   UNL     1       1.255  -9.864   1.468  0.00  0.00    +0.022 A 
ATOM     18  C   UNL     1       0.962  -8.737   0.726  0.00  0.00    +0.026 A 
ATOM     19 CL   UNL     1       1.572 -11.235   3.781  0.00  0.00    -0.084 Cl
ENDBRANCH   3  13
BRANCH   2  20
ATOM     20  C   UNL     1      -1.501  -5.303   1.804  0.00  0.00    -0.003 A 
ATOM     21  C   UNL     1      -2.530  -5.929   1.127  0.00  0.00    +0.011 A 
ATOM     22  C   UNL     1      -3.760  -6.098   1.735  0.00  0.00    +0.050 A 
ATOM     23  C   UNL     1      -3.963  -5.638   3.026  0.00  0.00    +0.163 A 
ATOM     24  C   UNL     1      -2.926  -5.008   3.708  0.00  0.00    +0.162 A 
ATOM     25  C   UNL     1      -1.694  -4.848   3.094  0.00  0.00    +0.056 A 
BRANCH  24  26
ATOM     26  O   UNL     1      -3.120  -4.556   4.976  0.00  0.00    -0.491 OA
ATOM     27  C   UNL     1      -2.011  -3.920   5.614  0.00  0.00    +0.277 C 
ENDBRANCH  24  26
BRANCH  23  28
ATOM     28  O   UNL     1      -5.172  -5.802   3.626  0.00  0.00    -0.479 OA
BRANCH  28  29
ATOM     29  C   UNL     1      -6.190  -6.457   2.866  0.00  0.00    +0.324 C 
BRANCH  29  30
ATOM     30  C   UNL     1      -7.450  -6.548   3.688  0.00  0.00    +0.248 C 
ATOM     31  O   UNL     1      -7.475  -6.096   4.813  0.00  0.00    -0.272 OA
ATOM     32  N   UNL     1      -8.550  -7.131   3.171  0.00  0.00    -0.327 N 
ATOM     33  H   UNL     1      -8.531  -7.492   2.271  0.00  0.00    +0.145 HD
ATOM     34  H   UNL     1      -9.362  -7.189   3.700  0.00  0.00    +0.145 HD
ENDBRANCH  29  30
ENDBRANCH  28  29
ENDBRANCH  23  28
ENDBRANCH   2  20
BRANCH   5  35
ATOM     35  C   UNL     1       0.118  -4.629  -2.494  0.00  0.00    +0.194 C 
ATOM     36  O   UNL     1      -0.194  -3.486  -2.762  0.00  0.00    -0.289 OA
ATOM     37  C   UNL     1       0.520  -5.578  -3.595  0.00  0.00    +0.095 C 
ENDBRANCH   5  35
TORSDOF 8
