REMARK  Name = ZINC14457693
REMARK  6 active torsions:
REMARK  status: ('A' for Active; 'I' for Inactive)
REMARK    1  A    between atoms: C_1  and  C_2
REMARK    2  A    between atoms: C_5  and  N_27
REMARK    3  A    between atoms: C_9  and  C_18
REMARK    4  A    between atoms: C_19  and  C_26
REMARK    5  A    between atoms: C_21  and  C_25
REMARK    6  A    between atoms: C_23  and  C_24
REMARK                            x       y       z     vdW  Elec       q    Type
REMARK                         _______ _______ _______ _____ _____    ______ ____
ROOT
ATOM      1  C   UNL     1       3.405   3.242   0.119  0.00  0.00    +0.045 C 
ATOM      2  C   UNL     1       2.682   4.211  -0.780  0.00  0.00    -0.029 A 
ATOM      3  C   UNL     1       3.391   4.954  -1.700  0.00  0.00    +0.007 A 
ATOM      4  C   UNL     1       2.726   5.843  -2.524  0.00  0.00    +0.033 A 
ATOM      5  C   UNL     1       1.356   5.983  -2.427  0.00  0.00    +0.132 A 
ATOM      6  C   UNL     1       0.632   5.238  -1.506  0.00  0.00    +0.011 A 
ATOM      7  C   UNL     1       1.298   4.351  -0.678  0.00  0.00    +0.037 A 
ATOM      8  N   UNL     1       0.631   3.577   0.271  0.00  0.00    -0.336 N 
ATOM      9  C   UNL     1      -0.764   3.333  -0.096  0.00  0.00    +0.105 C 
ATOM     10  C   UNL     1      -1.486   4.672  -0.271  0.00  0.00    +0.029 C 
ATOM     11  C   UNL     1      -0.855   5.430  -1.458  0.00  0.00    +0.051 C 
ATOM     12  C   UNL     1      -1.510   4.819  -2.676  0.00  0.00    -0.023 C 
ATOM     13  C   UNL     1      -2.635   4.235  -2.347  0.00  0.00    -0.030 C 
ATOM     14  C   UNL     1      -2.894   4.380  -0.860  0.00  0.00    +0.033 C 
ATOM     15  H   UNL     1       0.696   3.993   1.188  0.00  0.00    +0.147 HD
ENDROOT
BRANCH   9  16
ATOM     16  C   UNL     1      -0.816   2.562  -1.390  0.00  0.00    -0.021 A 
ATOM     17  C   UNL     1      -2.027   2.101  -1.872  0.00  0.00    -0.045 A 
ATOM     18  C   UNL     1      -2.075   1.398  -3.061  0.00  0.00    +0.007 A 
ATOM     19  C   UNL     1      -0.911   1.147  -3.763  0.00  0.00    -0.050 A 
ATOM     20  C   UNL     1       0.300   1.604  -3.279  0.00  0.00    +0.007 A 
ATOM     21  C   UNL     1       0.348   2.311  -2.092  0.00  0.00    -0.045 A 
ATOM     22  C   UNL     1       1.669   2.808  -1.564  0.00  0.00    +0.044 C 
ATOM     23  C   UNL     1      -0.963   0.377  -5.057  0.00  0.00    +0.044 C 
ATOM     24  C   UNL     1      -3.295   2.370  -1.103  0.00  0.00    +0.044 C 
ENDBRANCH   9  16
BRANCH   5  25
ATOM     25  N   UNL     1       0.652   6.937  -3.313  0.00  0.00    +0.057 N 
ATOM     26  O   UNL     1       1.282   7.594  -4.123  0.00  0.00    -0.126 OA
ATOM     27  O   UNL     1      -0.556   7.065  -3.232  0.00  0.00    -0.126 OA
ENDBRANCH   5  25
TORSDOF 2
