REMARK  Name = ZINC17191678
REMARK  6 active torsions:
REMARK  status: ('A' for Active; 'I' for Inactive)
REMARK    1  A    between atoms: C_4  and  C_7
REMARK    2  A    between atoms: C_13  and  S_15
REMARK    3  A    between atoms: S_15  and  C_16
REMARK    4  A    between atoms: C_16  and  C_17
REMARK    5  A    between atoms: N_19  and  C_20
REMARK    6  A    between atoms: C_21  and  C_25
REMARK                            x       y       z     vdW  Elec       q    Type
REMARK                         _______ _______ _______ _____ _____    ______ ____
ROOT
ATOM      1  C   UNL     1      -2.482   0.853   0.018  0.00  0.00    +0.173 C 
ENDROOT
BRANCH   1   2
ATOM      2  C   UNL     1      -1.187   1.624   0.017  0.00  0.00    +0.230 C 
ATOM      3  O   UNL     1      -1.204   2.836   0.023  0.00  0.00    -0.274 OA
ATOM      4  N   UNL     1      -0.011   0.966   0.007  0.00  0.00    -0.253 N 
ATOM      5  H   UNL     1       0.002  -0.004   0.002  0.00  0.00    +0.158 HD
BRANCH   4   6
ATOM      6  C   UNL     1       1.178   1.674  -0.000  0.00  0.00    +0.232 A 
ATOM      7  C   UNL     1       2.463   1.151  -0.015  0.00  0.00    +0.064 A 
ATOM      8  C   UNL     1       3.290   2.306  -0.017  0.00  0.00    +0.167 A 
ATOM      9  N   UNL     1       2.489   3.332  -0.004  0.00  0.00    -0.084 NA
ATOM     10  O   UNL     1       1.325   3.008  -0.000  0.00  0.00    -0.339 OA
BRANCH   7  11
ATOM     11  C   UNL     1       2.875  -0.273  -0.026  0.00  0.00    -0.011 A 
ATOM     12  C   UNL     1       2.338  -1.164   0.902  0.00  0.00    +0.009 A 
ATOM     13  C   UNL     1       2.721  -2.490   0.883  0.00  0.00    +0.001 A 
ATOM     14  C   UNL     1       3.645  -2.933  -0.047  0.00  0.00    +0.000 A 
ATOM     15  C   UNL     1       4.185  -2.052  -0.967  0.00  0.00    +0.001 A 
ATOM     16  C   UNL     1       3.805  -0.725  -0.961  0.00  0.00    +0.009 A 
ENDBRANCH   7  11
ENDBRANCH   4   6
ENDBRANCH   1   2
BRANCH   1  17
ATOM     17  S   UNL     1      -3.874   2.010   0.031  0.00  0.00    -0.078 S 
BRANCH  17  24
ATOM     18  C   UNL     1      -5.962  -1.320   0.023  0.00  0.00    +0.079 A 
ATOM     19  C   UNL     1      -7.280  -0.888   0.032  0.00  0.00    +0.098 A 
ATOM     20  C   UNL     1      -7.537   0.491   0.041  0.00  0.00    +0.253 A 
ATOM     21  O   UNL     1      -8.684   0.908   0.049  0.00  0.00    -0.268 OA
ATOM     22  N   UNL     1      -6.495   1.347   0.040  0.00  0.00    -0.302 N 
ATOM     23  H   UNL     1      -6.655   2.304   0.046  0.00  0.00    +0.171 HD
ATOM     24  C   UNL     1      -5.218   0.872   0.032  0.00  0.00    +0.170 A 
ATOM     25  N   UNL     1      -4.968  -0.421   0.018  0.00  0.00    -0.223 NA
BRANCH  18  29
ATOM     26  C   UNL     1      -5.078  -5.478  -0.003  0.00  0.00    +0.000 A 
ATOM     27  C   UNL     1      -4.048  -4.554  -0.004  0.00  0.00    +0.001 A 
ATOM     28  C   UNL     1      -4.328  -3.203   0.005  0.00  0.00    +0.010 A 
ATOM     29  C   UNL     1      -5.654  -2.769   0.014  0.00  0.00    +0.001 A 
ATOM     30  C   UNL     1      -6.688  -3.705   0.020  0.00  0.00    +0.010 A 
ATOM     31  C   UNL     1      -6.394  -5.053   0.006  0.00  0.00    +0.001 A 
ENDBRANCH  18  29
ENDBRANCH  17  24
ENDBRANCH   1  17
TORSDOF 6
