REMARK  Name = ZINC09242383
REMARK  4 active torsions:
REMARK  status: ('A' for Active; 'I' for Inactive)
REMARK    1  A    between atoms: C_3  and  C_23
REMARK    2  A    between atoms: C_5  and  N_7
REMARK    3  A    between atoms: C_11  and  C_12
REMARK    4  A    between atoms: C_21  and  S_22
REMARK                            x       y       z     vdW  Elec       q    Type
REMARK                         _______ _______ _______ _____ _____    ______ ____
ROOT
ATOM      1  N   UNL     1       2.182   2.763   0.740  0.00  0.00    -0.217 N 
ATOM      2  C   UNL     1       3.255   3.384   0.204  0.00  0.00    +0.262 C 
ATOM      3  O   UNL     1       3.450   4.571   0.388  0.00  0.00    -0.269 OA
ATOM      4  C   UNL     1       4.176   2.581  -0.615  0.00  0.00    +0.103 C 
ATOM      5  C   UNL     1       5.300   3.144  -1.207  0.00  0.00    +0.044 C 
ATOM      6  C   UNL     1       3.854   1.149  -0.780  0.00  0.00    +0.274 C 
ATOM      7  O   UNL     1       4.572   0.420  -1.445  0.00  0.00    -0.268 OA
ATOM      8  N   UNL     1       2.754   0.669  -0.182  0.00  0.00    -0.154 NA
ATOM      9  C   UNL     1       1.965   1.432   0.539  0.00  0.00    +0.157 C 
ENDROOT
BRANCH   1  14
ATOM     10  C   UNL     1      -0.688   4.856   1.695  0.00  0.00    +0.002 A 
ATOM     11  C   UNL     1      -0.501   4.949   3.062  0.00  0.00    +0.012 A 
ATOM     12  C   UNL     1       0.575   4.319   3.660  0.00  0.00    +0.057 A 
ATOM     13  C   UNL     1       1.466   3.593   2.893  0.00  0.00    +0.036 A 
ATOM     14  C   UNL     1       1.280   3.498   1.521  0.00  0.00    +0.044 A 
ATOM     15  C   UNL     1       0.203   4.138   0.922  0.00  0.00    +0.024 A 
BRANCH  12  16
ATOM     16  C   UNL     1       0.775   4.423   5.150  0.00  0.00    +0.417 C 
ATOM     17  F   UNL     1       1.569   5.539   5.437  0.00  0.00    -0.166 F 
ATOM     18  F   UNL     1      -0.467   4.560   5.779  0.00  0.00    -0.166 F 
ATOM     19  F   UNL     1       1.409   3.267   5.618  0.00  0.00    -0.166 F 
ENDBRANCH  12  16
ENDBRANCH   1  14
BRANCH   5  20
ATOM     20  C   UNL     1       5.191   4.357  -1.908  0.00  0.00    +0.040 A 
ATOM     21  C   UNL     1       6.200   4.986  -2.629  0.00  0.00    +0.027 A 
ATOM     22  C   UNL     1       5.653   6.153  -3.159  0.00  0.00    +0.019 A 
ATOM     23  C   UNL     1       4.356   6.227  -2.760  0.00  0.00    +0.083 A 
ATOM     24  N   UNL     1       4.065   5.148  -2.003  0.00  0.00    -0.361 N 
ATOM     25  H   UNL     1       3.205   4.960  -1.594  0.00  0.00    +0.165 HD
ENDBRANCH   5  20
BRANCH   9  26
ATOM     26  S   UNL     1       0.545   0.698   1.281  0.00  0.00    -0.110 S 
ATOM     27  H   UNL     1       0.694  -0.631   0.833  0.00  0.00    +0.110 HD
ENDBRANCH   9  26
TORSDOF 4
