REMARK  Name = ZINC01149487
REMARK  4 active torsions:
REMARK  status: ('A' for Active; 'I' for Inactive)
REMARK    1  A    between atoms: C_5  and  N_7
REMARK    2  A    between atoms: N_10  and  S_13
REMARK    3  A    between atoms: S_13  and  C_16
REMARK    4  A    between atoms: C_19  and  N_22
REMARK                            x       y       z     vdW  Elec       q    Type
REMARK                         _______ _______ _______ _____ _____    ______ ____
ROOT
ATOM      1  N   UNL     1       1.193  -2.731  -4.386  0.00  0.00    -0.325 N 
ATOM      2  C   UNL     1       2.408  -2.343  -3.656  0.00  0.00    +0.122 C 
ATOM      3  C   UNL     1       2.481  -3.125  -2.341  0.00  0.00    +0.128 C 
ATOM      4  N   UNL     1       1.223  -2.923  -1.606  0.00  0.00    -0.174 NA
ATOM      5  C   UNL     1      -0.043  -3.166  -2.314  0.00  0.00    +0.128 C 
ATOM      6  C   UNL     1      -0.017  -2.376  -3.632  0.00  0.00    +0.122 C 
ENDROOT
BRANCH   1  11
ATOM      7  C   UNL     1       2.163  -1.886  -7.830  0.00  0.00    +0.002 A 
ATOM      8  C   UNL     1       1.134  -1.037  -8.192  0.00  0.00    +0.003 A 
ATOM      9  C   UNL     1       0.122  -0.748  -7.294  0.00  0.00    +0.040 A 
ATOM     10  C   UNL     1       0.139  -1.308  -6.030  0.00  0.00    +0.144 A 
ATOM     11  C   UNL     1       1.173  -2.163  -5.663  0.00  0.00    +0.065 A 
ATOM     12  C   UNL     1       2.188  -2.446  -6.567  0.00  0.00    +0.026 A 
ATOM     13  F   UNL     1      -0.849  -1.026  -5.152  0.00  0.00    -0.204 F 
ENDBRANCH   1  11
BRANCH   4  14
ATOM     14  S   UNL     1       1.232  -2.441  -0.022  0.00  0.00    +0.061 S 
ATOM     15  O   UNL     1       2.489  -2.832   0.515  0.00  0.00    -0.153 OA
ATOM     16  O   UNL     1      -0.002  -2.866   0.539  0.00  0.00    -0.153 OA
BRANCH  14  17
ATOM     17  C   UNL     1       1.208  -0.679  -0.013  0.00  0.00    +0.106 A 
ATOM     18  C   UNL     1       0.002  -0.004   0.002  0.00  0.00    +0.031 A 
ATOM     19  C   UNL     1      -0.017   1.378   0.010  0.00  0.00    +0.034 A 
ATOM     20  C   UNL     1       1.171   2.086   0.002  0.00  0.00    +0.126 A 
ATOM     21  C   UNL     1       2.377   1.411  -0.015  0.00  0.00    +0.034 A 
ATOM     22  C   UNL     1       2.396   0.029  -0.021  0.00  0.00    +0.031 A 
BRANCH  20  23
ATOM     23  N   UNL     1       1.151   3.566   0.010  0.00  0.00    +0.056 N 
ATOM     24  O   UNL     1       0.088   4.160   0.023  0.00  0.00    -0.126 OA
ATOM     25  O   UNL     1       2.197   4.189   0.003  0.00  0.00    -0.126 OA
ENDBRANCH  20  23
ENDBRANCH  14  17
ENDBRANCH   4  14
TORSDOF 4
