REMARK  Name = ZINC02476670
REMARK  9 active torsions:
REMARK  status: ('A' for Active; 'I' for Inactive)
REMARK    1  A    between atoms: C_1  and  C_2
REMARK    2  A    between atoms: C_2  and  O_3
REMARK    3  A    between atoms: O_3  and  C_4
REMARK    4  A    between atoms: C_4  and  C_6
REMARK    5  A    between atoms: C_10  and  N_11
REMARK    6  A    between atoms: C_12  and  C_14
REMARK    7  A    between atoms: C_20  and  C_22
REMARK    8  A    between atoms: C_28  and  C_30
REMARK    9  A    between atoms: C_28  and  C_31
REMARK                            x       y       z     vdW  Elec       q    Type
REMARK                         _______ _______ _______ _____ _____    ______ ____
ROOT
ATOM      1  C   UNL     1      -2.842  -2.416   0.016  0.00  0.00    +0.091 A 
ATOM      2  C   UNL     1      -3.547  -2.713  -1.215  0.00  0.00    -0.016 A 
ATOM      3  C   UNL     1      -4.779  -3.243  -1.036  0.00  0.00    +0.021 A 
ATOM      4  S   UNL     1      -4.977  -3.336   0.716  0.00  0.00    -0.075 S 
ATOM      5  C   UNL     1      -3.497  -2.709   1.205  0.00  0.00    +0.086 A 
ATOM      6  C   UNL     1      -5.729  -3.643  -2.122  0.00  0.00    +0.203 C 
ATOM      7  O   UNL     1      -5.252  -3.078  -3.354  0.00  0.00    -0.368 OA
ATOM      8  C   UNL     1      -3.861  -3.310  -3.592  0.00  0.00    +0.068 C 
ATOM      9  C   UNL     1      -3.013  -2.480  -2.621  0.00  0.00    +0.071 C 
ATOM     10  C   UNL     1      -3.520  -2.913  -5.030  0.00  0.00    +0.041 C 
ATOM     11  C   UNL     1      -3.553  -4.795  -3.392  0.00  0.00    +0.041 C 
ENDROOT
BRANCH   5  12
ATOM     12  N   UNL     1      -3.036  -2.524   2.499  0.00  0.00    -0.279 N 
ATOM     13  C   UNL     1      -3.811  -2.868   3.547  0.00  0.00    +0.222 C 
ATOM     14  O   UNL     1      -4.913  -3.339   3.357  0.00  0.00    -0.275 OA
ATOM     15  H   UNL     1      -2.155  -2.147   2.651  0.00  0.00    +0.155 HD
BRANCH  13  16
ATOM     16  C   UNL     1      -3.310  -2.666   4.953  0.00  0.00    +0.094 C 
ATOM     17  C   UNL     1      -2.035  -3.485   5.167  0.00  0.00    +0.060 C 
ATOM     18  C   UNL     1      -1.673  -3.507   6.623  0.00  0.00    +0.015 C 
ATOM     19  C   UNL     1      -2.493  -3.200   7.580  0.00  0.00    -0.011 C 
ATOM     20  C   UNL     1      -3.914  -2.770   7.363  0.00  0.00    +0.044 C 
ATOM     21  C   UNL     1      -4.372  -3.144   5.952  0.00  0.00    +0.118 C 
ATOM     22 CL   UNL     1      -0.057  -3.973   7.054  0.00  0.00    -0.089 Cl
BRANCH  21  23
ATOM     23  C   UNL     1      -5.689  -2.476   5.649  0.00  0.00    +0.360 C 
ATOM     24  O   UNL     1      -6.726  -3.112   5.727  0.00  0.00    -0.246 OA
ATOM     25  O   UNL     1      -5.717  -1.301   5.327  0.00  0.00    -0.246 OA
ENDBRANCH  21  23
ENDBRANCH  13  16
ENDBRANCH   5  12
BRANCH   1  26
ATOM     26  C   UNL     1      -1.497  -1.838   0.006  0.00  0.00    +0.342 C 
ATOM     27  O   UNL     1      -0.523  -2.566  -0.007  0.00  0.00    -0.245 OA
BRANCH  26  28
ATOM     28  O   UNL     1      -1.339  -0.499   0.012  0.00  0.00    -0.461 OA
BRANCH  28  30
ATOM     29  C   UNL     1      -0.019   1.526   0.010  0.00  0.00    +0.048 C 
ATOM     30  C   UNL     1       0.002  -0.004   0.002  0.00  0.00    +0.229 C 
ENDBRANCH  28  30
ENDBRANCH  26  28
ENDBRANCH   1  26
TORSDOF 6
