REMARK  Name = ZINC38550644
REMARK  8 active torsions:
REMARK  status: ('A' for Active; 'I' for Inactive)
REMARK    1  A    between atoms: C_1  and  C_2
REMARK    2  A    between atoms: C_2  and  O_3
REMARK    3  A    between atoms: O_3  and  C_4
REMARK    4  A    between atoms: C_7  and  C_10
REMARK    5  A    between atoms: C_10  and  C_12
REMARK    6  A    between atoms: C_10  and  N_29
REMARK    7  A    between atoms: C_16  and  N_17
REMARK    8  A    between atoms: C_18  and  C_20
REMARK                            x       y       z     vdW  Elec       q    Type
REMARK                         _______ _______ _______ _____ _____    ______ ____
ROOT
ATOM      1  C   UNL     1      -2.044  -6.147   0.031  0.00  0.00    +0.135 C 
ENDROOT
BRANCH   1   2
ATOM      2  C   UNL     1      -2.348  -6.829  -1.278  0.00  0.00    +0.009 A 
ATOM      3  C   UNL     1      -1.334  -7.483  -1.978  0.00  0.00    -0.030 A 
ATOM      4  C   UNL     1      -1.686  -8.074  -3.151  0.00  0.00    -0.005 A 
ATOM      5  S   UNL     1      -3.420  -7.732  -3.296  0.00  0.00    -0.078 S 
ATOM      6  C   UNL     1      -3.613  -6.812  -1.777  0.00  0.00    +0.078 A 
ATOM      7  C   UNL     1      -0.805  -8.831  -4.091  0.00  0.00    +0.043 C 
ATOM      8  C   UNL     1       0.658  -8.539  -3.722  0.00  0.00    +0.005 C 
ATOM      9  C   UNL     1       0.823  -8.694  -2.208  0.00  0.00    +0.005 C 
ATOM     10  C   UNL     1       0.108  -7.553  -1.484  0.00  0.00    +0.036 C 
BRANCH   6  11
ATOM     11  N   UNL     1      -4.762  -6.228  -1.242  0.00  0.00    -0.273 N 
ATOM     12  C   UNL     1      -5.920  -6.264  -1.931  0.00  0.00    +0.284 C 
ATOM     13  O   UNL     1      -5.987  -6.884  -2.977  0.00  0.00    -0.266 OA
ATOM     14  H   UNL     1      -4.728  -5.795  -0.375  0.00  0.00    +0.156 HD
BRANCH  12  15
ATOM     15  C   UNL     1      -7.099  -5.557  -1.422  0.00  0.00    +0.189 A 
ATOM     16  C   UNL     1      -8.352  -5.591  -1.965  0.00  0.00    +0.054 A 
ATOM     17  C   UNL     1      -9.163  -4.776  -1.159  0.00  0.00    +0.042 A 
ATOM     18  C   UNL     1      -8.380  -4.287  -0.172  0.00  0.00    +0.196 A 
ATOM     19  O   UNL     1      -7.138  -4.764  -0.331  0.00  0.00    -0.458 OA
ENDBRANCH  12  15
ENDBRANCH   6  11
ENDBRANCH   1   2
BRANCH   1  20
ATOM     20  N   UNL     1      -3.116  -6.428   0.989  0.00  0.00    -0.320 N 
ATOM     21  C   UNL     1      -3.178  -7.664   1.621  0.00  0.00    +0.097 A 
ATOM     22  C   UNL     1      -2.168  -8.597   1.410  0.00  0.00    +0.041 A 
ATOM     23  C   UNL     1      -2.241  -9.824   2.045  0.00  0.00    +0.005 A 
ATOM     24  C   UNL     1      -3.327 -10.077   2.873  0.00  0.00    +0.018 A 
ATOM     25  C   UNL     1      -4.294  -9.105   3.037  0.00  0.00    +0.084 A 
ATOM     26  N   UNL     1      -4.194  -7.942   2.422  0.00  0.00    -0.350 N 
ATOM     27  H   UNL     1      -3.784  -5.751   1.182  0.00  0.00    +0.148 HD
ATOM     28  H   UNL     1      -4.886  -7.275   2.558  0.00  0.00    +0.166 HD
ENDBRANCH   1  20
BRANCH   1  32
ATOM     29  C   UNL     1      -1.758  -1.929  -0.592  0.00  0.00    +0.121 A 
ATOM     30  C   UNL     1      -0.614  -2.713  -0.608  0.00  0.00    +0.046 A 
ATOM     31  C   UNL     1      -0.709  -4.076  -0.406  0.00  0.00    +0.009 A 
ATOM     32  C   UNL     1      -1.943  -4.660  -0.189  0.00  0.00    -0.023 A 
ATOM     33  C   UNL     1      -3.085  -3.881  -0.172  0.00  0.00    +0.009 A 
ATOM     34  C   UNL     1      -2.995  -2.516  -0.368  0.00  0.00    +0.046 A 
BRANCH  29  35
ATOM     35  O   UNL     1      -1.667  -0.588  -0.790  0.00  0.00    -0.492 OA
BRANCH  35  37
ATOM     36  C   UNL     1      -0.459   1.462  -1.216  0.00  0.00    +0.048 C 
ATOM     37  C   UNL     1      -0.362  -0.052  -1.015  0.00  0.00    +0.225 C 
ENDBRANCH  35  37
ENDBRANCH  29  35
ENDBRANCH   1  32
TORSDOF 7
