REMARK  Name = ZINC35672072
REMARK  15 active torsions:
REMARK  status: ('A' for Active; 'I' for Inactive)
REMARK    1  A    between atoms: C_1  and  C_2
REMARK    2  A    between atoms: C_5  and  O_9
REMARK    3  A    between atoms: C_6  and  C_8
REMARK    4  A    between atoms: O_9  and  C_10
REMARK    5  A    between atoms: C_10  and  C_11
REMARK    6  A    between atoms: C_13  and  C_36
REMARK    7  A    between atoms: C_14  and  N_16
REMARK    8  A    between atoms: N_16  and  C_17
REMARK    9  A    between atoms: C_17  and  C_18
REMARK   10  A    between atoms: C_18  and  C_20
REMARK   11  A    between atoms: C_18  and  N_30
REMARK   12  A    between atoms: C_22  and  O_28
REMARK   13  A    between atoms: C_25  and  O_26
REMARK   14  A    between atoms: O_26  and  C_27
REMARK   15  A    between atoms: O_28  and  C_29
REMARK                            x       y       z     vdW  Elec       q    Type
REMARK                         _______ _______ _______ _____ _____    ______ ____
ROOT
ATOM      1  N   UNL     1       3.442  -8.694  -2.084  0.00  0.00    -0.314 N 
ATOM      2  H   UNL     1       3.998  -9.218  -2.682  0.00  0.00    +0.149 HD
ENDROOT
BRANCH   1   6
ATOM      3  C   UNL     1       1.909  -5.558  -2.534  0.00  0.00    +0.237 A 
ATOM      4  N   UNL     1       2.489  -5.677  -3.689  0.00  0.00    -0.198 NA
ATOM      5  C   UNL     1       3.159  -6.864  -3.720  0.00  0.00    +0.201 A 
ATOM      6  C   UNL     1       2.950  -7.472  -2.494  0.00  0.00    +0.225 A 
ATOM      7  O   UNL     1       2.176  -6.635  -1.779  0.00  0.00    -0.421 OA
BRANCH   5   8
ATOM      8  C   UNL     1       3.930  -7.382  -4.810  0.00  0.00    +0.124 C 
ATOM      9  N   UNL     1       4.542  -7.792  -5.674  0.00  0.00    -0.189 NA
ENDBRANCH   5   8
BRANCH   3  10
ATOM     10  C   UNL     1       1.068  -4.383  -2.104  0.00  0.00    +0.324 C 
BRANCH  10  11
ATOM     11  O   UNL     1      -0.297  -4.623  -2.451  0.00  0.00    -0.482 OA
BRANCH  11  16
ATOM     12  C   UNL     1      -4.015  -0.606  -1.123  0.00  0.00    +0.044 C 
ATOM     13  C   UNL     1      -3.020  -1.681  -1.478  0.00  0.00    -0.050 A 
ATOM     14  C   UNL     1      -1.683  -1.513  -1.169  0.00  0.00    +0.007 A 
ATOM     15  C   UNL     1      -0.769  -2.496  -1.494  0.00  0.00    +0.046 A 
ATOM     16  C   UNL     1      -1.194  -3.654  -2.130  0.00  0.00    +0.124 A 
ATOM     17  C   UNL     1      -2.537  -3.820  -2.438  0.00  0.00    -0.009 A 
ATOM     18  C   UNL     1      -3.447  -2.836  -2.106  0.00  0.00    +0.010 A 
ATOM     19  C   UNL     1      -3.002  -5.076  -3.128  0.00  0.00    +0.047 C 
ENDBRANCH  11  16
ENDBRANCH  10  11
ENDBRANCH   3  10
ENDBRANCH   1   6
BRANCH   1  20
ATOM     20  C   UNL     1       3.126  -9.199  -0.746  0.00  0.00    +0.094 C 
BRANCH  20  21
ATOM     21  C   UNL     1       3.682 -10.616  -0.592  0.00  0.00    -0.017 C 
BRANCH  21  22
ATOM     22  N   UNL     1       3.183 -11.460  -1.686  0.00  0.00    +0.385 N 
ATOM     23  C   UNL     1       1.716 -11.421  -1.702  0.00  0.00    -0.078 C 
ATOM     24  C   UNL     1       1.194 -12.233  -2.889  0.00  0.00    -0.019 C 
ATOM     25  C   UNL     1       1.666 -13.683  -2.756  0.00  0.00    -0.004 C 
ATOM     26  C   UNL     1       3.194 -13.706  -2.664  0.00  0.00    -0.019 C 
ATOM     27  C   UNL     1       3.642 -12.840  -1.486  0.00  0.00    -0.078 C 
ATOM     28  H   UNL     1       3.537 -11.113  -2.565  0.00  0.00    -0.081 HD
ENDBRANCH  21  22
BRANCH  21  29
ATOM     29  C   UNL     1       5.188 -10.572  -0.637  0.00  0.00    -0.014 A 
ATOM     30  C   UNL     1       5.849 -10.791  -1.830  0.00  0.00    +0.051 A 
ATOM     31  C   UNL     1       7.235 -10.751  -1.872  0.00  0.00    +0.121 A 
ATOM     32  C   UNL     1       7.957 -10.490  -0.717  0.00  0.00    +0.049 A 
ATOM     33  C   UNL     1       7.295 -10.271   0.476  0.00  0.00    +0.049 A 
ATOM     34  C   UNL     1       5.909 -10.306   0.517  0.00  0.00    +0.122 A 
BRANCH  34  35
ATOM     35  O   UNL     1       5.258 -10.085   1.690  0.00  0.00    -0.495 OA
ATOM     36  C   UNL     1       6.064  -9.817   2.839  0.00  0.00    +0.277 C 
ENDBRANCH  34  35
BRANCH  31  37
ATOM     37  O   UNL     1       7.886 -10.967  -3.046  0.00  0.00    -0.495 OA
ATOM     38  C   UNL     1       9.314 -10.910  -3.016  0.00  0.00    +0.277 C 
ENDBRANCH  31  37
ENDBRANCH  21  29
ENDBRANCH  20  21
ENDBRANCH   1  20
TORSDOF 11
