REMARK  Name = ZINC08794223
REMARK  6 active torsions:
REMARK  status: ('A' for Active; 'I' for Inactive)
REMARK    1  A    between atoms: C_1  and  C_2
REMARK    2  A    between atoms: C_5  and  N_8
REMARK    3  A    between atoms: C_9  and  C_11
REMARK    4  A    between atoms: C_11  and  S_12
REMARK    5  A    between atoms: S_12  and  C_13
REMARK    6  A    between atoms: C_19  and  C_21
REMARK                            x       y       z     vdW  Elec       q    Type
REMARK                         _______ _______ _______ _____ _____    ______ ____
ROOT
ATOM      1  C   UNL     1       0.038   1.032  -2.809  0.00  0.00    +0.160 A 
ATOM      2  N   UNL     1       1.125   0.274  -2.807  0.00  0.00    -0.133 NA
ATOM      3  N   UNL     1       1.671  -0.112  -3.876  0.00  0.00    -0.125 NA
ATOM      4  C   UNL     1       1.194   0.217  -5.065  0.00  0.00    +0.189 A 
ATOM      5  S   UNL     1      -0.221   1.197  -4.573  0.00  0.00    -0.024 S 
ATOM      6  N   UNL     1       1.657  -0.110  -6.336  0.00  0.00    -0.259 N 
ATOM      7  C   UNL     1       2.757  -0.877  -6.476  0.00  0.00    +0.257 C 
ATOM      8  O   UNL     1       3.344  -1.283  -5.492  0.00  0.00    -0.270 OA
ATOM      9  H   UNL     1       1.189   0.214  -7.122  0.00  0.00    +0.157 HD
ENDROOT
BRANCH   7  10
ATOM     10  C   UNL     1       3.246  -1.223  -7.821  0.00  0.00    +0.122 A 
ATOM     11  C   UNL     1       2.584  -0.772  -8.950  0.00  0.00    +0.031 A 
ATOM     12  C   UNL     1       3.093  -1.125 -10.225  0.00  0.00    +0.018 A 
ATOM     13  C   UNL     1       2.450  -0.681 -11.390  0.00  0.00    +0.011 A 
ATOM     14  C   UNL     1       2.943  -1.029 -12.614  0.00  0.00    +0.001 A 
ATOM     15  C   UNL     1       4.078  -1.822 -12.716  0.00  0.00    +0.004 A 
ATOM     16  C   UNL     1       4.726  -2.270 -11.585  0.00  0.00    +0.047 A 
ATOM     17  C   UNL     1       4.244  -1.928 -10.326  0.00  0.00    +0.139 A 
ATOM     18  O   UNL     1       4.880  -2.368  -9.220  0.00  0.00    -0.422 OA
ATOM     19  C   UNL     1       4.442  -2.057  -7.989  0.00  0.00    +0.350 A 
ATOM     20  O   UNL     1       5.037  -2.469  -7.011  0.00  0.00    -0.244 OA
ENDBRANCH   7  10
BRANCH   1  21
ATOM     21  S   UNL     1      -0.891   1.685  -1.462  0.00  0.00    -0.088 S 
BRANCH  21  22
ATOM     22  C   UNL     1      -0.016   1.080   0.008  0.00  0.00    +0.172 C 
BRANCH  22  24
ATOM     23  N   UNL     1      -0.242   1.246   2.466  0.00  0.00    -0.285 N 
ATOM     24  C   UNL     1      -0.717   1.573   1.248  0.00  0.00    +0.227 C 
ATOM     25  O   UNL     1      -1.709   2.264   1.150  0.00  0.00    -0.275 OA
ATOM     26  H   UNL     1       0.511   0.639   2.546  0.00  0.00    +0.155 HD
BRANCH  23  31
ATOM     27  C   UNL     1      -2.641   3.419   7.125  0.00  0.00    +0.044 C 
ATOM     28  C   UNL     1      -2.003   2.842   5.887  0.00  0.00    -0.050 A 
ATOM     29  C   UNL     1      -2.784   2.535   4.788  0.00  0.00    +0.005 A 
ATOM     30  C   UNL     1      -2.203   2.006   3.652  0.00  0.00    +0.023 A 
ATOM     31  C   UNL     1      -0.833   1.782   3.615  0.00  0.00    +0.033 A 
ATOM     32  C   UNL     1      -0.053   2.086   4.722  0.00  0.00    +0.023 A 
ATOM     33  C   UNL     1      -0.639   2.620   5.853  0.00  0.00    +0.005 A 
ENDBRANCH  23  31
ENDBRANCH  22  24
ENDBRANCH  21  22
ENDBRANCH   1  21
TORSDOF 5
