REMARK  Name = ZINC23515281
REMARK  8 active torsions:
REMARK  status: ('A' for Active; 'I' for Inactive)
REMARK    1  A    between atoms: C_1  and  C_2
REMARK    2  A    between atoms: C_5  and  S_10
REMARK    3  A    between atoms: N_6  and  C_7
REMARK    4  A    between atoms: C_7  and  C_8
REMARK    5  A    between atoms: S_10  and  C_11
REMARK    6  A    between atoms: C_11  and  C_13
REMARK    7  A    between atoms: C_11  and  C_14
REMARK    8  A    between atoms: N_16  and  C_17
REMARK                            x       y       z     vdW  Elec       q    Type
REMARK                         _______ _______ _______ _____ _____    ______ ____
ROOT
ATOM      1  C   UNL     1      -3.189   3.102   5.072  0.00  0.00    +0.137 C 
ATOM      2  C   UNL     1      -2.251   4.309   4.998  0.00  0.00    +0.029 C 
ENDROOT
BRANCH   1   3
ATOM      3  C   UNL     1      -4.368   3.436   5.950  0.00  0.00    +0.230 C 
ATOM      4  O   UNL     1      -5.426   3.753   5.449  0.00  0.00    -0.274 OA
ATOM      5  N   UNL     1      -4.246   3.381   7.291  0.00  0.00    -0.284 N 
ATOM      6  H   UNL     1      -3.310   3.023   7.744  0.00  0.00    +0.155 HD
BRANCH   5   7
ATOM      7  C   UNL     1      -5.311   3.781   8.107  0.00  0.00    +0.047 A 
ATOM      8  C   UNL     1      -6.620   3.550   7.706  0.00  0.00    +0.024 A 
ATOM      9  C   UNL     1      -7.668   3.942   8.515  0.00  0.00    +0.002 A 
ATOM     10  C   UNL     1      -7.416   4.573   9.719  0.00  0.00    +0.001 A 
ATOM     11  C   UNL     1      -6.114   4.810  10.120  0.00  0.00    +0.017 A 
ATOM     12  C   UNL     1      -5.060   4.416   9.317  0.00  0.00    +0.039 A 
ATOM     13 BR   UNL     1      -3.280   4.741   9.865  0.00  0.00    -0.048 Br
ENDBRANCH   5   7
ENDBRANCH   1   3
BRANCH   1  14
ATOM     14  S   UNL     1      -3.772   2.688   3.409  0.00  0.00    -0.074 S 
BRANCH  14  19
ATOM     15  C   UNL     1      -0.040   1.027   0.011  0.00  0.00    +0.088 C 
ATOM     16  C   UNL     1      -0.740   1.523   1.250  0.00  0.00    +0.131 A 
ATOM     17  N   UNL     1      -0.184   1.784   2.399  0.00  0.00    -0.134 NA
ATOM     18  N   UNL     1      -1.071   2.188   3.237  0.00  0.00    -0.122 NA
ATOM     19  C   UNL     1      -2.251   2.207   2.662  0.00  0.00    +0.193 A 
ATOM     20  N   UNL     1      -2.076   1.788   1.375  0.00  0.00    -0.302 N 
BRANCH  20  21
ATOM     21  C   UNL     1      -3.106   1.647   0.342  0.00  0.00    +0.152 C 
BRANCH  21  22
ATOM     22  C   UNL     1      -3.686   0.258   0.397  0.00  0.00    -0.013 C 
ATOM     23  C   UNL     1      -4.979   0.093   0.529  0.00  0.00    +0.005 C 
ENDBRANCH  21  22
ENDBRANCH  20  21
ENDBRANCH  14  19
ENDBRANCH   1  14
TORSDOF 6
