REMARK  Name = ZINC20663104
REMARK  4 active torsions:
REMARK  status: ('A' for Active; 'I' for Inactive)
REMARK    1  A    between atoms: C_17  and  C_19
REMARK    2  A    between atoms: C_19  and  N_30
REMARK    3  A    between atoms: C_20  and  C_21
REMARK    4  A    between atoms: C_31  and  C_33
REMARK                            x       y       z     vdW  Elec       q    Type
REMARK                         _______ _______ _______ _____ _____    ______ ____
ROOT
ATOM      1  C   UNL     1       4.626  -3.049   2.621  0.00  0.00    +0.097 C 
ATOM      2  C   UNL     1       3.305  -2.763   2.546  0.00  0.00    +0.036 C 
ENDROOT
BRANCH   1  17
ATOM      3  C   UNL     1       0.951  -4.412   0.660  0.00  0.00    +0.007 A 
ATOM      4  C   UNL     1       2.159  -4.678   0.006  0.00  0.00    +0.022 A 
ATOM      5  C   UNL     1       2.980  -5.667   0.447  0.00  0.00    +0.027 A 
ATOM      6  N   UNL     1       2.608  -6.461   1.478  0.00  0.00    -0.312 N 
ATOM      7  C   UNL     1       1.480  -6.176   2.175  0.00  0.00    +0.251 A 
ATOM      8  O   UNL     1       1.214  -6.816   3.180  0.00  0.00    -0.268 OA
ATOM      9  C   UNL     1       0.618  -5.155   1.755  0.00  0.00    +0.070 A 
ATOM     10  C   UNL     1       3.359  -7.648   1.886  0.00  0.00    +0.130 C 
ATOM     11  C   UNL     1       4.797  -7.618   1.401  0.00  0.00    +0.027 C 
ATOM     12  C   UNL     1       4.826  -7.223  -0.075  0.00  0.00    +0.018 C 
ATOM     13  C   UNL     1       4.331  -5.796  -0.218  0.00  0.00    +0.054 C 
ATOM     14  C   UNL     1       5.276  -4.855   0.533  0.00  0.00    +0.117 C 
ATOM     15  N   UNL     1       5.327  -5.285   1.940  0.00  0.00    -0.296 N 
ATOM     16  C   UNL     1       5.662  -6.683   2.235  0.00  0.00    +0.113 C 
ATOM     17  C   UNL     1       5.065  -4.415   2.936  0.00  0.00    +0.261 C 
ATOM     18  O   UNL     1       5.193  -4.761   4.095  0.00  0.00    -0.269 OA
ENDBRANCH   1  17
BRANCH   2  19
ATOM     19  C   UNL     1       2.862  -1.368   2.406  0.00  0.00    -0.019 A 
ATOM     20  C   UNL     1       1.609  -1.082   1.851  0.00  0.00    +0.012 A 
ATOM     21  C   UNL     1       1.196   0.226   1.722  0.00  0.00    +0.050 A 
ATOM     22  C   UNL     1       2.019   1.264   2.141  0.00  0.00    +0.166 A 
ATOM     23  C   UNL     1       3.269   0.986   2.695  0.00  0.00    +0.167 A 
ATOM     24  C   UNL     1       3.691  -0.323   2.828  0.00  0.00    +0.057 A 
ATOM     25  O   UNL     1       3.873   2.166   3.022  0.00  0.00    -0.453 OA
ATOM     26  C   UNL     1       3.157   3.179   2.289  0.00  0.00    +0.466 C 
ATOM     27  O   UNL     1       1.843   2.617   2.122  0.00  0.00    -0.453 OA
ENDBRANCH   2  19
BRANCH   1  28
ATOM     28  N   UNL     1       5.574  -2.043   2.400  0.00  0.00    -0.277 N 
ATOM     29  C   UNL     1       6.469  -1.737   3.360  0.00  0.00    +0.248 C 
ATOM     30  O   UNL     1       6.513  -2.395   4.381  0.00  0.00    -0.270 OA
ATOM     31  H   UNL     1       5.588  -1.502   1.442  0.00  0.00    +0.155 HD
BRANCH  29  32
ATOM     32  C   UNL     1       7.396  -0.603   3.171  0.00  0.00    +0.037 A 
ATOM     33  C   UNL     1       7.278   0.219   2.048  0.00  0.00    +0.016 A 
ATOM     34  C   UNL     1       8.142   1.279   1.879  0.00  0.00    +0.039 A 
ATOM     35  C   UNL     1       9.135   1.524   2.816  0.00  0.00    +0.123 A 
ATOM     36  C   UNL     1       9.260   0.707   3.930  0.00  0.00    +0.039 A 
ATOM     37  C   UNL     1       8.397  -0.352   4.112  0.00  0.00    +0.016 A 
ATOM     38  F   UNL     1       9.982   2.561   2.644  0.00  0.00    -0.205 F 
ENDBRANCH  29  32
ENDBRANCH   1  28
TORSDOF 4
