REMARK  Name = ZINC13203925
REMARK  9 active torsions:
REMARK  status: ('A' for Active; 'I' for Inactive)
REMARK    1  A    between atoms: C_6  and  C_7
REMARK    2  A    between atoms: C_10  and  S_15
REMARK    3  A    between atoms: N_11  and  C_12
REMARK    4  A    between atoms: C_12  and  C_13
REMARK    5  A    between atoms: S_15  and  C_16
REMARK    6  A    between atoms: C_16  and  C_17
REMARK    7  A    between atoms: N_19  and  C_20
REMARK    8  A    between atoms: C_20  and  C_21
REMARK    9  A    between atoms: C_21  and  C_22
REMARK                            x       y       z     vdW  Elec       q    Type
REMARK                         _______ _______ _______ _____ _____    ______ ____
ROOT
ATOM      1  C   UNL     1      -8.580   6.867   4.284  0.00  0.00    +0.165 A 
ATOM      2  N   UNL     1      -8.304   6.710   3.011  0.00  0.00    -0.128 NA
ATOM      3  N   UNL     1      -7.160   6.139   2.877  0.00  0.00    -0.122 NA
ATOM      4  C   UNL     1      -6.636   5.898   4.058  0.00  0.00    +0.193 A 
ATOM      5  N   UNL     1      -7.523   6.346   4.994  0.00  0.00    -0.291 N 
ENDROOT
BRANCH   1  11
ATOM      6  C   UNL     1     -10.947   7.612   4.064  0.00  0.00    +0.013 A 
ATOM      7  C   UNL     1     -12.084   8.183   4.598  0.00  0.00    +0.021 A 
ATOM      8  C   UNL     1     -12.085   8.635   5.907  0.00  0.00    +0.041 A 
ATOM      9  C   UNL     1     -10.949   8.513   6.689  0.00  0.00    +0.021 A 
ATOM     10  C   UNL     1      -9.808   7.940   6.167  0.00  0.00    +0.013 A 
ATOM     11  C   UNL     1      -9.800   7.482   4.849  0.00  0.00    +0.019 A 
ATOM     12 CL   UNL     1     -13.518   9.359   6.569  0.00  0.00    -0.084 Cl
ENDBRANCH   1  11
BRANCH   5  13
ATOM     13  C   UNL     1      -7.378   6.288   6.451  0.00  0.00    +0.250 C 
BRANCH  13  14
ATOM     14  C   UNL     1      -6.668   7.527   6.935  0.00  0.00    +0.375 C 
ATOM     15  O   UNL     1      -6.319   8.371   6.144  0.00  0.00    -0.244 OA
ATOM     16  O   UNL     1      -6.424   7.691   8.244  0.00  0.00    -0.244 OA
ENDBRANCH  13  14
ENDBRANCH   5  13
BRANCH   4  17
ATOM     17  S   UNL     1      -5.081   5.130   4.374  0.00  0.00    -0.077 S 
BRANCH  17  18
ATOM     18  C   UNL     1      -4.528   4.830   2.677  0.00  0.00    +0.173 C 
BRANCH  18  19
ATOM     19  C   UNL     1      -3.178   4.160   2.700  0.00  0.00    +0.223 C 
ATOM     20  O   UNL     1      -2.643   3.910   3.759  0.00  0.00    -0.275 OA
ATOM     21  N   UNL     1      -2.566   3.838   1.543  0.00  0.00    -0.314 N 
ATOM     22  H   UNL     1      -2.994   4.038   0.696  0.00  0.00    +0.149 HD
BRANCH  21  23
ATOM     23  C   UNL     1      -1.254   3.187   1.566  0.00  0.00    +0.109 C 
BRANCH  23  24
ATOM     24  C   UNL     1      -0.786   2.933   0.131  0.00  0.00    +0.055 C 
BRANCH  24  25
ATOM     25  C   UNL     1       0.563   2.263   0.154  0.00  0.00    -0.027 A 
ATOM     26  C   UNL     1       0.659   0.896  -0.027  0.00  0.00    +0.006 A 
ATOM     27  C   UNL     1       1.897   0.281  -0.012  0.00  0.00    +0.020 A 
ATOM     28  C   UNL     1       3.041   1.034   0.185  0.00  0.00    +0.042 A 
ATOM     29  C   UNL     1       2.946   2.402   0.366  0.00  0.00    +0.040 A 
ATOM     30  C   UNL     1       1.706   3.017   0.351  0.00  0.00    +0.046 A 
ATOM     31 CL   UNL     1       1.585   4.733   0.579  0.00  0.00    -0.083 Cl
ATOM     32 CL   UNL     1       4.596   0.262   0.204  0.00  0.00    -0.083 Cl
ENDBRANCH  24  25
ENDBRANCH  23  24
ENDBRANCH  21  23
ENDBRANCH  18  19
ENDBRANCH  17  18
ENDBRANCH   4  17
TORSDOF 9
