REMARK  Name = ZINC14548175
REMARK  7 active torsions:
REMARK  status: ('A' for Active; 'I' for Inactive)
REMARK    1  A    between atoms: C_1  and  C_2
REMARK    2  A    between atoms: C_2  and  C_3
REMARK    3  A    between atoms: C_2  and  C_4
REMARK    4  A    between atoms: C_4  and  O_5
REMARK    5  A    between atoms: O_5  and  C_6
REMARK    6  A    between atoms: C_13  and  C_22
REMARK    7  A    between atoms: C_31  and  O_32
REMARK                            x       y       z     vdW  Elec       q    Type
REMARK                         _______ _______ _______ _____ _____    ______ ____
ROOT
ATOM      1  C   UNL     1      -0.148   1.182   2.381  0.00  0.00    +0.142 A 
ATOM      2  C   UNL     1       0.988   0.395   2.417  0.00  0.00    +0.047 A 
ATOM      3  C   UNL     1       1.530   0.029   3.635  0.00  0.00    +0.004 A 
ATOM      4  C   UNL     1       0.934   0.443   4.809  0.00  0.00    +0.006 A 
ATOM      5  C   UNL     1      -0.210   1.231   4.785  0.00  0.00    -0.016 A 
ATOM      6  C   UNL     1      -0.755   1.600   3.569  0.00  0.00    +0.074 A 
ATOM      7  N   UNL     1      -1.909   2.382   3.477  0.00  0.00    -0.334 N 
ATOM      8  C   UNL     1      -2.103   3.226   4.656  0.00  0.00    +0.109 C 
ATOM      9  C   UNL     1      -2.167   2.346   5.907  0.00  0.00    +0.029 C 
ATOM     10  C   UNL     1      -0.803   1.648   6.098  0.00  0.00    +0.049 C 
ATOM     11  C   UNL     1       0.058   2.699   6.762  0.00  0.00    -0.023 C 
ATOM     12  C   UNL     1      -0.690   3.606   7.339  0.00  0.00    -0.030 C 
ATOM     13  C   UNL     1      -2.159   3.284   7.147  0.00  0.00    +0.033 C 
ATOM     14  H   UNL     1      -1.904   2.935   2.633  0.00  0.00    +0.147 HD
ENDROOT
BRANCH   8  15
ATOM     15  C   UNL     1      -3.390   3.997   4.517  0.00  0.00    +0.022 A 
ATOM     16  C   UNL     1      -3.432   5.364   4.833  0.00  0.00    -0.009 A 
ATOM     17  C   UNL     1      -2.287   6.044   5.283  0.00  0.00    +0.009 A 
ATOM     18  C   UNL     1      -2.364   7.370   5.580  0.00  0.00    +0.001 A 
ATOM     19  C   UNL     1      -3.563   8.067   5.446  0.00  0.00    +0.001 A 
ATOM     20  C   UNL     1      -4.690   7.444   5.003  0.00  0.00    +0.008 A 
ATOM     21  C   UNL     1      -4.651   6.074   4.691  0.00  0.00    -0.017 A 
ATOM     22  C   UNL     1      -5.799   5.395   4.248  0.00  0.00    +0.012 A 
ATOM     23  C   UNL     1      -5.726   4.069   3.955  0.00  0.00    +0.046 A 
ATOM     24  C   UNL     1      -4.524   3.368   4.088  0.00  0.00    +0.122 A 
BRANCH  24  25
ATOM     25  O   UNL     1      -4.483   2.043   3.788  0.00  0.00    -0.506 OA
ATOM     26  H   UNL     1      -4.679   1.464   4.537  0.00  0.00    +0.292 HD
ENDBRANCH  24  25
ENDBRANCH   8  15
BRANCH   1  27
ATOM     27  O   UNL     1      -0.682   1.547   1.184  0.00  0.00    -0.490 OA
BRANCH  27  28
ATOM     28  C   UNL     1      -0.013   1.086   0.008  0.00  0.00    +0.232 C 
BRANCH  28  30
ATOM     29  C   UNL     1       0.031   1.205  -2.487  0.00  0.00    +0.010 C 
ATOM     30  C   UNL     1      -0.753   1.593  -1.232  0.00  0.00    +0.020 C 
ATOM     31  C   UNL     1      -2.147   0.964  -1.286  0.00  0.00    +0.010 C 
ENDBRANCH  28  30
ENDBRANCH  27  28
ENDBRANCH   1  27
TORSDOF 5
