REMARK  Name = ZINC39912568
REMARK  13 active torsions:
REMARK  status: ('A' for Active; 'I' for Inactive)
REMARK    1  A    between atoms: C_1  and  C_2
REMARK    2  A    between atoms: C_2  and  C_3
REMARK    3  A    between atoms: C_3  and  O_4
REMARK    4  A    between atoms: O_4  and  C_5
REMARK    5  A    between atoms: C_8  and  C_11
REMARK    6  A    between atoms: C_14  and  C_31
REMARK    7  A    between atoms: N_21  and  C_22
REMARK    8  A    between atoms: C_22  and  C_23
REMARK    9  A    between atoms: C_26  and  O_29
REMARK   10  A    between atoms: O_29  and  C_30
REMARK   11  A    between atoms: C_33  and  C_39
REMARK   12  A    between atoms: C_35  and  C_38
REMARK   13  A    between atoms: C_36  and  O_37
REMARK                            x       y       z     vdW  Elec       q    Type
REMARK                         _______ _______ _______ _____ _____    ______ ____
ROOT
ATOM      1  C   UNL     1       3.333  -4.490   5.508  0.00  0.00    +0.142 C 
ATOM      2  C   UNL     1       4.666  -5.042   5.081  0.00  0.00    +0.035 A 
ATOM      3  C   UNL     1       5.941  -4.781   4.568  0.00  0.00    +0.102 A 
ATOM      4  N   UNL     1       6.575  -5.934   4.484  0.00  0.00    -0.173 NA
ATOM      5  N   UNL     1       5.828  -6.896   4.892  0.00  0.00    -0.272 N 
ATOM      6  H   UNL     1       6.088  -7.830   4.920  0.00  0.00    +0.189 HD
ATOM      7  C   UNL     1       4.613  -6.408   5.283  0.00  0.00    +0.126 A 
ATOM      8  C   UNL     1       3.293  -6.749   5.824  0.00  0.00    +0.266 C 
ATOM      9  O   UNL     1       2.930  -7.874   6.110  0.00  0.00    -0.268 OA
ATOM     10  N   UNL     1       2.540  -5.641   5.960  0.00  0.00    -0.281 N 
ENDROOT
BRANCH   3  11
ATOM     11  C   UNL     1       6.480  -3.451   4.188  0.00  0.00    +0.044 A 
ATOM     12  C   UNL     1       5.743  -2.298   4.448  0.00  0.00    +0.017 A 
ATOM     13  C   UNL     1       6.248  -1.064   4.093  0.00  0.00    -0.049 A 
ATOM     14  C   UNL     1       7.485  -0.968   3.479  0.00  0.00    +0.010 A 
ATOM     15  C   UNL     1       8.224  -2.106   3.217  0.00  0.00    -0.008 A 
ATOM     16  C   UNL     1       7.731  -3.351   3.574  0.00  0.00    +0.129 A 
ATOM     17  C   UNL     1       9.569  -1.992   2.548  0.00  0.00    +0.047 C 
ATOM     18  C   UNL     1       5.450   0.183   4.373  0.00  0.00    +0.044 C 
BRANCH  16  19
ATOM     19  O   UNL     1       8.459  -4.470   3.323  0.00  0.00    -0.506 OA
ATOM     20  H   UNL     1       8.286  -4.865   2.457  0.00  0.00    +0.292 HD
ENDBRANCH  16  19
ENDBRANCH   3  11
BRANCH   1  24
ATOM     21  C   UNL     1       1.406  -2.582   2.205  0.00  0.00    +0.121 A 
ATOM     22  C   UNL     1       1.651  -3.947   2.172  0.00  0.00    +0.046 A 
ATOM     23  C   UNL     1       2.275  -4.562   3.241  0.00  0.00    +0.009 A 
ATOM     24  C   UNL     1       2.654  -3.817   4.343  0.00  0.00    -0.022 A 
ATOM     25  C   UNL     1       2.410  -2.457   4.378  0.00  0.00    +0.009 A 
ATOM     26  C   UNL     1       1.792  -1.837   3.309  0.00  0.00    +0.046 A 
BRANCH  21  27
ATOM     27  O   UNL     1       0.793  -1.976   1.155  0.00  0.00    -0.492 OA
BRANCH  27  28
ATOM     28  C   UNL     1       0.423  -2.805   0.052  0.00  0.00    +0.229 C 
BRANCH  28  30
ATOM     29  C   UNL     1      -0.645  -2.841  -2.207  0.00  0.00    +0.007 C 
ATOM     30  C   UNL     1      -0.249  -1.952  -1.026  0.00  0.00    +0.038 C 
ENDBRANCH  28  30
ENDBRANCH  27  28
ENDBRANCH  21  27
ENDBRANCH   1  24
BRANCH  10  31
ATOM     31  C   UNL     1       1.168  -5.591   6.469  0.00  0.00    +0.144 C 
BRANCH  31  32
ATOM     32  C   UNL     1       0.201  -5.750   5.324  0.00  0.00    -0.030 A 
ATOM     33  C   UNL     1      -0.251  -4.635   4.642  0.00  0.00    +0.009 A 
ATOM     34  C   UNL     1      -1.138  -4.778   3.593  0.00  0.00    +0.046 A 
ATOM     35  C   UNL     1      -1.574  -6.042   3.222  0.00  0.00    +0.120 A 
ATOM     36  C   UNL     1      -1.119  -7.159   3.907  0.00  0.00    +0.046 A 
ATOM     37  C   UNL     1      -0.228  -7.011   4.953  0.00  0.00    +0.009 A 
BRANCH  35  38
ATOM     38  O   UNL     1      -2.447  -6.185   2.190  0.00  0.00    -0.495 OA
ATOM     39  C   UNL     1      -2.853  -7.516   1.864  0.00  0.00    +0.277 C 
ENDBRANCH  35  38
ENDBRANCH  31  32
ENDBRANCH  10  31
TORSDOF 9
