REMARK  Name = ZINC40804258
REMARK  6 active torsions:
REMARK  status: ('A' for Active; 'I' for Inactive)
REMARK    1  A    between atoms: C_1  and  C_2
REMARK    2  A    between atoms: C_5  and  O_28
REMARK    3  A    between atoms: C_6  and  C_8
REMARK    4  A    between atoms: C_14  and  C_16
REMARK    5  A    between atoms: C_16  and  C_27
REMARK    6  A    between atoms: O_28  and  C_29
REMARK                            x       y       z     vdW  Elec       q    Type
REMARK                         _______ _______ _______ _____ _____    ______ ____
ROOT
ATOM      1  C   UNL     1       0.052  -2.842   2.467  0.00  0.00    +0.084 A 
ATOM      2  C   UNL     1       0.043  -2.174   3.660  0.00  0.00    +0.077 A 
ATOM      3  S   UNL     1       0.069  -3.544   4.808  0.00  0.00    -0.060 S 
ATOM      4  C   UNL     1       0.088  -4.854   3.591  0.00  0.00    +0.165 A 
ATOM      5  N   UNL     1       0.069  -4.166   2.465  0.00  0.00    -0.224 NA
ATOM      6  N   UNL     1       0.112  -6.230   3.782  0.00  0.00    -0.263 N 
ATOM      7  C   UNL     1       0.123  -6.738   5.030  0.00  0.00    +0.244 C 
ATOM      8  O   UNL     1       0.112  -5.994   5.987  0.00  0.00    -0.273 OA
ATOM      9  H   UNL     1       0.120  -6.825   3.016  0.00  0.00    +0.157 HD
ENDROOT
BRANCH   7  10
ATOM     10  C   UNL     1       0.149  -8.230   5.236  0.00  0.00    +0.170 C 
ATOM     11  C   UNL     1       0.549  -8.539   6.655  0.00  0.00    +0.242 C 
ATOM     12  O   UNL     1       0.390  -7.682   7.499  0.00  0.00    -0.273 OA
ATOM     13  N   UNL     1       1.068  -9.704   7.029  0.00  0.00    -0.283 N 
ATOM     14  C   UNL     1       1.431 -10.757   6.194  0.00  0.00    +0.047 A 
ATOM     15  C   UNL     1       1.632 -12.020   6.743  0.00  0.00    +0.024 A 
ATOM     16  C   UNL     1       1.983 -13.082   5.934  0.00  0.00    +0.002 A 
ATOM     17  C   UNL     1       2.139 -12.905   4.571  0.00  0.00    +0.001 A 
ATOM     18  C   UNL     1       1.946 -11.655   4.013  0.00  0.00    +0.016 A 
ATOM     19  C   UNL     1       1.598 -10.585   4.820  0.00  0.00    +0.031 A 
ATOM     20  S   UNL     1       1.371  -8.981   4.117  0.00  0.00    -0.098 S 
ATOM     21  C   UNL     1      -1.236  -8.813   4.950  0.00  0.00    +0.043 C 
ATOM     22  H   UNL     1       1.209  -9.834   7.979  0.00  0.00    +0.155 HD
ENDBRANCH   7  10
BRANCH   1  28
ATOM     23  C   UNL     1      -0.018   1.503   0.010  0.00  0.00    +0.044 C 
ATOM     24  C   UNL     1       0.002  -0.004   0.002  0.00  0.00    -0.050 A 
ATOM     25  C   UNL     1       0.006  -0.687  -1.201  0.00  0.00    +0.007 A 
ATOM     26  C   UNL     1       0.025  -2.069  -1.219  0.00  0.00    +0.046 A 
ATOM     27  C   UNL     1       0.040  -2.778  -0.029  0.00  0.00    +0.129 A 
ATOM     28  C   UNL     1       0.036  -2.091   1.188  0.00  0.00    +0.043 A 
ATOM     29  C   UNL     1       0.023  -0.698   1.195  0.00  0.00    +0.017 A 
BRANCH  27  30
ATOM     30  O   UNL     1       0.058  -4.137  -0.046  0.00  0.00    -0.494 OA
ATOM     31  C   UNL     1       0.060  -4.770  -1.327  0.00  0.00    +0.277 C 
ENDBRANCH  27  30
ENDBRANCH   1  28
TORSDOF 3
