REMARK  Name = ZINC16339524
REMARK  8 active torsions:
REMARK  status: ('A' for Active; 'I' for Inactive)
REMARK    1  A    between atoms: C_1  and  C_2
REMARK    2  A    between atoms: C_2  and  C_3
REMARK    3  A    between atoms: C_2  and  C_4
REMARK    4  A    between atoms: C_4  and  C_6
REMARK    5  A    between atoms: C_4  and  N_17
REMARK    6  A    between atoms: C_18  and  C_20
REMARK    7  A    between atoms: C_20  and  N_68
REMARK    8  A    between atoms: C_24  and  C_26
REMARK                            x       y       z     vdW  Elec       q    Type
REMARK                         _______ _______ _______ _____ _____    ______ ____
ROOT
ATOM      1  N   UNL     1       4.389   3.330  -4.447  0.00  0.00    -0.310 N 
ATOM      2  C   UNL     1       4.258   2.989  -3.150  0.00  0.00    +0.197 C 
ATOM      3  O   UNL     1       4.807   1.994  -2.726  0.00  0.00    -0.278 OA
ATOM      4  H   UNL     1       3.950   4.126  -4.786  0.00  0.00    +0.149 HD
ENDROOT
BRANCH   1   5
ATOM      5  C   UNL     1       5.195   2.499  -5.345  0.00  0.00    +0.106 C 
BRANCH   5   6
ATOM      6  C   UNL     1       5.693   3.338  -6.494  0.00  0.00    -0.023 A 
ATOM      7  C   UNL     1       4.859   4.274  -7.076  0.00  0.00    +0.009 A 
ATOM      8  C   UNL     1       5.311   5.051  -8.127  0.00  0.00    +0.050 A 
ATOM      9  C   UNL     1       6.601   4.881  -8.602  0.00  0.00    +0.162 A 
ATOM     10  C   UNL     1       7.437   3.938  -8.020  0.00  0.00    +0.162 A 
ATOM     11  C   UNL     1       6.982   3.165  -6.965  0.00  0.00    +0.055 A 
ATOM     12  O   UNL     1       8.706   3.778  -8.495  0.00  0.00    -0.488 OA
ATOM     13  C   UNL     1       8.818   3.223  -9.806  0.00  0.00    +0.232 C 
ATOM     14  C   UNL     1       8.678   4.305 -10.865  0.00  0.00    +0.082 C 
ATOM     15  C   UNL     1       7.296   4.939 -10.865  0.00  0.00    +0.232 C 
ATOM     16  O   UNL     1       7.058   5.638  -9.641  0.00  0.00    -0.488 OA
ENDBRANCH   5   6
BRANCH   5  18
ATOM     17  C   UNL     1       5.179   0.485  -6.823  0.00  0.00    +0.009 C 
ATOM     18  C   UNL     1       4.338   1.352  -5.885  0.00  0.00    +0.008 C 
ATOM     19  C   UNL     1       3.832   0.501  -4.719  0.00  0.00    +0.009 C 
ENDBRANCH   5  18
ENDBRANCH   1   5
BRANCH   2  20
ATOM     20  C   UNL     1       3.429   3.844  -2.226  0.00  0.00    +0.019 C 
BRANCH  20  25
ATOM     21  C   UNL     1       4.778   3.389  -0.262  0.00  0.00    -0.077 C 
ATOM     22  C   UNL     1       4.599   4.151   1.068  0.00  0.00    -0.020 C 
ATOM     23  C   UNL     1       3.101   3.918   1.407  0.00  0.00    -0.013 C 
ATOM     24  C   UNL     1       2.457   3.931  -0.002  0.00  0.00    -0.037 C 
ATOM     25  N   UNL     1       3.442   3.249  -0.864  0.00  0.00    +0.390 N 
ATOM     26  H   UNL     1       3.203   2.253  -0.931  0.00  0.00    -0.080 HD
BRANCH  24  27
ATOM     27  C   UNL     1       1.160   3.165   0.007  0.00  0.00    -0.057 A 
ATOM     28  C   UNL     1       1.175   1.782   0.000  0.00  0.00    +0.006 A 
ATOM     29  C   UNL     1      -0.013   1.076   0.008  0.00  0.00    +0.049 A 
ATOM     30  C   UNL     1      -1.223   1.752   0.017  0.00  0.00    +0.162 A 
ATOM     31  C   UNL     1      -1.239   3.142   0.033  0.00  0.00    +0.162 A 
ATOM     32  C   UNL     1      -0.043   3.845   0.024  0.00  0.00    +0.051 A 
ATOM     33  O   UNL     1      -2.416   3.825   0.057  0.00  0.00    -0.485 OA
ATOM     34  C   UNL     1      -3.590   3.095  -0.328  0.00  0.00    +0.270 C 
ATOM     35  C   UNL     1      -3.570   1.746   0.404  0.00  0.00    +0.270 C 
ATOM     36  O   UNL     1      -2.385   1.043   0.014  0.00  0.00    -0.485 OA
ENDBRANCH  24  27
ENDBRANCH  20  25
ENDBRANCH   2  20
TORSDOF 6
