REMARK  Name = ZINC40446345
REMARK  7 active torsions:
REMARK  status: ('A' for Active; 'I' for Inactive)
REMARK    1  A    between atoms: C_1  and  C_2
REMARK    2  A    between atoms: C_5  and  C_7
REMARK    3  A    between atoms: C_7  and  C_9
REMARK    4  A    between atoms: C_7  and  N_10
REMARK    5  A    between atoms: N_10  and  C_11
REMARK    6  A    between atoms: N_10  and  S_12
REMARK    7  A    between atoms: S_12  and  C_15
REMARK                            x       y       z     vdW  Elec       q    Type
REMARK                         _______ _______ _______ _____ _____    ______ ____
ROOT
ATOM      1  N   UNL     1       2.210  -4.147   0.855  0.00  0.00    -0.172 NA
ATOM      2  C   UNL     1       3.389  -3.318   0.593  0.00  0.00    +0.132 C 
ENDROOT
BRANCH   1   3
ATOM      3  S   UNL     1       2.196  -5.181   2.149  0.00  0.00    +0.061 S 
ATOM      4  O   UNL     1       3.134  -4.671   3.086  0.00  0.00    -0.153 OA
ATOM      5  O   UNL     1       0.831  -5.401   2.478  0.00  0.00    -0.153 OA
BRANCH   3   6
ATOM      6  C   UNL     1       2.833  -6.725   1.588  0.00  0.00    +0.106 A 
ATOM      7  C   UNL     1       1.977  -7.679   1.071  0.00  0.00    +0.029 A 
ATOM      8  C   UNL     1       2.477  -8.891   0.631  0.00  0.00    +0.017 A 
ATOM      9  C   UNL     1       3.833  -9.148   0.708  0.00  0.00    +0.018 A 
ATOM     10  C   UNL     1       4.690  -8.193   1.226  0.00  0.00    +0.017 A 
ATOM     11  C   UNL     1       4.190  -6.980   1.661  0.00  0.00    +0.029 A 
ATOM     12 BR   UNL     1       4.518 -10.805   0.107  0.00  0.00    -0.050 Br
ENDBRANCH   3   6
ENDBRANCH   1   3
BRANCH   1  13
ATOM     13  C   UNL     1       1.043  -4.062  -0.027  0.00  0.00    +0.113 C 
ATOM     14  C   UNL     1       1.452  -4.441  -1.452  0.00  0.00    +0.031 C 
BRANCH  13  19
ATOM     15  C   UNL     1      -0.018   1.503   0.010  0.00  0.00    +0.051 C 
ATOM     16  C   UNL     1       0.002  -0.004   0.002  0.00  0.00    -0.013 A 
ATOM     17  C   UNL     1      -1.039  -0.872   0.002  0.00  0.00    +0.011 A 
ATOM     18  C   UNL     1      -0.780  -2.230  -0.007  0.00  0.00    +0.013 A 
ATOM     19  C   UNL     1       0.507  -2.653  -0.016  0.00  0.00    +0.009 A 
ATOM     20  S   UNL     1       1.404  -1.109  -0.018  0.00  0.00    -0.097 S 
ENDBRANCH  13  19
ENDBRANCH   1  13
TORSDOF 4
