REMARK  Name = ZINC38798575
REMARK  8 active torsions:
REMARK  status: ('A' for Active; 'I' for Inactive)
REMARK    1  A    between atoms: C_1  and  C_2
REMARK    2  A    between atoms: C_2  and  C_3
REMARK    3  A    between atoms: C_3  and  C_4
REMARK    4  A    between atoms: C_4  and  N_5
REMARK    5  A    between atoms: C_6  and  C_8
REMARK    6  A    between atoms: N_20  and  N_24
REMARK    7  A    between atoms: C_21  and  N_23
REMARK    8  A    between atoms: C_25  and  C_26
REMARK                            x       y       z     vdW  Elec       q    Type
REMARK                         _______ _______ _______ _____ _____    ______ ____
ROOT
ATOM      1  C   UNL     1       2.443  -4.339  -3.757  0.00  0.00    +0.131 C 
ATOM      2  C   UNL     1       1.524  -3.704  -4.778  0.00  0.00    +0.095 A 
ATOM      3  C   UNL     1       1.063  -4.712  -5.640  0.00  0.00    +0.162 A 
ATOM      4  N   UNL     1       0.234  -4.401  -6.629  0.00  0.00    -0.227 NA
ATOM      5  C   UNL     1      -0.160  -3.136  -6.801  0.00  0.00    +0.091 A 
ATOM      6  C   UNL     1      -1.039  -2.785  -7.841  0.00  0.00    +0.030 A 
ATOM      7  C   UNL     1      -1.423  -1.488  -7.992  0.00  0.00    +0.002 A 
ATOM      8  C   UNL     1      -0.960  -0.498  -7.128  0.00  0.00    +0.002 A 
ATOM      9  C   UNL     1      -0.107  -0.800  -6.110  0.00  0.00    +0.030 A 
ATOM     10  C   UNL     1       0.312  -2.128  -5.924  0.00  0.00    +0.090 A 
ATOM     11  N   UNL     1       1.148  -2.457  -4.932  0.00  0.00    -0.246 NA
ATOM     12  N   UNL     1       1.584  -5.951  -5.297  0.00  0.00    -0.219 N 
ATOM     13  C   UNL     1       2.464  -5.830  -4.129  0.00  0.00    +0.058 C 
ENDROOT
BRANCH   1  15
ATOM     14  N   UNL     1       1.759  -2.910  -1.857  0.00  0.00    -0.315 N 
ATOM     15  C   UNL     1       1.895  -4.151  -2.366  0.00  0.00    +0.222 C 
ATOM     16  O   UNL     1       1.576  -5.116  -1.705  0.00  0.00    -0.275 OA
ATOM     17  H   UNL     1       2.014  -2.138  -2.386  0.00  0.00    +0.149 HD
BRANCH  14  18
ATOM     18  C   UNL     1       1.226  -2.728  -0.505  0.00  0.00    +0.104 C 
BRANCH  18  19
ATOM     19  C   UNL     1       1.175  -1.235  -0.174  0.00  0.00    +0.018 C 
BRANCH  19  21
ATOM     20  C   UNL     1       0.567   0.448   1.570  0.00  0.00    +0.004 C 
ATOM     21  C   UNL     1       0.618  -1.045   1.239  0.00  0.00    -0.002 C 
ENDBRANCH  19  21
ENDBRANCH  18  19
ENDBRANCH  14  18
ENDBRANCH   1  15
BRANCH  13  22
ATOM     22  N   UNL     1       3.830  -6.249  -4.473  0.00  0.00    +0.392 N 
ATOM     23  H   UNL     1       4.455  -6.011  -3.718  0.00  0.00    -0.087 HD
ATOM     24  H   UNL     1       3.848  -7.246  -4.624  0.00  0.00    -0.087 HD
ATOM     25  H   UNL     1       4.124  -5.777  -5.315  0.00  0.00    -0.087 HD
ENDBRANCH  13  22
BRANCH  12  26
ATOM     26  N   UNL     1       1.331  -7.054  -5.917  0.00  0.00    -0.188 NA
ATOM     27  C   UNL     1       1.778  -8.191  -5.440  0.00  0.00    +0.136 C 
BRANCH  27  28
ATOM     28  C   UNL     1       1.600  -9.372  -6.168  0.00  0.00    +0.000 C 
ATOM     29  C   UNL     1       2.007 -10.657  -5.804  0.00  0.00    +0.004 A 
ATOM     30  C   UNL     1       2.682 -11.158  -4.671  0.00  0.00    +0.010 A 
ATOM     31  C   UNL     1       2.953 -12.486  -4.581  0.00  0.00    +0.001 A 
ATOM     32  C   UNL     1       2.581 -13.378  -5.589  0.00  0.00    +0.002 A 
ATOM     33  C   UNL     1       1.931 -12.966  -6.705  0.00  0.00    +0.026 A 
ATOM     34  C   UNL     1       1.612 -11.593  -6.870  0.00  0.00    +0.043 A 
ATOM     35  N   UNL     1       0.997 -10.951  -7.843  0.00  0.00    -0.380 N 
ATOM     36  C   UNL     1       0.920  -9.525  -7.511  0.00  0.00    +0.150 C 
ATOM     37  H   UNL     1       0.646 -11.359  -8.650  0.00  0.00    +0.160 HD
ENDBRANCH  27  28
ENDBRANCH  12  26
TORSDOF 7
