REMARK  Name = ZINC41550372
REMARK  7 active torsions:
REMARK  status: ('A' for Active; 'I' for Inactive)
REMARK    1  A    between atoms: C_1  and  C_2
REMARK    2  A    between atoms: C_2  and  C_3
REMARK    3  A    between atoms: C_3  and  C_4
REMARK    4  A    between atoms: C_4  and  C_5
REMARK    5  A    between atoms: C_8  and  N_11
REMARK    6  A    between atoms: C_12  and  C_14
REMARK    7  A    between atoms: C_14  and  C_26
REMARK                            x       y       z     vdW  Elec       q    Type
REMARK                         _______ _______ _______ _____ _____    ______ ____
ROOT
ATOM      1  N   UNL     1       3.394  -3.857  -5.933  0.00  0.00    -0.282 N 
ATOM      2  C   UNL     1       4.737  -3.972  -5.943  0.00  0.00    +0.270 C 
ATOM      3  O   UNL     1       5.370  -3.772  -4.928  0.00  0.00    -0.271 OA
ATOM      4  H   UNL     1       2.882  -4.082  -6.725  0.00  0.00    +0.155 HD
ENDROOT
BRANCH   2   5
ATOM      5  C   UNL     1       5.452  -4.350  -7.215  0.00  0.00    +0.258 C 
ATOM      6  C   UNL     1       6.870  -3.840  -7.164  0.00  0.00    +0.270 C 
ATOM      7  O   UNL     1       7.423  -3.683  -6.096  0.00  0.00    -0.271 OA
ATOM      8  N   UNL     1       7.521  -3.559  -8.312  0.00  0.00    -0.279 N 
ATOM      9  C   UNL     1       6.825  -3.626  -9.527  0.00  0.00    +0.077 A 
ATOM     10  C   UNL     1       7.506  -3.569 -10.733  0.00  0.00    +0.047 A 
ATOM     11  C   UNL     1       6.806  -3.649 -11.924  0.00  0.00    +0.043 A 
ATOM     12  C   UNL     1       5.430  -3.787 -11.913  0.00  0.00    +0.024 A 
ATOM     13  C   UNL     1       4.745  -3.840 -10.713  0.00  0.00    +0.049 A 
ATOM     14  C   UNL     1       5.438  -3.753  -9.517  0.00  0.00    +0.144 A 
ATOM     15  O   UNL     1       4.772  -3.772  -8.332  0.00  0.00    -0.465 OA
ATOM     16 CL   UNL     1       7.657  -3.576 -13.435  0.00  0.00    -0.083 Cl
ATOM     17  C   UNL     1       5.464  -5.873  -7.359  0.00  0.00    +0.076 C 
ATOM     18  H   UNL     1       8.459  -3.313  -8.297  0.00  0.00    +0.155 HD
ENDBRANCH   2   5
BRANCH   1  22
ATOM     19  C   UNL     1       1.444  -2.533  -2.498  0.00  0.00    -0.047 A 
ATOM     20  C   UNL     1       2.575  -3.320  -2.389  0.00  0.00    +0.005 A 
ATOM     21  C   UNL     1       3.224  -3.761  -3.525  0.00  0.00    +0.023 A 
ATOM     22  C   UNL     1       2.739  -3.413  -4.779  0.00  0.00    +0.034 A 
ATOM     23  C   UNL     1       1.602  -2.622  -4.886  0.00  0.00    +0.023 A 
ATOM     24  C   UNL     1       0.955  -2.188  -3.745  0.00  0.00    +0.005 A 
BRANCH  19  25
ATOM     25  C   UNL     1       0.738  -2.054  -1.256  0.00  0.00    +0.035 C 
BRANCH  25  26
ATOM     26  C   UNL     1      -0.320  -3.079  -0.842  0.00  0.00    +0.004 C 
BRANCH  26  28
ATOM     27  C   UNL     1      -2.094  -3.619   0.833  0.00  0.00    +0.004 C 
ATOM     28  C   UNL     1      -1.036  -2.593   0.419  0.00  0.00    -0.003 C 
ENDBRANCH  26  28
ENDBRANCH  25  26
ENDBRANCH  19  25
ENDBRANCH   1  22
TORSDOF 5
