REMARK  Name = ZINC08809606
REMARK  16 active torsions:
REMARK  status: ('A' for Active; 'I' for Inactive)
REMARK    1  A    between atoms: C_1  and  C_2
REMARK    2  A    between atoms: C_2  and  C_3
REMARK    3  A    between atoms: C_4  and  C_36
REMARK    4  A    between atoms: C_6  and  C_34
REMARK    5  A    between atoms: C_7  and  S_9
REMARK    6  A    between atoms: S_9  and  C_10
REMARK    7  A    between atoms: C_10  and  C_11
REMARK    8  A    between atoms: C_12  and  C_29
REMARK    9  A    between atoms: C_13  and  C_21
REMARK   10  A    between atoms: C_15  and  C_19
REMARK   11  A    between atoms: C_16  and  N_18
REMARK   12  A    between atoms: C_24  and  S_27
REMARK   13  A    between atoms: S_27  and  C_28
REMARK   14  A    between atoms: C_29  and  O_31
REMARK   15  A    between atoms: O_31  and  C_32
REMARK   16  A    between atoms: C_32  and  C_33
REMARK                            x       y       z     vdW  Elec       q    Type
REMARK                         _______ _______ _______ _____ _____    ______ ____
ROOT
ATOM      1  C   UNL     1      -2.946  -3.724  -0.091  0.00  0.00    +0.128 C 
ATOM      2  C   UNL     1      -2.797  -2.412   0.127  0.00  0.00    +0.088 C 
ATOM      3  C   UNL     1      -3.990  -1.507   0.269  0.00  0.00    +0.105 C 
ATOM      4  C   UNL     1      -5.217  -2.196  -0.270  0.00  0.00    +0.098 C 
ATOM      5  C   UNL     1      -5.226  -3.536  -0.468  0.00  0.00    +0.198 C 
ATOM      6  O   UNL     1      -4.152  -4.300  -0.198  0.00  0.00    -0.444 OA
ENDROOT
BRANCH   3   7
ATOM      7  C   UNL     1      -4.196  -1.173   1.724  0.00  0.00    -0.034 A 
ATOM      8  C   UNL     1      -4.436  -2.184   2.636  0.00  0.00    +0.005 A 
ATOM      9  C   UNL     1      -4.620  -1.883   3.971  0.00  0.00    +0.015 A 
ATOM     10  C   UNL     1      -4.574  -0.560   4.396  0.00  0.00    +0.008 A 
ATOM     11  C   UNL     1      -4.337   0.454   3.475  0.00  0.00    +0.015 A 
ATOM     12  C   UNL     1      -4.149   0.144   2.143  0.00  0.00    +0.005 A 
BRANCH  10  13
ATOM     13  S   UNL     1      -4.815  -0.170   6.097  0.00  0.00    -0.129 S 
ATOM     14  C   UNL     1      -5.082  -1.783   6.883  0.00  0.00    +0.090 C 
ENDBRANCH  10  13
ENDBRANCH   3   7
BRANCH   5  15
ATOM     15  N   UNL     1      -6.362  -4.131  -0.957  0.00  0.00    -0.328 N 
ATOM     16  H   UNL     1      -6.383  -5.090  -1.104  0.00  0.00    +0.145 HD
ATOM     17  H   UNL     1      -7.144  -3.593  -1.157  0.00  0.00    +0.145 HD
ENDBRANCH   5  15
BRANCH   4  18
ATOM     18  C   UNL     1      -6.387  -1.428  -0.571  0.00  0.00    +0.101 C 
ATOM     19  N   UNL     1      -7.316  -0.819  -0.810  0.00  0.00    -0.191 NA
ENDBRANCH   4  18
BRANCH   2  20
ATOM     20  C   UNL     1      -1.493  -1.867   0.231  0.00  0.00    +0.339 C 
ATOM     21  O   UNL     1      -1.001  -1.282  -0.716  0.00  0.00    -0.245 OA
BRANCH  20  22
ATOM     22  O   UNL     1      -0.798  -1.996   1.380  0.00  0.00    -0.462 OA
BRANCH  22  23
ATOM     23  C   UNL     1       0.510  -1.422   1.415  0.00  0.00    +0.229 C 
ATOM     24  C   UNL     1       1.138  -1.667   2.788  0.00  0.00    +0.048 C 
ENDBRANCH  22  23
ENDBRANCH  20  22
ENDBRANCH   2  20
BRANCH   1  25
ATOM     25  C   UNL     1      -1.715  -4.585  -0.221  0.00  0.00    +0.150 C 
BRANCH  25  26
ATOM     26  S   UNL     1      -1.487  -5.543   1.297  0.00  0.00    -0.097 S 
BRANCH  26  31
ATOM     27  C   UNL     1       1.641  -6.891  -0.652  0.00  0.00    +0.045 A 
ATOM     28  C   UNL     1       2.250  -7.792   0.204  0.00  0.00    -0.028 A 
ATOM     29  C   UNL     1       1.700  -8.024   1.452  0.00  0.00    +0.026 A 
ATOM     30  C   UNL     1       0.540  -7.326   1.808  0.00  0.00    +0.084 A 
ATOM     31  C   UNL     1      -0.023  -6.431   0.881  0.00  0.00    +0.115 A 
ATOM     32  N   UNL     1       0.546  -6.247  -0.301  0.00  0.00    -0.244 NA
ATOM     33  C   UNL     1       3.502  -8.515  -0.220  0.00  0.00    +0.045 C 
BRANCH  27  35
ATOM     34  C   UNL     1       3.248  -5.492  -1.921  0.00  0.00    +0.010 C 
ATOM     35  C   UNL     1       2.242  -6.641  -2.011  0.00  0.00    +0.052 C 
ENDBRANCH  27  35
BRANCH  30  36
ATOM     36  C   UNL     1      -0.067  -7.525   3.090  0.00  0.00    +0.102 C 
ATOM     37  N   UNL     1      -0.547  -7.683   4.107  0.00  0.00    -0.191 NA
ENDBRANCH  30  36
ENDBRANCH  26  31
ENDBRANCH  25  26
ENDBRANCH   1  25
TORSDOF 12
