REMARK  Name = ZINC09329434
REMARK  4 active torsions:
REMARK  status: ('A' for Active; 'I' for Inactive)
REMARK    1  A    between atoms: C_3  and  C_7
REMARK    2  A    between atoms: C_7  and  C_9
REMARK    3  A    between atoms: C_11  and  C_29
REMARK    4  A    between atoms: C_32  and  N_35
REMARK                            x       y       z     vdW  Elec       q    Type
REMARK                         _______ _______ _______ _____ _____    ______ ____
ROOT
ATOM      1  C   UNL     1      -1.943  -0.824  -0.916  0.00  0.00    +0.069 C 
ATOM      2  C   UNL     1      -3.378  -1.126  -0.436  0.00  0.00    +0.016 C 
ATOM      3  C   UNL     1      -3.225  -1.634   1.009  0.00  0.00    -0.047 C 
ATOM      4  C   UNL     1      -4.399  -1.083   1.846  0.00  0.00    +0.052 C 
ATOM      5  S   UNL     1      -3.535   0.071   2.995  0.00  0.00    -0.181 S 
ATOM      6  C   UNL     1      -1.952   0.180   2.078  0.00  0.00    -0.005 C 
ATOM      7  C   UNL     1      -1.041  -1.152   0.278  0.00  0.00    +0.052 C 
ATOM      8  C   UNL     1       0.062  -0.140   0.422  0.00  0.00    -0.024 A 
ATOM      9  C   UNL     1       0.076   1.222   0.623  0.00  0.00    +0.043 A 
ATOM     10  C   UNL     1       1.282   1.897   0.719  0.00  0.00    +0.124 A 
ATOM     11  C   UNL     1       2.472   1.196   0.613  0.00  0.00    +0.040 A 
ATOM     12  C   UNL     1       2.461  -0.169   0.411  0.00  0.00    +0.026 A 
ATOM     13  C   UNL     1       1.252  -0.853   0.314  0.00  0.00    +0.036 A 
ATOM     14  N   UNL     1       0.985  -2.210   0.114  0.00  0.00    -0.286 N 
ATOM     15  C   UNL     1      -0.336  -2.468   0.080  0.00  0.00    +0.212 C 
ATOM     16  O   UNL     1      -0.857  -3.552  -0.078  0.00  0.00    -0.277 OA
ATOM     17  F   UNL     1       1.298   3.233   0.914  0.00  0.00    -0.205 F 
ATOM     18  H   UNL     1       1.672  -2.888   0.011  0.00  0.00    +0.155 HD
ATOM     19  N   UNL     1      -1.894  -1.191   1.452  0.00  0.00    +0.401 N 
ATOM     20  H   UNL     1      -1.519  -1.858   2.136  0.00  0.00    -0.078 HD
ENDROOT
BRANCH   2  21
ATOM     21  C   UNL     1      -4.213   0.128  -0.463  0.00  0.00    -0.045 A 
ATOM     22  C   UNL     1      -4.089   1.063   0.549  0.00  0.00    +0.006 A 
ATOM     23  C   UNL     1      -4.851   2.216   0.521  0.00  0.00    +0.033 A 
ATOM     24  C   UNL     1      -5.745   2.429  -0.512  0.00  0.00    +0.126 A 
ATOM     25  C   UNL     1      -5.872   1.492  -1.520  0.00  0.00    +0.033 A 
ATOM     26  C   UNL     1      -5.106   0.342  -1.495  0.00  0.00    +0.006 A 
BRANCH  24  27
ATOM     27  N   UNL     1      -6.564   3.661  -0.538  0.00  0.00    +0.056 N 
ATOM     28  O   UNL     1      -7.351   3.850  -1.449  0.00  0.00    -0.126 OA
ATOM     29  O   UNL     1      -6.452   4.487   0.350  0.00  0.00    -0.126 OA
ENDBRANCH  24  27
ENDBRANCH   2  21
BRANCH   1  30
ATOM     30  C   UNL     1      -1.812   0.631  -1.286  0.00  0.00    +0.168 C 
ATOM     31  O   UNL     1      -2.183   1.489  -0.513  0.00  0.00    -0.292 OA
BRANCH  30  34
ATOM     32  C   UNL     1      -0.554   2.664  -4.173  0.00  0.00    +0.020 A 
ATOM     33  C   UNL     1      -1.105   2.361  -2.941  0.00  0.00    +0.014 A 
ATOM     34  C   UNL     1      -1.233   1.011  -2.584  0.00  0.00    +0.036 A 
ATOM     35  C   UNL     1      -0.796   0.032  -3.482  0.00  0.00    +0.122 A 
ATOM     36  N   UNL     1      -0.283   0.373  -4.645  0.00  0.00    -0.263 NA
ATOM     37  C   UNL     1      -0.151   1.636  -5.006  0.00  0.00    +0.111 A 
ENDBRANCH  30  34
ENDBRANCH   1  30
TORSDOF 4
