REMARK  Name = ZINC27499721
REMARK  4 active torsions:
REMARK  status: ('A' for Active; 'I' for Inactive)
REMARK    1  A    between atoms: C_14  and  C_15
REMARK    2  A    between atoms: N_16  and  N_17
REMARK    3  A    between atoms: N_29  and  C_30
REMARK    4  A    between atoms: C_33  and  N_36
REMARK                            x       y       z     vdW  Elec       q    Type
REMARK                         _______ _______ _______ _____ _____    ______ ____
ROOT
ATOM      1  N   UNL     1       6.106   3.967  -0.062  0.00  0.00    -0.205 N 
ATOM      2  C   UNL     1       4.902   4.642   0.054  0.00  0.00    +0.241 A 
ATOM      3  N   UNL     1       3.756   3.981  -0.072  0.00  0.00    -0.179 NA
ATOM      4  C   UNL     1       2.600   4.629   0.034  0.00  0.00    +0.225 A 
ATOM      5  N   UNL     1       2.591   5.936   0.276  0.00  0.00    -0.181 NA
ATOM      6  C   UNL     1       3.737   6.596   0.406  0.00  0.00    +0.224 A 
ATOM      7  N   UNL     1       4.893   5.948   0.295  0.00  0.00    -0.180 NA
ATOM      8  N   UNL     1       3.728   7.953   0.656  0.00  0.00    -0.299 N 
ATOM      9  C   UNL     1       3.077   8.250   1.958  0.00  0.00    +0.108 C 
ATOM     10  C   UNL     1       3.612   9.662   2.307  0.00  0.00    +0.020 C 
ATOM     11  C   UNL     1       5.075   9.610   1.812  0.00  0.00    +0.020 C 
ATOM     12  C   UNL     1       5.105   8.482   0.764  0.00  0.00    +0.108 C 
ATOM     13  N   UNL     1       1.409   3.943  -0.101  0.00  0.00    -0.283 N 
ATOM     14  H   UNL     1       7.053   4.528  -0.062  0.00  0.00    +0.177 HD
ATOM     15  H   UNL     1       1.413   2.848  -0.208  0.00  0.00    +0.155 HD
ENDROOT
BRANCH  13  16
ATOM     16  C   UNL     1       0.196   4.640  -0.102  0.00  0.00    +0.034 A 
ATOM     17  C   UNL     1      -0.941   4.059   0.443  0.00  0.00    +0.025 A 
ATOM     18  C   UNL     1      -2.137   4.750   0.441  0.00  0.00    +0.034 A 
ATOM     19  C   UNL     1      -2.202   6.020  -0.102  0.00  0.00    +0.126 A 
ATOM     20  C   UNL     1      -1.071   6.602  -0.646  0.00  0.00    +0.034 A 
ATOM     21  C   UNL     1       0.127   5.916  -0.647  0.00  0.00    +0.025 A 
BRANCH  19  22
ATOM     22  N   UNL     1      -3.485   6.758  -0.103  0.00  0.00    +0.056 N 
ATOM     23  O   UNL     1      -4.582   6.171   0.327  0.00  0.00    -0.126 OA
ATOM     24  O   UNL     1      -3.529   8.002  -0.533  0.00  0.00    -0.126 OA
ENDBRANCH  19  22
ENDBRANCH  13  16
BRANCH   1  26
ATOM     25  C   UNL     1       7.271   2.031  -0.209  0.00  0.00    +0.139 C 
ATOM     26  N   UNL     1       6.118   2.682  -0.169  0.00  0.00    -0.187 NA
BRANCH  25  40
ATOM     27  C   UNL     1      10.908  -1.576  -0.222  0.00  0.00    +0.001 A 
ATOM     28  C   UNL     1      10.919  -0.211   0.009  0.00  0.00    +0.001 A 
ATOM     29  C   UNL     1       9.744   0.525  -0.059  0.00  0.00    +0.009 A 
ATOM     30  C   UNL     1       8.546  -0.110  -0.366  0.00  0.00    -0.009 A 
ATOM     31  C   UNL     1       8.525  -1.507  -0.598  0.00  0.00    -0.017 A 
ATOM     32  C   UNL     1       9.727  -2.231  -0.523  0.00  0.00    +0.008 A 
ATOM     33  C   UNL     1       7.321  -2.165  -0.904  0.00  0.00    +0.017 A 
ATOM     34  C   UNL     1       6.100  -1.472  -0.986  0.00  0.00    -0.017 A 
ATOM     35  C   UNL     1       4.915  -2.161  -1.294  0.00  0.00    +0.008 A 
ATOM     36  C   UNL     1       3.718  -1.471  -1.372  0.00  0.00    +0.001 A 
ATOM     37  C   UNL     1       3.674  -0.106  -1.150  0.00  0.00    +0.001 A 
ATOM     38  C   UNL     1       4.832   0.597  -0.844  0.00  0.00    +0.009 A 
ATOM     39  C   UNL     1       6.046  -0.074  -0.760  0.00  0.00    -0.009 A 
ATOM     40  C   UNL     1       7.287   0.655  -0.437  0.00  0.00    +0.010 A 
ENDBRANCH  25  40
ENDBRANCH   1  26
TORSDOF 4
