REMARK  Name = ZINC66244245
REMARK  3 active torsions:
REMARK  status: ('A' for Active; 'I' for Inactive)
REMARK    1  A    between atoms: C_6  and  C_7
REMARK    2  A    between atoms: C_10  and  C_12
REMARK    3  A    between atoms: C_12  and  N_13
REMARK                            x       y       z     vdW  Elec       q    Type
REMARK                         _______ _______ _______ _____ _____    ______ ____
ROOT
ATOM      1  C   UNL     1      -1.266  -0.763   0.011  0.00  0.00    +0.135 A 
ATOM      2  C   UNL     1      -1.385  -2.118   0.010  0.00  0.00    +0.050 A 
ATOM      3  C   UNL     1      -2.765  -2.404   0.021  0.00  0.00    +0.047 A 
ATOM      4  C   UNL     1      -3.413  -1.223   0.027  0.00  0.00    +0.123 A 
ATOM      5  O   UNL     1      -2.504  -0.234   0.026  0.00  0.00    -0.458 OA
ENDROOT
BRANCH   1  11
ATOM      6  C   UNL     1      -0.017   1.392   0.010  0.00  0.00    +0.012 A 
ATOM      7  C   UNL     1       1.170   2.095   0.002  0.00  0.00    +0.016 A 
ATOM      8  C   UNL     1       2.378   1.419  -0.013  0.00  0.00    +0.018 A 
ATOM      9  C   UNL     1       2.404   0.035  -0.021  0.00  0.00    +0.016 A 
ATOM     10  C   UNL     1       1.224  -0.680  -0.013  0.00  0.00    +0.012 A 
ATOM     11  C   UNL     1       0.002  -0.004   0.002  0.00  0.00    +0.017 A 
ATOM     12 BR   UNL     1       4.000   2.390  -0.025  0.00  0.00    -0.050 Br
ENDBRANCH   1  11
BRANCH   4  13
ATOM     13  C   UNL     1      -4.909  -1.042   0.039  0.00  0.00    +0.178 C 
BRANCH  13  14
ATOM     14  N   UNL     1      -5.383  -0.985   1.423  0.00  0.00    -0.312 N 
ATOM     15  C   UNL     1      -6.716  -0.824   1.684  0.00  0.00    +0.154 C 
ATOM     16  N   UNL     1      -7.552  -0.727   0.660  0.00  0.00    -0.361 N 
ATOM     17  C   UNL     1      -8.992  -0.557   0.861  0.00  0.00    +0.116 C 
ATOM     18  C   UNL     1      -9.230   0.173   2.188  0.00  0.00    +0.040 C 
ATOM     19  C   UNL     1      -8.521  -0.604   3.302  0.00  0.00    +0.106 C 
ATOM     20  N   UNL     1      -7.112  -0.776   2.947  0.00  0.00    -0.319 N 
ATOM     21  H   UNL     1      -4.752  -1.062   2.156  0.00  0.00    +0.149 HD
ATOM     22  H   UNL     1      -6.451  -0.854   3.653  0.00  0.00    +0.149 HD
ATOM     23  H   UNL     1      -7.201  -0.770  -0.243  0.00  0.00    +0.162 HD
ENDBRANCH  13  14
ENDBRANCH   4  13
TORSDOF 3
