REMARK  Name = ZINC43743468
REMARK  11 active torsions:
REMARK  status: ('A' for Active; 'I' for Inactive)
REMARK    1  A    between atoms: C_1  and  C_2
REMARK    2  A    between atoms: C_13  and  O_30
REMARK    3  A    between atoms: C_17  and  C_29
REMARK    4  A    between atoms: C_22  and  C_28
REMARK    5  A    between atoms: C_23  and  C_24
REMARK    6  A    between atoms: C_23  and  O_27
REMARK    7  A    between atoms: C_24  and  C_26
REMARK    8  A    between atoms: O_30  and  C_31
REMARK    9  A    between atoms: C_31  and  C_33
REMARK   10  A    between atoms: C_33  and  C_34
REMARK   11  A    between atoms: C_34  and  N_35
REMARK                            x       y       z     vdW  Elec       q    Type
REMARK                         _______ _______ _______ _____ _____    ______ ____
ROOT
ATOM      1  C   UNL     1      -0.016   1.528   0.013  0.00  0.00    +0.011 C 
ATOM      2  C   UNL     1       0.004  -0.001   0.002  0.00  0.00    +0.026 C 
ATOM      3  C   UNL     1      -1.446  -0.554   0.066  0.00  0.00    +0.011 C 
ATOM      4  C   UNL     1      -1.300  -1.799   0.947  0.00  0.00    +0.002 C 
ATOM      5  C   UNL     1      -2.570  -2.281   1.625  0.00  0.00    +0.000 C 
ATOM      6  C   UNL     1      -3.571  -2.749   0.563  0.00  0.00    +0.031 C 
ATOM      7  C   UNL     1      -4.753  -3.379   1.242  0.00  0.00    -0.027 C 
ATOM      8  C   UNL     1      -4.681  -3.935   2.416  0.00  0.00    -0.064 C 
ATOM      9  C   UNL     1      -5.943  -4.550   2.998  0.00  0.00    +0.075 C 
ATOM     10  C   UNL     1      -5.625  -5.983   3.434  0.00  0.00    +0.180 C 
ATOM     11  C   UNL     1      -4.439  -5.971   4.399  0.00  0.00    +0.046 C 
ATOM     12  C   UNL     1      -3.192  -5.455   3.678  0.00  0.00    +0.015 C 
ATOM     13  C   UNL     1      -3.425  -4.009   3.232  0.00  0.00    -0.008 C 
ATOM     14  C   UNL     1      -2.196  -3.472   2.518  0.00  0.00    +0.003 C 
ATOM     15  C   UNL     1      -1.109  -3.107   3.525  0.00  0.00    +0.005 C 
ATOM     16  C   UNL     1       0.124  -2.501   2.837  0.00  0.00    +0.010 C 
ATOM     17  C   UNL     1      -0.333  -1.292   2.050  0.00  0.00    +0.007 C 
ATOM     18  C   UNL     1       0.731  -0.533   1.262  0.00  0.00    +0.131 C 
ATOM     19  C   UNL     1      -1.072  -0.337   2.990  0.00  0.00    +0.015 C 
ATOM     20  C   UNL     1      -3.618  -3.150   4.483  0.00  0.00    +0.016 C 
ENDROOT
BRANCH  18  21
ATOM     21  C   UNL     1       1.851  -1.461   0.867  0.00  0.00    +0.162 C 
ATOM     22  O   UNL     1       1.764  -2.115  -0.144  0.00  0.00    -0.295 OA
ATOM     23  C   UNL     1       3.078  -1.573   1.734  0.00  0.00    +0.089 C 
ENDBRANCH  18  21
BRANCH  18  24
ATOM     24  O   UNL     1       1.239   0.555   2.037  0.00  0.00    -0.380 OA
ATOM     25  H   UNL     1       1.890   1.099   1.571  0.00  0.00    +0.211 HD
ENDBRANCH  18  24
BRANCH  10  26
ATOM     26  O   UNL     1      -5.297  -6.769   2.286  0.00  0.00    -0.461 OA
BRANCH  26  27
ATOM     27  C   UNL     1      -6.309  -7.398   1.669  0.00  0.00    +0.306 C 
ATOM     28  O   UNL     1      -7.436  -7.286   2.089  0.00  0.00    -0.251 OA
BRANCH  27  29
ATOM     29  C   UNL     1      -6.039  -8.244   0.451  0.00  0.00    +0.102 C 
BRANCH  29  30
ATOM     30  C   UNL     1      -7.353  -8.844  -0.054  0.00  0.00    -0.068 C 
BRANCH  30  31
ATOM     31  N   UNL     1      -7.090  -9.669  -1.241  0.00  0.00    +0.380 N 
ATOM     32  C   UNL     1      -6.599  -8.816  -2.329  0.00  0.00    -0.079 C 
ATOM     33  C   UNL     1      -6.247  -9.681  -3.542  0.00  0.00    -0.019 C 
ATOM     34  C   UNL     1      -7.497 -10.433  -4.005  0.00  0.00    -0.004 C 
ATOM     35  C   UNL     1      -8.044 -11.263  -2.840  0.00  0.00    -0.019 C 
ATOM     36  C   UNL     1      -8.329 -10.339  -1.654  0.00  0.00    -0.079 C 
ATOM     37  H   UNL     1      -6.392 -10.363  -1.019  0.00  0.00    -0.082 HD
ENDBRANCH  30  31
ENDBRANCH  29  30
ENDBRANCH  27  29
ENDBRANCH  26  27
ENDBRANCH  10  26
TORSDOF 7
