REMARK  Name = ZINC39656646
REMARK  15 active torsions:
REMARK  status: ('A' for Active; 'I' for Inactive)
REMARK    1  A    between atoms: C_1  and  C_2
REMARK    2  A    between atoms: C_2  and  O_3
REMARK    3  A    between atoms: O_3  and  C_4
REMARK    4  A    between atoms: C_11  and  C_18
REMARK    5  A    between atoms: C_13  and  O_14
REMARK    6  A    between atoms: C_18  and  O_19
REMARK    7  A    between atoms: O_19  and  C_20
REMARK    8  A    between atoms: C_20  and  C_22
REMARK    9  A    between atoms: C_22  and  C_24
REMARK   10  A    between atoms: C_22  and  N_27
REMARK   11  A    between atoms: C_24  and  C_25
REMARK   12  A    between atoms: C_24  and  C_26
REMARK   13  A    between atoms: C_28  and  C_30
REMARK   14  A    between atoms: C_33  and  O_36
REMARK   15  A    between atoms: O_36  and  C_37
REMARK                            x       y       z     vdW  Elec       q    Type
REMARK                         _______ _______ _______ _____ _____    ______ ____
ROOT
ATOM      1  C   UNL     1      -5.328  -8.041  -1.088  0.00  0.00    +0.268 C 
ENDROOT
BRANCH   1   9
ATOM      2  C   UNL     1       1.955  -6.785  -1.145  0.00  0.00    +0.405 C 
ATOM      3  O   UNL     1       1.575  -6.000  -1.998  0.00  0.00    -0.226 OA
ATOM      4  N   UNL     1       1.075  -7.532  -0.492  0.00  0.00    -0.251 N 
ATOM      5  C   UNL     1      -0.231  -7.528  -0.867  0.00  0.00    +0.040 A 
ATOM      6  C   UNL     1      -1.213  -8.022   0.011  0.00  0.00    +0.024 A 
ATOM      7  C   UNL     1      -2.522  -8.023  -0.351  0.00  0.00    +0.014 A 
ATOM      8  C   UNL     1      -2.901  -7.527  -1.612  0.00  0.00    +0.024 A 
ATOM      9  C   UNL     1      -4.255  -7.518  -2.007  0.00  0.00    +0.007 A 
ATOM     10  C   UNL     1      -4.575  -7.020  -3.255  0.00  0.00    +0.095 A 
ATOM     11  C   UNL     1      -3.573  -6.543  -4.087  0.00  0.00    +0.285 A 
ATOM     12  O   UNL     1      -2.290  -6.553  -3.709  0.00  0.00    -0.425 OA
ATOM     13  C   UNL     1      -1.922  -7.028  -2.501  0.00  0.00    +0.141 A 
ATOM     14  C   UNL     1      -0.593  -7.027  -2.120  0.00  0.00    +0.070 A 
ATOM     15  H   UNL     1       1.364  -8.082   0.253  0.00  0.00    +0.158 HD
BRANCH  11  16
ATOM     16  O   UNL     1      -3.899  -6.060  -5.301  0.00  0.00    -0.480 OA
ATOM     17  H   UNL     1      -3.143  -5.749  -5.816  0.00  0.00    +0.295 HD
ENDBRANCH  11  16
BRANCH   2  18
ATOM     18  O   UNL     1       3.273  -6.894  -0.866  0.00  0.00    -0.450 OA
BRANCH  18  20
ATOM     19  C   UNL     1       5.603  -6.320  -1.157  0.00  0.00    +0.048 C 
ATOM     20  C   UNL     1       4.164  -6.059  -1.608  0.00  0.00    +0.230 C 
ENDBRANCH  18  20
ENDBRANCH   2  18
ENDBRANCH   1   9
BRANCH   1  21
ATOM     21  O   UNL     1      -6.288  -7.011  -0.841  0.00  0.00    -0.459 OA
BRANCH  21  22
ATOM     22  C   UNL     1      -7.367  -7.345  -0.116  0.00  0.00    +0.328 C 
ATOM     23  O   UNL     1      -7.453  -8.449   0.367  0.00  0.00    -0.249 OA
BRANCH  22  24
ATOM     24  C   UNL     1      -8.473  -6.342   0.094  0.00  0.00    +0.185 C 
BRANCH  24  25
ATOM     25  N   UNL     1      -9.738  -7.048   0.307  0.00  0.00    -0.298 N 
ATOM     26  C   UNL     1     -10.906  -6.439   0.022  0.00  0.00    +0.245 C 
ATOM     27  O   UNL     1     -10.909  -5.303  -0.412  0.00  0.00    -0.270 OA
ATOM     28  H   UNL     1      -9.736  -7.955   0.653  0.00  0.00    +0.150 HD
BRANCH  26  29
ATOM     29  C   UNL     1     -12.181  -7.151   0.236  0.00  0.00    +0.037 A 
ATOM     30  C   UNL     1     -12.180  -8.454   0.740  0.00  0.00    +0.016 A 
ATOM     31  C   UNL     1     -13.372  -9.114   0.939  0.00  0.00    +0.046 A 
ATOM     32  C   UNL     1     -14.575  -8.486   0.639  0.00  0.00    +0.120 A 
ATOM     33  C   UNL     1     -14.581  -7.189   0.138  0.00  0.00    +0.046 A 
ATOM     34  C   UNL     1     -13.393  -6.520  -0.059  0.00  0.00    +0.016 A 
BRANCH  32  35
ATOM     35  O   UNL     1     -15.748  -9.140   0.836  0.00  0.00    -0.495 OA
ATOM     36  C   UNL     1     -16.947  -8.436   0.507  0.00  0.00    +0.277 C 
ENDBRANCH  32  35
ENDBRANCH  26  29
ENDBRANCH  24  25
BRANCH  24  37
ATOM     37  C   UNL     1      -8.155  -5.484   1.320  0.00  0.00    +0.014 C 
ATOM     38  C   UNL     1      -6.828  -4.755   1.103  0.00  0.00    +0.009 C 
ATOM     39  C   UNL     1      -9.272  -4.458   1.528  0.00  0.00    +0.009 C 
ENDBRANCH  24  37
ENDBRANCH  22  24
ENDBRANCH  21  22
ENDBRANCH   1  21
TORSDOF 11
