REMARK  Name = ZINC40051713
REMARK  9 active torsions:
REMARK  status: ('A' for Active; 'I' for Inactive)
REMARK    1  A    between atoms: C_1  and  C_2
REMARK    2  A    between atoms: C_5  and  C_8
REMARK    3  A    between atoms: C_11  and  C_13
REMARK    4  A    between atoms: C_13  and  C_15
REMARK    5  A    between atoms: C_13  and  S_16
REMARK    6  A    between atoms: S_16  and  C_17
REMARK    7  A    between atoms: C_20  and  C_22
REMARK    8  A    between atoms: C_23  and  C_28
REMARK    9  A    between atoms: C_25  and  C_27
REMARK                            x       y       z     vdW  Elec       q    Type
REMARK                         _______ _______ _______ _____ _____    ______ ____
ROOT
ATOM      1  C   UNL     1       0.105  -7.574   1.424  0.00  0.00    +0.140 C 
ATOM      2  C   UNL     1      -1.280  -8.225   1.393  0.00  0.00    +0.029 C 
ENDROOT
BRANCH   1   6
ATOM      3  C   UNL     1       0.059  -4.251  -0.021  0.00  0.00    +0.248 A 
ATOM      4  N   UNL     1       0.070  -5.024  -1.082  0.00  0.00    -0.107 NA
ATOM      5  N   UNL     1       0.087  -6.255  -0.710  0.00  0.00    -0.111 NA
ATOM      6  C   UNL     1       0.087  -6.317   0.592  0.00  0.00    +0.231 A 
ATOM      7  O   UNL     1       0.075  -5.057   1.060  0.00  0.00    -0.419 OA
BRANCH   3  12
ATOM      8  C   UNL     1      -0.018   1.503   0.010  0.00  0.00    +0.044 C 
ATOM      9  C   UNL     1       0.002  -0.004   0.002  0.00  0.00    -0.050 A 
ATOM     10  C   UNL     1       0.006  -0.686  -1.202  0.00  0.00    +0.004 A 
ATOM     11  C   UNL     1       0.024  -2.066  -1.216  0.00  0.00    +0.013 A 
ATOM     12  C   UNL     1       0.040  -2.773  -0.013  0.00  0.00    +0.038 A 
ATOM     13  C   UNL     1       0.036  -2.079   1.198  0.00  0.00    +0.013 A 
ATOM     14  C   UNL     1       0.023  -0.699   1.198  0.00  0.00    +0.004 A 
ENDBRANCH   3  12
ENDBRANCH   1   6
BRANCH   1  15
ATOM     15  S   UNL     1       1.331  -8.728   0.749  0.00  0.00    -0.053 S 
BRANCH  15  16
ATOM     16  C   UNL     1       1.337 -10.063   1.899  0.00  0.00    +0.278 A 
ATOM     17  N   UNL     1       0.600 -10.160   2.980  0.00  0.00    -0.101 NA
ATOM     18  N   UNL     1       0.864 -11.266   3.582  0.00  0.00    -0.106 NA
ATOM     19  C   UNL     1       1.781 -11.920   2.909  0.00  0.00    +0.258 A 
ATOM     20  O   UNL     1       2.095 -11.175   1.826  0.00  0.00    -0.410 OA
BRANCH  19  21
ATOM     21  C   UNL     1       2.357 -13.227   3.264  0.00  0.00    +0.098 A 
ATOM     22  C   UNL     1       2.083 -14.046   4.334  0.00  0.00    +0.058 A 
ATOM     23  N   UNL     1       2.758 -15.171   4.399  0.00  0.00    -0.249 NA
ATOM     24  C   UNL     1       3.646 -15.493   3.490  0.00  0.00    +0.076 A 
ATOM     25  S   UNL     1       3.600 -14.194   2.422  0.00  0.00    -0.067 S 
ATOM     26  C   UNL     1       4.500 -16.733   3.416  0.00  0.00    +0.073 C 
ATOM     27  C   UNL     1       1.062 -13.673   5.377  0.00  0.00    +0.067 C 
ENDBRANCH  19  21
ENDBRANCH  15  16
ENDBRANCH   1  15
TORSDOF 5
