REMARK  Name = ZINC67255528
REMARK  9 active torsions:
REMARK  status: ('A' for Active; 'I' for Inactive)
REMARK    1  A    between atoms: C_1  and  C_2
REMARK    2  A    between atoms: C_2  and  C_4
REMARK    3  A    between atoms: C_2  and  N_15
REMARK    4  A    between atoms: C_8  and  S_10
REMARK    5  A    between atoms: S_10  and  N_13
REMARK    6  A    between atoms: N_13  and  C_14
REMARK    7  A    between atoms: N_18  and  C_19
REMARK    8  A    between atoms: C_22  and  C_25
REMARK    9  A    between atoms: C_25  and  C_26
REMARK                            x       y       z     vdW  Elec       q    Type
REMARK                         _______ _______ _______ _____ _____    ______ ____
ROOT
ATOM      1  N   UNL     1       0.710  -0.495   1.187  0.00  0.00    -0.293 N 
ATOM      2  C   UNL     1       0.052  -0.632   2.356  0.00  0.00    +0.304 C 
ATOM      3  O   UNL     1      -1.129  -0.351   2.425  0.00  0.00    -0.252 OA
ATOM      4  N   UNL     1       0.703  -1.080   3.447  0.00  0.00    -0.269 N 
ATOM      5  H   UNL     1       1.652  -0.719   1.132  0.00  0.00    +0.151 HD
ATOM      6  H   UNL     1       1.627  -1.367   3.377  0.00  0.00    +0.156 HD
ENDROOT
BRANCH   4   7
ATOM      7  C   UNL     1       0.047  -1.130   4.682  0.00  0.00    +0.035 A 
ATOM      8  C   UNL     1       0.745  -0.864   5.853  0.00  0.00    +0.023 A 
ATOM      9  C   UNL     1       0.094  -0.914   7.070  0.00  0.00    +0.006 A 
ATOM     10  C   UNL     1      -1.251  -1.229   7.124  0.00  0.00    -0.034 A 
ATOM     11  C   UNL     1      -1.949  -1.496   5.960  0.00  0.00    +0.006 A 
ATOM     12  C   UNL     1      -1.306  -1.442   4.739  0.00  0.00    +0.023 A 
BRANCH  10  13
ATOM     13  C   UNL     1      -1.958  -1.283   8.454  0.00  0.00    +0.153 C 
BRANCH  13  14
ATOM     14  C   UNL     1      -2.509   0.045   8.771  0.00  0.00    +0.067 C 
ATOM     15  N   UNL     1      -2.933   1.069   9.016  0.00  0.00    -0.196 NA
ENDBRANCH  13  14
ENDBRANCH  10  13
ENDBRANCH   4   7
BRANCH   1  17
ATOM     16  C   UNL     1      -0.009   1.522   0.006  0.00  0.00    +0.033 C 
ATOM     17  C   UNL     1       0.002  -0.008   0.001  0.00  0.00    +0.102 C 
BRANCH  17  18
ATOM     18  C   UNL     1       0.701  -0.502  -1.239  0.00  0.00    -0.026 A 
ATOM     19  C   UNL     1       2.082  -0.532  -1.288  0.00  0.00    +0.005 A 
ATOM     20  C   UNL     1       2.724  -0.985  -2.426  0.00  0.00    +0.002 A 
ATOM     21  C   UNL     1       1.984  -1.408  -3.514  0.00  0.00    +0.028 A 
ATOM     22  C   UNL     1       0.603  -1.379  -3.465  0.00  0.00    +0.106 A 
ATOM     23  C   UNL     1      -0.039  -0.930  -2.326  0.00  0.00    +0.034 A 
BRANCH  22  24
ATOM     24  S   UNL     1      -0.340  -1.918  -4.853  0.00  0.00    +0.058 S 
ATOM     25  O   UNL     1      -1.606  -1.279  -4.756  0.00  0.00    -0.153 OA
ATOM     26  O   UNL     1       0.498  -1.780  -5.992  0.00  0.00    -0.153 OA
BRANCH  24  27
ATOM     27  N   UNL     1      -0.613  -3.540  -4.659  0.00  0.00    -0.193 NA
ATOM     28  C   UNL     1      -1.431  -4.017  -3.542  0.00  0.00    +0.127 C 
ATOM     29  H   UNL     1      -0.230  -4.174  -5.286  0.00  0.00    +0.148 HD
ENDBRANCH  24  27
ENDBRANCH  22  24
ENDBRANCH  17  18
ENDBRANCH   1  17
TORSDOF 7
