REMARK  Name = ZINC09705591
REMARK  7 active torsions:
REMARK  status: ('A' for Active; 'I' for Inactive)
REMARK    1  A    between atoms: C_7  and  N_20
REMARK    2  A    between atoms: C_8  and  C_10
REMARK    3  A    between atoms: N_12  and  C_13
REMARK    4  A    between atoms: C_21  and  C_23
REMARK    5  A    between atoms: N_25  and  C_26
REMARK    6  A    between atoms: C_26  and  C_27
REMARK    7  A    between atoms: C_27  and  C_28
REMARK                            x       y       z     vdW  Elec       q    Type
REMARK                         _______ _______ _______ _____ _____    ______ ____
ROOT
ATOM      1  C   UNL     1      -2.261  -2.560   0.748  0.00  0.00    +0.001 A 
ATOM      2  C   UNL     1      -3.611  -2.800   0.538  0.00  0.00    +0.004 A 
ATOM      3  C   UNL     1      -4.452  -1.785   0.135  0.00  0.00    +0.047 A 
ATOM      4  C   UNL     1      -3.947  -0.505  -0.063  0.00  0.00    +0.138 A 
ATOM      5  C   UNL     1      -2.577  -0.271   0.146  0.00  0.00    +0.042 A 
ATOM      6  C   UNL     1      -1.743  -1.310   0.559  0.00  0.00    +0.013 A 
ATOM      7  C   UNL     1      -2.368   1.155  -0.138  0.00  0.00    +0.093 A 
ATOM      8  C   UNL     1      -3.594   1.649  -0.495  0.00  0.00    +0.212 A 
ATOM      9  O   UNL     1      -4.511   0.657  -0.445  0.00  0.00    -0.448 OA
ENDROOT
BRANCH   8  10
ATOM     10  C   UNL     1      -3.868   3.034  -0.871  0.00  0.00    +0.286 C 
ATOM     11  O   UNL     1      -2.952   3.830  -0.975  0.00  0.00    -0.266 OA
ATOM     12  N   UNL     1      -5.135   3.431  -1.103  0.00  0.00    -0.277 N 
ATOM     13  H   UNL     1      -5.856   2.783  -1.092  0.00  0.00    +0.155 HD
BRANCH  12  14
ATOM     14  C   UNL     1      -5.410   4.780  -1.358  0.00  0.00    +0.069 A 
ATOM     15  C   UNL     1      -4.488   5.561  -2.041  0.00  0.00    +0.026 A 
ATOM     16  C   UNL     1      -4.764   6.890  -2.297  0.00  0.00    +0.002 A 
ATOM     17  C   UNL     1      -5.954   7.447  -1.864  0.00  0.00    +0.003 A 
ATOM     18  C   UNL     1      -6.873   6.674  -1.179  0.00  0.00    +0.040 A 
ATOM     19  C   UNL     1      -6.606   5.342  -0.924  0.00  0.00    +0.144 A 
ATOM     20  F   UNL     1      -7.504   4.587  -0.254  0.00  0.00    -0.204 F 
ENDBRANCH  12  14
ENDBRANCH   8  10
BRANCH   7  21
ATOM     21  N   UNL     1      -1.173   1.856  -0.066  0.00  0.00    -0.274 N 
ATOM     22  C   UNL     1      -0.015   1.250  -0.395  0.00  0.00    +0.303 C 
ATOM     23  O   UNL     1      -0.004   0.066  -0.660  0.00  0.00    -0.265 OA
ATOM     24  H   UNL     1      -1.170   2.783   0.222  0.00  0.00    +0.155 HD
BRANCH  22  25
ATOM     25  C   UNL     1       1.254   2.037  -0.440  0.00  0.00    +0.299 C 
ATOM     26  O   UNL     1       1.243   3.221  -0.175  0.00  0.00    -0.265 OA
ATOM     27  N   UNL     1       2.411   1.432  -0.775  0.00  0.00    -0.307 N 
ATOM     28  H   UNL     1       2.420   0.486  -0.987  0.00  0.00    +0.149 HD
BRANCH  27  29
ATOM     29  C   UNL     1       3.655   2.204  -0.819  0.00  0.00    +0.109 C 
BRANCH  29  30
ATOM     30  C   UNL     1       4.811   1.287  -1.223  0.00  0.00    +0.049 C 
BRANCH  30  31
ATOM     31  C   UNL     1       6.090   2.081  -1.268  0.00  0.00    -0.072 C 
ATOM     32  C   UNL     1       6.846   2.076  -0.217  0.00  0.00    -0.028 C 
ATOM     33  C   UNL     1       8.142   2.824  -0.109  0.00  0.00    +0.027 C 
ATOM     34  C   UNL     1       8.639   3.221  -1.501  0.00  0.00    +0.004 C 
ATOM     35  C   UNL     1       7.483   3.886  -2.258  0.00  0.00    +0.005 C 
ATOM     36  C   UNL     1       6.413   2.824  -2.532  0.00  0.00    +0.030 C 
ENDBRANCH  30  31
ENDBRANCH  29  30
ENDBRANCH  27  29
ENDBRANCH  22  25
ENDBRANCH   7  21
TORSDOF 7
