REMARK  Name = ZINC66105636
REMARK  5 active torsions:
REMARK  status: ('A' for Active; 'I' for Inactive)
REMARK    1  A    between atoms: C_6  and  S_7
REMARK    2  A    between atoms: S_7  and  N_10
REMARK    3  A    between atoms: C_14  and  C_17
REMARK    4  A    between atoms: C_17  and  C_18
REMARK    5  A    between atoms: C_18  and  C_19
REMARK                            x       y       z     vdW  Elec       q    Type
REMARK                         _______ _______ _______ _____ _____    ______ ____
ROOT
ATOM      1  N   UNL     1      -1.948  -1.147  -1.567  0.00  0.00    -0.176 NA
ATOM      2  C   UNL     1      -2.786  -0.168  -2.271  0.00  0.00    +0.109 C 
ATOM      3  C   UNL     1      -2.082   0.243  -3.568  0.00  0.00    +0.017 C 
ATOM      4  C   UNL     1      -1.758  -1.009  -4.386  0.00  0.00    +0.006 C 
ATOM      5  C   UNL     1      -0.813  -1.911  -3.588  0.00  0.00    +0.005 C 
ATOM      6  C   UNL     1      -1.498  -2.343  -2.293  0.00  0.00    +0.113 C 
ENDROOT
BRANCH   1   7
ATOM      7  S   UNL     1      -1.512  -0.905   0.012  0.00  0.00    +0.061 S 
ATOM      8  O   UNL     1      -1.218  -2.186   0.553  0.00  0.00    -0.153 OA
ATOM      9  O   UNL     1      -2.493  -0.046   0.577  0.00  0.00    -0.153 OA
BRANCH   7  15
ATOM     10  C   UNL     1      -0.017   1.378   0.010  0.00  0.00    +0.029 A 
ATOM     11  C   UNL     1       1.171   2.086   0.002  0.00  0.00    +0.017 A 
ATOM     12  C   UNL     1       2.378   1.411  -0.013  0.00  0.00    +0.018 A 
ATOM     13  C   UNL     1       2.396   0.027  -0.021  0.00  0.00    +0.017 A 
ATOM     14  C   UNL     1       1.208  -0.679  -0.013  0.00  0.00    +0.029 A 
ATOM     15  C   UNL     1       0.002  -0.004   0.002  0.00  0.00    +0.106 A 
ATOM     16 BR   UNL     1       4.003   2.378  -0.024  0.00  0.00    -0.050 Br
ENDBRANCH   7  15
ENDBRANCH   1   7
BRANCH   5  17
ATOM     17  C   UNL     1      -0.463  -3.147  -4.420  0.00  0.00    +0.014 C 
BRANCH  17  18
ATOM     18  C   UNL     1       0.332  -2.721  -5.656  0.00  0.00    +0.096 C 
BRANCH  18  19
ATOM     19  C   UNL     1       0.677  -3.937  -6.476  0.00  0.00    +0.210 C 
ATOM     20  O   UNL     1       0.322  -5.037  -6.107  0.00  0.00    -0.276 OA
ATOM     21  N   UNL     1       1.381  -3.804  -7.617  0.00  0.00    -0.329 N 
ATOM     22  H   UNL     1       1.665  -2.924  -7.912  0.00  0.00    +0.145 HD
ATOM     23  H   UNL     1       1.603  -4.587  -8.145  0.00  0.00    +0.145 HD
ENDBRANCH  18  19
ENDBRANCH  17  18
ENDBRANCH   5  17
TORSDOF 5
