REMARK  Name = ZINC16688561
REMARK  11 active torsions:
REMARK  status: ('A' for Active; 'I' for Inactive)
REMARK    1  A    between atoms: C_1  and  C_2
REMARK    2  A    between atoms: C_2  and  O_3
REMARK    3  A    between atoms: O_3  and  C_4
REMARK    4  A    between atoms: C_6  and  C_21
REMARK    5  A    between atoms: C_9  and  O_10
REMARK    6  A    between atoms: O_10  and  C_11
REMARK    7  A    between atoms: C_11  and  C_12
REMARK    8  A    between atoms: C_22  and  C_23
REMARK    9  A    between atoms: C_22  and  C_25
REMARK   10  A    between atoms: N_27  and  C_28
REMARK   11  A    between atoms: C_31  and  O_34
REMARK                            x       y       z     vdW  Elec       q    Type
REMARK                         _______ _______ _______ _____ _____    ______ ____
ROOT
ATOM      1  C   UNL     1       4.355  -0.748  -0.375  0.00  0.00    +0.164 A 
ATOM      2  C   UNL     1       3.425   0.269  -0.293  0.00  0.00    +0.057 A 
ATOM      3  C   UNL     1       2.056  -0.031  -0.356  0.00  0.00    -0.019 A 
ATOM      4  C   UNL     1       1.641  -1.363  -0.497  0.00  0.00    +0.032 A 
ATOM      5  C   UNL     1       2.577  -2.369  -0.584  0.00  0.00    +0.087 A 
ATOM      6  C   UNL     1       3.934  -2.070  -0.522  0.00  0.00    +0.181 A 
ATOM      7 CL   UNL     1       2.062  -4.017  -0.766  0.00  0.00    -0.080 Cl
ENDROOT
BRANCH   3   8
ATOM      8  C   UNL     1       1.064   1.042  -0.268  0.00  0.00    +0.032 C 
ATOM      9  C   UNL     1      -0.170   0.890  -0.862  0.00  0.00    +0.114 C 
BRANCH   9  10
ATOM     10  C   UNL     1      -1.226   1.887  -0.629  0.00  0.00    +0.259 C 
ATOM     11  O   UNL     1      -1.012   2.843   0.093  0.00  0.00    -0.269 OA
ATOM     12  N   UNL     1      -2.432   1.741  -1.214  0.00  0.00    -0.281 N 
ATOM     13  H   UNL     1      -2.628   0.941  -1.727  0.00  0.00    +0.155 HD
BRANCH  12  14
ATOM     14  C   UNL     1      -3.400   2.743  -1.082  0.00  0.00    +0.034 A 
ATOM     15  C   UNL     1      -4.748   2.422  -1.165  0.00  0.00    +0.027 A 
ATOM     16  C   UNL     1      -5.703   3.410  -1.029  0.00  0.00    +0.047 A 
ATOM     17  C   UNL     1      -5.315   4.726  -0.821  0.00  0.00    +0.117 A 
ATOM     18  C   UNL     1      -3.969   5.048  -0.743  0.00  0.00    +0.047 A 
ATOM     19  C   UNL     1      -3.013   4.060  -0.873  0.00  0.00    +0.027 A 
BRANCH  17  20
ATOM     20  O   UNL     1      -6.256   5.699  -0.693  0.00  0.00    -0.507 OA
ATOM     21  H   UNL     1      -6.509   6.114  -1.529  0.00  0.00    +0.292 HD
ENDBRANCH  17  20
ENDBRANCH  12  14
ENDBRANCH   9  10
BRANCH   9  22
ATOM     22  C   UNL     1      -0.422  -0.235  -1.712  0.00  0.00    +0.104 C 
ATOM     23  N   UNL     1      -0.622  -1.127  -2.385  0.00  0.00    -0.191 NA
ENDBRANCH   9  22
ENDBRANCH   3   8
BRANCH   1  24
ATOM     24  O   UNL     1       5.682  -0.461  -0.315  0.00  0.00    -0.489 OA
BRANCH  24  26
ATOM     25  C   UNL     1       7.567   1.040  -0.116  0.00  0.00    +0.048 C 
ATOM     26  C   UNL     1       6.043   0.914  -0.165  0.00  0.00    +0.226 C 
ENDBRANCH  24  26
ENDBRANCH   1  24
BRANCH   6  27
ATOM     27  O   UNL     1       4.851  -3.067  -0.603  0.00  0.00    -0.482 OA
BRANCH  27  28
ATOM     28  C   UNL     1       5.260  -3.674   0.624  0.00  0.00    +0.266 C 
BRANCH  28  29
ATOM     29  C   UNL     1       6.275  -4.751   0.338  0.00  0.00    +0.008 A 
ATOM     30  C   UNL     1       6.662  -5.008  -0.964  0.00  0.00    +0.010 A 
ATOM     31  C   UNL     1       7.592  -5.995  -1.228  0.00  0.00    +0.020 A 
ATOM     32  C   UNL     1       8.137  -6.728  -0.188  0.00  0.00    +0.042 A 
ATOM     33  C   UNL     1       7.751  -6.471   1.115  0.00  0.00    +0.040 A 
ATOM     34  C   UNL     1       6.823  -5.479   1.379  0.00  0.00    +0.049 A 
ATOM     35 CL   UNL     1       6.342  -5.152   3.014  0.00  0.00    -0.083 Cl
ATOM     36 CL   UNL     1       9.306  -7.968  -0.518  0.00  0.00    -0.083 Cl
ENDBRANCH  28  29
ENDBRANCH  27  28
ENDBRANCH   6  27
TORSDOF 10
