REMARK  Name = ZINC34685751
REMARK  8 active torsions:
REMARK  status: ('A' for Active; 'I' for Inactive)
REMARK    1  A    between atoms: C_2  and  C_3
REMARK    2  A    between atoms: C_3  and  N_4
REMARK    3  A    between atoms: C_10  and  C_12
REMARK    4  A    between atoms: C_15  and  C_17
REMARK    5  A    between atoms: C_17  and  O_18
REMARK    6  A    between atoms: O_18  and  C_19
REMARK    7  A    between atoms: C_25  and  C_35
REMARK    8  A    between atoms: C_30  and  C_32
REMARK                            x       y       z     vdW  Elec       q    Type
REMARK                         _______ _______ _______ _____ _____    ______ ____
ROOT
ATOM      1  C   UNL     1      -8.562  -5.370  -1.487  0.00  0.00    +0.121 A 
ATOM      2  C   UNL     1      -9.320  -5.094  -2.616  0.00  0.00    +0.046 A 
ATOM      3  C   UNL     1     -10.643  -4.733  -2.482  0.00  0.00    +0.007 A 
ATOM      4  C   UNL     1     -11.230  -4.647  -1.224  0.00  0.00    -0.040 A 
ATOM      5  C   UNL     1     -10.482  -4.931  -0.103  0.00  0.00    -0.016 A 
ATOM      6  C   UNL     1      -9.148  -5.292  -0.235  0.00  0.00    +0.051 A 
ATOM      7  C   UNL     1     -11.063  -4.885   1.288  0.00  0.00    +0.137 C 
ATOM      8  N   UNL     1     -12.381  -4.243   1.251  0.00  0.00    -0.290 N 
ATOM      9  C   UNL     1     -13.300  -4.647   0.174  0.00  0.00    +0.113 C 
ATOM     10  C   UNL     1     -12.676  -4.232  -1.157  0.00  0.00    +0.054 C 
ATOM     11  C   UNL     1     -12.736  -3.319   2.166  0.00  0.00    +0.219 C 
ATOM     12  O   UNL     1     -11.960  -3.004   3.043  0.00  0.00    -0.275 OA
ENDROOT
BRANCH   7  13
ATOM     13  C   UNL     1     -11.204  -6.288   1.819  0.00  0.00    -0.023 A 
ATOM     14  C   UNL     1     -10.630  -6.630   3.029  0.00  0.00    +0.006 A 
ATOM     15  C   UNL     1     -10.759  -7.917   3.516  0.00  0.00    +0.000 A 
ATOM     16  C   UNL     1     -11.463  -8.862   2.794  0.00  0.00    +0.000 A 
ATOM     17  C   UNL     1     -12.037  -8.520   1.584  0.00  0.00    +0.000 A 
ATOM     18  C   UNL     1     -11.912  -7.232   1.099  0.00  0.00    +0.006 A 
ENDBRANCH   7  13
BRANCH  11  19
ATOM     19  C   UNL     1     -14.099  -2.679   2.100  0.00  0.00    +0.075 C 
ATOM     20  C   UNL     1     -14.165  -1.196   1.730  0.00  0.00    +0.013 C 
ATOM     21  C   UNL     1     -14.443  -1.638   3.168  0.00  0.00    +0.013 C 
ENDBRANCH  11  19
BRANCH   1  22
ATOM     22  O   UNL     1      -7.255  -5.721  -1.609  0.00  0.00    -0.484 OA
BRANCH  22  23
ATOM     23  C   UNL     1      -6.721  -5.781  -2.933  0.00  0.00    +0.303 C 
BRANCH  23  27
ATOM     24  C   UNL     1      -3.084  -6.054  -2.743  0.00  0.00    +0.190 A 
ATOM     25  C   UNL     1      -3.404  -7.379  -2.827  0.00  0.00    +0.055 A 
ATOM     26  C   UNL     1      -4.803  -7.452  -2.909  0.00  0.00    +0.049 A 
ATOM     27  C   UNL     1      -5.270  -6.184  -2.872  0.00  0.00    +0.143 A 
ATOM     28  O   UNL     1      -4.231  -5.345  -2.766  0.00  0.00    -0.452 OA
BRANCH  24  35
ATOM     29  N   UNL     1      -1.290  -1.753  -1.064  0.00  0.00    +0.384 N 
ATOM     30  C   UNL     1      -0.220  -2.753  -0.968  0.00  0.00    -0.059 C 
ATOM     31  C   UNL     1      -0.212  -3.614  -2.236  0.00  0.00    +0.089 C 
ATOM     32  N   UNL     1      -1.557  -4.180  -2.423  0.00  0.00    -0.299 N 
ATOM     33  C   UNL     1      -2.708  -3.265  -2.369  0.00  0.00    +0.089 C 
ATOM     34  C   UNL     1      -2.598  -2.421  -1.095  0.00  0.00    -0.059 C 
ATOM     35  C   UNL     1      -1.730  -5.499  -2.638  0.00  0.00    +0.282 C 
ATOM     36  O   UNL     1      -0.763  -6.230  -2.746  0.00  0.00    -0.267 OA
ATOM     37  H   UNL     1      -1.169  -1.213  -1.908  0.00  0.00    -0.081 HD
BRANCH  29  38
ATOM     38  C   UNL     1      -1.228  -0.858   0.100  0.00  0.00    -0.052 C 
BRANCH  38  40
ATOM     39  C   UNL     1       0.040   1.228   0.112  0.00  0.00    +0.002 C 
ATOM     40  C   UNL     1       0.063  -0.081   0.067  0.00  0.00    -0.053 C 
ENDBRANCH  38  40
ENDBRANCH  29  38
ENDBRANCH  24  35
ENDBRANCH  23  27
ENDBRANCH  22  23
ENDBRANCH   1  22
TORSDOF 8
