REMARK  Name = ZINC06572743
REMARK  8 active torsions:
REMARK  status: ('A' for Active; 'I' for Inactive)
REMARK    1  A    between atoms: C_1  and  C_2
REMARK    2  A    between atoms: C_5  and  N_9
REMARK    3  A    between atoms: C_6  and  C_8
REMARK    4  A    between atoms: N_9  and  C_10
REMARK    5  A    between atoms: C_10  and  N_12
REMARK    6  A    between atoms: N_12  and  N_13
REMARK    7  A    between atoms: C_14  and  C_16
REMARK    8  A    between atoms: C_25  and  O_26
REMARK                            x       y       z     vdW  Elec       q    Type
REMARK                         _______ _______ _______ _____ _____    ______ ____
ROOT
ATOM      1  N   UNL     1      -0.106  -6.886   0.025  0.00  0.00    -0.231 N 
ATOM      2  C   UNL     1      -0.190  -8.232   0.024  0.00  0.00    +0.264 C 
ATOM      3  O   UNL     1      -0.279  -8.835  -1.027  0.00  0.00    -0.269 OA
ATOM      4  H   UNL     1      -0.035  -6.405   0.864  0.00  0.00    +0.173 HD
ENDROOT
BRANCH   2   5
ATOM      5  C   UNL     1      -0.173  -8.972   1.301  0.00  0.00    +0.080 A 
ATOM      6  C   UNL     1      -0.077  -8.280   2.497  0.00  0.00    +0.025 A 
ATOM      7  C   UNL     1      -0.062  -8.989   3.707  0.00  0.00    -0.017 A 
ATOM      8  C   UNL     1       0.033  -8.318   4.940  0.00  0.00    +0.008 A 
ATOM      9  C   UNL     1       0.045  -9.034   6.097  0.00  0.00    +0.001 A 
ATOM     10  C   UNL     1      -0.036 -10.425   6.080  0.00  0.00    +0.001 A 
ATOM     11  C   UNL     1      -0.130 -11.109   4.907  0.00  0.00    +0.008 A 
ATOM     12  C   UNL     1      -0.145 -10.405   3.690  0.00  0.00    -0.014 A 
ATOM     13  C   UNL     1      -0.242 -11.084   2.464  0.00  0.00    +0.054 A 
ATOM     14  C   UNL     1      -0.260 -10.380   1.295  0.00  0.00    +0.130 A 
BRANCH  14  15
ATOM     15  O   UNL     1      -0.359 -11.043   0.115  0.00  0.00    -0.506 OA
ATOM     16  H   UNL     1       0.493 -11.289  -0.271  0.00  0.00    +0.292 HD
ENDBRANCH  14  15
ENDBRANCH   2   5
BRANCH   1  17
ATOM     17  N   UNL     1      -0.122  -6.184  -1.187  0.00  0.00    -0.245 N 
ATOM     18  H   UNL     1      -0.193  -6.665  -2.026  0.00  0.00    +0.172 HD
BRANCH  17  19
ATOM     19  C   UNL     1      -0.039  -4.838  -1.187  0.00  0.00    +0.151 C 
ATOM     20  S   UNL     1      -0.058  -3.979  -2.668  0.00  0.00    -0.017 S 
BRANCH  19  21
ATOM     21  N   UNL     1       0.059  -4.169  -0.021  0.00  0.00    -0.296 N 
ATOM     22  H   UNL     1       0.134  -4.658   0.814  0.00  0.00    +0.154 HD
BRANCH  21  27
ATOM     23  C   UNL     1       0.038   1.503   0.005  0.00  0.00    +0.044 C 
ATOM     24  C   UNL     1       0.044  -0.004  -0.002  0.00  0.00    -0.050 A 
ATOM     25  C   UNL     1       0.855  -0.687  -0.890  0.00  0.00    +0.005 A 
ATOM     26  C   UNL     1       0.863  -2.067  -0.898  0.00  0.00    +0.024 A 
ATOM     27  C   UNL     1       0.054  -2.771  -0.015  0.00  0.00    +0.036 A 
ATOM     28  C   UNL     1      -0.759  -2.082   0.875  0.00  0.00    -0.029 A 
ATOM     29  C   UNL     1      -0.758  -0.700   0.882  0.00  0.00    +0.008 A 
ATOM     30  C   UNL     1      -1.638  -2.840   1.836  0.00  0.00    +0.045 C 
ENDBRANCH  21  27
ENDBRANCH  19  21
ENDBRANCH  17  19
ENDBRANCH   1  17
TORSDOF 6
