REMARK  Name = ZINC21726045
REMARK  8 active torsions:
REMARK  status: ('A' for Active; 'I' for Inactive)
REMARK    1  A    between atoms: C_1  and  C_2
REMARK    2  A    between atoms: C_2  and  O_3
REMARK    3  A    between atoms: O_3  and  C_4
REMARK    4  A    between atoms: C_6  and  C_14
REMARK    5  A    between atoms: C_9  and  O_10
REMARK    6  A    between atoms: O_10  and  C_11
REMARK    7  A    between atoms: C_11  and  C_12
REMARK    8  A    between atoms: C_22  and  C_34
REMARK                            x       y       z     vdW  Elec       q    Type
REMARK                         _______ _______ _______ _____ _____    ______ ____
ROOT
ATOM      1  C   UNL     1       8.456   2.911  -0.085  0.00  0.00    +0.063 C 
ATOM      2  C   UNL     1       8.452   1.538   0.596  0.00  0.00    +0.109 C 
ATOM      3  C   UNL     1       7.276   0.715   0.152  0.00  0.00    +0.219 C 
ATOM      4  O   UNL     1       7.426  -0.475  -0.028  0.00  0.00    -0.275 OA
ATOM      5  N   UNL     1       6.058   1.259  -0.054  0.00  0.00    -0.270 N 
ATOM      6  C   UNL     1       5.949   2.648  -0.033  0.00  0.00    +0.135 A 
ATOM      7  C   UNL     1       7.052   3.459  -0.053  0.00  0.00    +0.023 A 
ATOM      8  C   UNL     1       6.615   4.777  -0.038  0.00  0.00    +0.066 A 
ATOM      9  N   UNL     1       5.303   4.776  -0.020  0.00  0.00    -0.168 NA
ATOM     10  N   UNL     1       4.857   3.444  -0.024  0.00  0.00    -0.193 N 
ATOM     11  C   UNL     1       3.533   3.022  -0.015  0.00  0.00    +0.196 A 
ATOM     12  N   UNL     1       2.439   3.745  -0.001  0.00  0.00    -0.221 NA
ATOM     13  C   UNL     1       1.206   3.196   0.008  0.00  0.00    +0.081 A 
ATOM     14  C   UNL     1      -0.045   3.857   0.023  0.00  0.00    +0.029 A 
ATOM     15  C   UNL     1      -1.214   3.143   0.030  0.00  0.00    +0.002 A 
ATOM     16  C   UNL     1      -1.217   1.755   0.017  0.00  0.00    +0.001 A 
ATOM     17  C   UNL     1      -0.013   1.076   0.008  0.00  0.00    +0.017 A 
ATOM     18  C   UNL     1       1.164   1.783   0.001  0.00  0.00    +0.041 A 
ATOM     19  S   UNL     1       2.889   1.355  -0.018  0.00  0.00    -0.048 S 
ATOM     20  C   UNL     1       7.497   5.999  -0.042  0.00  0.00    +0.068 C 
ATOM     21  H   UNL     1       5.188   0.609  -0.231  0.00  0.00    +0.156 HD
ENDROOT
BRANCH   1  24
ATOM     22  C   UNL     1      10.448   3.328  -3.268  0.00  0.00    +0.162 A 
ATOM     23  C   UNL     1      10.024   3.462  -1.955  0.00  0.00    +0.053 A 
ATOM     24  C   UNL     1       8.913   2.768  -1.514  0.00  0.00    -0.036 A 
ATOM     25  C   UNL     1       8.216   1.948  -2.382  0.00  0.00    +0.008 A 
ATOM     26  C   UNL     1       8.632   1.813  -3.694  0.00  0.00    +0.050 A 
ATOM     27  C   UNL     1       9.748   2.501  -4.141  0.00  0.00    +0.162 A 
BRANCH  22  28
ATOM     28  O   UNL     1      11.544   4.005  -3.702  0.00  0.00    -0.489 OA
BRANCH  28  30
ATOM     29  C   UNL     1      13.413   5.511  -3.417  0.00  0.00    +0.048 C 
ATOM     30  C   UNL     1      12.214   4.835  -2.750  0.00  0.00    +0.226 C 
ENDBRANCH  28  30
ENDBRANCH  22  28
BRANCH  27  31
ATOM     31  O   UNL     1      10.157   2.370  -5.431  0.00  0.00    -0.484 OA
BRANCH  31  32
ATOM     32  C   UNL     1       9.390   1.506  -6.271  0.00  0.00    +0.256 C 
BRANCH  32  33
ATOM     33  C   UNL     1       9.989   1.486  -7.654  0.00  0.00    +0.006 C 
ATOM     34  C   UNL     1      10.145   0.348  -8.284  0.00  0.00    +0.007 C 
ENDBRANCH  32  33
ENDBRANCH  31  32
ENDBRANCH  27  31
ENDBRANCH   1  24
TORSDOF 6
