REMARK  Name = ZINC31044167
REMARK  9 active torsions:
REMARK  status: ('A' for Active; 'I' for Inactive)
REMARK    1  A    between atoms: C_1  and  C_2
REMARK    2  A    between atoms: C_5  and  C_8
REMARK    3  A    between atoms: C_8  and  C_38
REMARK    4  A    between atoms: N_11  and  C_15
REMARK    5  A    between atoms: C_15  and  C_16
REMARK    6  A    between atoms: N_18  and  C_19
REMARK    7  A    between atoms: C_19  and  C_21
REMARK    8  A    between atoms: C_19  and  C_28
REMARK    9  A    between atoms: C_21  and  C_22
REMARK                            x       y       z     vdW  Elec       q    Type
REMARK                         _______ _______ _______ _____ _____    ______ ____
ROOT
ATOM      1  C   UNL     1       5.470   0.539   0.933  0.00  0.00    +0.232 C 
ATOM      2  O   UNL     1       5.172   0.967   2.027  0.00  0.00    -0.274 OA
ATOM      3  N   UNL     1       5.295   1.306  -0.162  0.00  0.00    -0.304 N 
ATOM      4  H   UNL     1       5.566   0.918  -1.155  0.00  0.00    +0.149 HD
ENDROOT
BRANCH   1   5
ATOM      5  C   UNL     1       6.038  -0.850   0.796  0.00  0.00    +0.213 C 
BRANCH   5   9
ATOM      6  C   UNL     1       5.681  -2.638   4.032  0.00  0.00    +0.135 C 
ATOM      7  C   UNL     1       5.147  -2.203   2.682  0.00  0.00    +0.251 C 
ATOM      8  O   UNL     1       4.061  -2.459   2.207  0.00  0.00    -0.272 OA
ATOM      9  N   UNL     1       6.130  -1.472   2.119  0.00  0.00    -0.215 N 
ATOM     10  C   UNL     1       7.201  -1.391   2.916  0.00  0.00    +0.310 C 
ATOM     11  O   UNL     1       8.216  -0.788   2.624  0.00  0.00    -0.252 OA
ATOM     12  N   UNL     1       7.029  -2.047   4.078  0.00  0.00    -0.281 N 
ATOM     13  C   UNL     1       4.808  -2.085   5.160  0.00  0.00    +0.047 C 
ATOM     14  H   UNL     1       7.666  -2.197   4.962  0.00  0.00    +0.152 HD
BRANCH   6  19
ATOM     15  C   UNL     1       5.977  -8.401   4.340  0.00  0.00    +0.044 C 
ATOM     16  C   UNL     1       5.900  -6.898   4.260  0.00  0.00    -0.050 A 
ATOM     17  C   UNL     1       6.793  -6.121   4.973  0.00  0.00    +0.004 A 
ATOM     18  C   UNL     1       6.723  -4.743   4.899  0.00  0.00    +0.006 A 
ATOM     19  C   UNL     1       5.758  -4.141   4.112  0.00  0.00    -0.015 A 
ATOM     20  C   UNL     1       4.862  -4.918   3.403  0.00  0.00    +0.006 A 
ATOM     21  C   UNL     1       4.936  -6.297   3.473  0.00  0.00    +0.004 A 
ENDBRANCH   6  19
ENDBRANCH   5   9
ENDBRANCH   1   5
BRANCH   3  22
ATOM     22  C   UNL     1       4.743   2.656  -0.029  0.00  0.00    +0.143 C 
BRANCH  22  23
ATOM     23  C   UNL     1       3.238   2.585  -0.015  0.00  0.00    +0.129 A 
ATOM     24  N   UNL     1       2.512   1.434  -0.014  0.00  0.00    -0.340 N 
ATOM     25  H   UNL     1       3.025   0.461  -0.023  0.00  0.00    +0.167 HD
ATOM     26  C   UNL     1       1.178   1.790   0.000  0.00  0.00    +0.066 A 
ATOM     27  C   UNL     1      -0.013   1.076   0.008  0.00  0.00    +0.028 A 
ATOM     28  C   UNL     1      -1.214   1.752   0.017  0.00  0.00    +0.002 A 
ATOM     29  C   UNL     1      -1.240   3.139   0.031  0.00  0.00    +0.002 A 
ATOM     30  C   UNL     1      -0.078   3.858   0.023  0.00  0.00    +0.030 A 
ATOM     31  C   UNL     1       1.151   3.194   0.008  0.00  0.00    +0.089 A 
ATOM     32  N   UNL     1       2.442   3.615  -0.002  0.00  0.00    -0.231 NA
ENDBRANCH  22  23
BRANCH  22  33
ATOM     33  C   UNL     1       5.202   3.513  -1.211  0.00  0.00    +0.065 C 
BRANCH  33  34
ATOM     34  C   UNL     1       6.697   3.687  -1.155  0.00  0.00    -0.045 A 
ATOM     35  C   UNL     1       7.244   4.757  -0.472  0.00  0.00    +0.004 A 
ATOM     36  C   UNL     1       8.617   4.913  -0.416  0.00  0.00    +0.000 A 
ATOM     37  C   UNL     1       9.442   4.005  -1.052  0.00  0.00    +0.000 A 
ATOM     38  C   UNL     1       8.895   2.938  -1.740  0.00  0.00    +0.000 A 
ATOM     39  C   UNL     1       7.523   2.779  -1.791  0.00  0.00    +0.004 A 
ENDBRANCH  33  34
ENDBRANCH  22  33
ENDBRANCH   3  22
TORSDOF 7
