REMARK  Name = ZINC41604901
REMARK  4 active torsions:
REMARK  status: ('A' for Active; 'I' for Inactive)
REMARK    1  A    between atoms: C_1  and  C_2
REMARK    2  A    between atoms: N_5  and  C_8
REMARK    3  A    between atoms: C_8  and  C_9
REMARK    4  A    between atoms: C_12  and  N_15
REMARK                            x       y       z     vdW  Elec       q    Type
REMARK                         _______ _______ _______ _____ _____    ______ ____
ROOT
ATOM      1  C   UNL     1      -0.134  -4.415   2.715  0.00  0.00    -0.064 A 
ATOM      2  C   UNL     1       1.178  -4.849   2.765  0.00  0.00    +0.003 A 
ATOM      3  C   UNL     1       1.734  -5.231   3.970  0.00  0.00    +0.023 A 
ATOM      4  C   UNL     1       0.975  -5.178   5.132  0.00  0.00    +0.034 A 
ATOM      5  C   UNL     1      -0.343  -4.742   5.077  0.00  0.00    +0.023 A 
ATOM      6  C   UNL     1      -0.892  -4.357   3.870  0.00  0.00    +0.003 A 
ENDROOT
BRANCH   4   7
ATOM      7  N   UNL     1       1.535  -5.565   6.353  0.00  0.00    -0.285 N 
ATOM      8  C   UNL     1       2.864  -5.337   6.601  0.00  0.00    +0.200 A 
ATOM      9  N   UNL     1       3.427  -5.823   7.740  0.00  0.00    -0.295 N 
ATOM     10  H   UNL     1       2.893  -6.331   8.371  0.00  0.00    +0.172 HD
ATOM     11  C   UNL     1       4.732  -5.594   7.985  0.00  0.00    +0.256 A 
ATOM     12  O   UNL     1       5.255  -6.022   9.002  0.00  0.00    -0.267 OA
ATOM     13  C   UNL     1       5.487  -4.854   7.050  0.00  0.00    +0.038 A 
ATOM     14  C   UNL     1       4.876  -4.400   5.926  0.00  0.00    +0.053 A 
ATOM     15  N   UNL     1       3.577  -4.656   5.730  0.00  0.00    -0.220 NA
ATOM     16  C   UNL     1       5.605  -3.620   4.863  0.00  0.00    +0.056 C 
ATOM     17  C   UNL     1       6.911  -3.051   5.415  0.00  0.00    +0.006 C 
ATOM     18  C   UNL     1       7.689  -4.189   6.088  0.00  0.00    +0.005 C 
ATOM     19  C   UNL     1       6.939  -4.600   7.354  0.00  0.00    +0.042 C 
ATOM     20  H   UNL     1       0.984  -5.994   7.026  0.00  0.00    +0.155 HD
ENDBRANCH   4   7
BRANCH   1  21
ATOM     21  C   UNL     1      -0.739  -3.999   1.398  0.00  0.00    -0.043 C 
BRANCH  21  26
ATOM     22  C   UNL     1       0.644   1.221  -0.435  0.00  0.00    +0.007 C 
ATOM     23  C   UNL     1       0.463  -0.295  -0.332  0.00  0.00    -0.018 C 
ATOM     24  C   UNL     1      -1.028  -0.625  -0.220  0.00  0.00    -0.016 C 
ATOM     25  C   UNL     1      -1.198  -2.135  -0.037  0.00  0.00    -0.078 C 
ATOM     26  N   UNL     1      -0.508  -2.564   1.185  0.00  0.00    +0.382 N 
ATOM     27  C   UNL     1       0.933  -2.316   1.056  0.00  0.00    -0.078 C 
ATOM     28  C   UNL     1       1.185  -0.813   0.915  0.00  0.00    -0.016 C 
ATOM     29  H   UNL     1      -0.868  -2.047   1.973  0.00  0.00    -0.081 HD
ENDBRANCH  21  26
ENDBRANCH   1  21
TORSDOF 3
