REMARK  Name = ZINC36203525
REMARK  11 active torsions:
REMARK  status: ('A' for Active; 'I' for Inactive)
REMARK    1  A    between atoms: C_1  and  C_2
REMARK    2  A    between atoms: C_5  and  C_7
REMARK    3  A    between atoms: C_7  and  N_8
REMARK    4  A    between atoms: N_8  and  C_9
REMARK    5  A    between atoms: N_8  and  C_15
REMARK    6  A    between atoms: C_9  and  C_10
REMARK    7  A    between atoms: C_15  and  C_16
REMARK    8  A    between atoms: C_19  and  C_21
REMARK    9  A    between atoms: C_21  and  C_22
REMARK   10  A    between atoms: C_21  and  C_29
REMARK   11  A    between atoms: C_21  and  O_36
REMARK                            x       y       z     vdW  Elec       q    Type
REMARK                         _______ _______ _______ _____ _____    ______ ____
ROOT
ATOM      1  C   UNL     1       2.988  -6.236  -3.100  0.00  0.00    +0.089 A 
ATOM      2  C   UNL     1       3.878  -6.130  -4.103  0.00  0.00    +0.043 A 
ATOM      3  C   UNL     1       3.215  -6.540  -5.283  0.00  0.00    +0.048 A 
ATOM      4  C   UNL     1       1.960  -6.872  -4.930  0.00  0.00    +0.146 A 
ATOM      5  O   UNL     1       1.830  -6.691  -3.606  0.00  0.00    -0.463 OA
ENDROOT
BRANCH   1   6
ATOM      6  C   UNL     1       3.248  -5.905  -1.653  0.00  0.00    -0.002 C 
BRANCH   6   7
ATOM      7  N   UNL     1       3.044  -4.467  -1.435  0.00  0.00    +0.392 N 
ATOM      8  H   UNL     1       3.619  -3.944  -2.078  0.00  0.00    -0.080 HD
BRANCH   7   9
ATOM      9  C   UNL     1       1.631  -4.134  -1.659  0.00  0.00    -0.034 C 
BRANCH   9  14
ATOM     10  C   UNL     1       0.765   1.300  -0.310  0.00  0.00    +0.051 C 
ATOM     11  C   UNL     1       1.032  -0.055  -0.914  0.00  0.00    -0.013 A 
ATOM     12  C   UNL     1       1.313  -0.376  -2.200  0.00  0.00    +0.011 A 
ATOM     13  C   UNL     1       1.524  -1.702  -2.529  0.00  0.00    +0.009 A 
ATOM     14  C   UNL     1       1.444  -2.642  -1.556  0.00  0.00    -0.026 A 
ATOM     15  S   UNL     1       1.066  -1.653  -0.118  0.00  0.00    -0.100 S 
ENDBRANCH   9  14
ENDBRANCH   7   9
BRANCH   7  16
ATOM     16  C   UNL     1       3.415  -4.123  -0.055  0.00  0.00    -0.002 C 
BRANCH  16  17
ATOM     17  C   UNL     1       4.896  -4.325   0.131  0.00  0.00    +0.089 A 
ATOM     18  C   UNL     1       5.847  -3.392  -0.058  0.00  0.00    +0.042 A 
ATOM     19  C   UNL     1       7.088  -4.008   0.228  0.00  0.00    +0.041 A 
ATOM     20  C   UNL     1       6.820  -5.280   0.575  0.00  0.00    +0.195 A 
ATOM     21  O   UNL     1       5.491  -5.465   0.520  0.00  0.00    -0.470 OA
ENDBRANCH  16  17
ENDBRANCH   7  16
ENDBRANCH   6   7
ENDBRANCH   1   6
BRANCH   4  22
ATOM     22  C   UNL     1       0.885  -7.367  -5.862  0.00  0.00    +0.174 C 
BRANCH  22  23
ATOM     23  C   UNL     1      -0.047  -8.284  -5.111  0.00  0.00    -0.002 A 
ATOM     24  C   UNL     1      -0.091  -9.630  -5.422  0.00  0.00    +0.007 A 
ATOM     25  C   UNL     1      -0.946 -10.472  -4.735  0.00  0.00    +0.003 A 
ATOM     26  C   UNL     1      -1.757  -9.968  -3.735  0.00  0.00    +0.038 A 
ATOM     27  C   UNL     1      -1.713  -8.620  -3.423  0.00  0.00    +0.124 A 
ATOM     28  C   UNL     1      -0.853  -7.779  -4.108  0.00  0.00    +0.045 A 
ATOM     29  F   UNL     1      -2.506  -8.126  -2.447  0.00  0.00    -0.205 F 
ENDBRANCH  22  23
BRANCH  22  30
ATOM     30  C   UNL     1       0.108  -6.194  -6.402  0.00  0.00    -0.002 A 
ATOM     31  C   UNL     1      -0.210  -5.135  -5.572  0.00  0.00    +0.007 A 
ATOM     32  C   UNL     1      -0.922  -4.058  -6.066  0.00  0.00    +0.003 A 
ATOM     33  C   UNL     1      -1.317  -4.040  -7.391  0.00  0.00    +0.038 A 
ATOM     34  C   UNL     1      -0.999  -5.099  -8.223  0.00  0.00    +0.124 A 
ATOM     35  C   UNL     1      -0.281  -6.175  -7.728  0.00  0.00    +0.045 A 
ATOM     36  F   UNL     1      -1.386  -5.082  -9.517  0.00  0.00    -0.205 F 
ENDBRANCH  22  30
BRANCH  22  37
ATOM     37  O   UNL     1       1.484  -8.081  -6.945  0.00  0.00    -0.372 OA
ATOM     38  H   UNL     1       2.098  -7.552  -7.473  0.00  0.00    +0.212 HD
ENDBRANCH  22  37
ENDBRANCH   4  22
TORSDOF 10
