REMARK  Name = ZINC39481408
REMARK  10 active torsions:
REMARK  status: ('A' for Active; 'I' for Inactive)
REMARK    1  A    between atoms: C_1  and  C_2
REMARK    2  A    between atoms: C_2  and  C_3
REMARK    3  A    between atoms: C_3  and  C_4
REMARK    4  A    between atoms: C_7  and  N_18
REMARK    5  A    between atoms: C_8  and  N_10
REMARK    6  A    between atoms: N_18  and  S_19
REMARK    7  A    between atoms: S_19  and  S_22
REMARK    8  A    between atoms: S_22  and  C_25
REMARK    9  A    between atoms: C_25  and  C_26
REMARK   10  A    between atoms: C_25  and  C_27
REMARK                            x       y       z     vdW  Elec       q    Type
REMARK                         _______ _______ _______ _____ _____    ______ ____
ROOT
ATOM      1  C   UNL     1      -0.883  -2.083   0.338  0.00  0.00    -0.046 A 
ATOM      2  C   UNL     1      -0.974  -2.661  -0.915  0.00  0.00    +0.005 A 
ATOM      3  C   UNL     1      -1.131  -4.029  -1.040  0.00  0.00    +0.026 A 
ATOM      4  C   UNL     1      -1.197  -4.826   0.093  0.00  0.00    +0.070 A 
ATOM      5  C   UNL     1      -1.105  -4.243   1.357  0.00  0.00    +0.053 A 
ATOM      6  C   UNL     1      -0.942  -2.871   1.473  0.00  0.00    +0.028 A 
ENDROOT
BRANCH   5   7
ATOM      7  N   UNL     1      -1.171  -5.042   2.505  0.00  0.00    -0.325 N 
ATOM      8  C   UNL     1       0.048  -5.609   3.101  0.00  0.00    +0.120 C 
ATOM      9  C   UNL     1       0.061  -5.271   4.596  0.00  0.00    +0.101 C 
ATOM     10  N   UNL     1      -1.196  -5.719   5.208  0.00  0.00    -0.302 NA
ATOM     11  C   UNL     1      -2.349  -5.007   4.639  0.00  0.00    +0.139 C 
ATOM     12  C   UNL     1      -2.461  -5.330   3.150  0.00  0.00    +0.135 C 
ATOM     13 BR   UNL     1      -3.990  -5.574   5.562  0.00  0.00    -0.070 Br
ATOM     14  H   UNL     1      -1.307  -6.718   5.117  0.00  0.00    +0.123 HD
ENDBRANCH   5   7
BRANCH   4  15
ATOM     15  N   UNL     1      -1.356  -6.211  -0.031  0.00  0.00    -0.199 N 
ATOM     16  H   UNL     1      -1.889  -6.698   0.617  0.00  0.00    +0.175 HD
BRANCH  15  17
ATOM     17  S   UNL     1      -0.635  -7.019  -1.284  0.00  0.00    +0.168 S 
ATOM     18  O   UNL     1      -0.859  -8.404  -1.057  0.00  0.00    -0.132 OA
ATOM     19  O   UNL     1      -1.046  -6.366  -2.478  0.00  0.00    -0.132 OA
BRANCH  17  20
ATOM     20  S   UNL     1       1.386  -6.717  -1.117  0.00  0.00    +0.105 S 
ATOM     21  O   UNL     1       1.559  -5.318  -1.299  0.00  0.00    -0.151 OA
ATOM     22  O   UNL     1       1.745  -7.338   0.110  0.00  0.00    -0.151 OA
BRANCH  20  23
ATOM     23  C   UNL     1       2.110  -7.623  -2.512  0.00  0.00    +0.150 C 
ATOM     24  C   UNL     1       3.636  -7.570  -2.417  0.00  0.00    +0.033 C 
ATOM     25  C   UNL     1       1.646  -9.080  -2.469  0.00  0.00    +0.033 C 
ENDBRANCH  20  23
ENDBRANCH  17  20
ENDBRANCH  15  17
ENDBRANCH   4  15
BRANCH   1  26
ATOM     26  C   UNL     1      -0.712  -0.592   0.466  0.00  0.00    +0.035 C 
BRANCH  26  28
ATOM     27  C   UNL     1       0.953   1.266   0.604  0.00  0.00    +0.004 C 
ATOM     28  C   UNL     1       0.779  -0.248   0.473  0.00  0.00    +0.001 C 
ENDBRANCH  26  28
ENDBRANCH   1  26
TORSDOF 7
