REMARK  Name = ZINC37376382
REMARK  3 active torsions:
REMARK  status: ('A' for Active; 'I' for Inactive)
REMARK    1  A    between atoms: C_2  and  S_8
REMARK    2  A    between atoms: S_8  and  N_11
REMARK    3  A    between atoms: C_15  and  N_17
REMARK                            x       y       z     vdW  Elec       q    Type
REMARK                         _______ _______ _______ _____ _____    ______ ____
ROOT
ATOM      1  S   UNL     1       1.208   3.800   0.010  0.00  0.00    +0.061 S 
ATOM      2  O   UNL     1       2.099   4.200  -1.022  0.00  0.00    -0.153 OA
ATOM      3  O   UNL     1      -0.148   4.224   0.052  0.00  0.00    -0.153 OA
ENDROOT
BRANCH   1   5
ATOM      4  C   UNL     1      -0.016   1.352   0.009  0.00  0.00    +0.057 A 
ATOM      5  C   UNL     1       1.185   2.038   0.002  0.00  0.00    +0.132 A 
ATOM      6  C   UNL     1       2.344   1.335  -0.013  0.00  0.00    +0.106 A 
ATOM      7  S   UNL     1       1.753  -0.350  -0.017  0.00  0.00    -0.063 S 
ATOM      8  C   UNL     1       0.002  -0.004   0.002  0.00  0.00    +0.081 A 
ATOM      9 CL   UNL     1      -1.332  -1.115   0.010  0.00  0.00    -0.076 Cl
ATOM     10 CL   UNL     1       3.978   1.920  -0.026  0.00  0.00    -0.074 Cl
ENDBRANCH   1   5
BRANCH   1  11
ATOM     11  N   UNL     1       1.896   4.274   1.440  0.00  0.00    -0.191 NA
ATOM     12  C   UNL     1       1.173   4.525   2.700  0.00  0.00    +0.107 C 
ATOM     13  C   UNL     1       2.232   4.319   3.812  0.00  0.00    +0.017 C 
ATOM     14  C   UNL     1       3.503   4.907   3.145  0.00  0.00    +0.002 C 
ATOM     15  C   UNL     1       3.330   4.507   1.665  0.00  0.00    +0.019 C 
BRANCH  15  16
ATOM     16  N   UNL     1       3.801   5.596   0.798  0.00  0.00    +0.389 N 
ATOM     17  H   UNL     1       3.289   6.439   1.009  0.00  0.00    -0.088 HD
ATOM     18  H   UNL     1       4.785   5.750   0.957  0.00  0.00    -0.088 HD
ATOM     19  H   UNL     1       3.652   5.345  -0.168  0.00  0.00    -0.088 HD
ENDBRANCH  15  16
ENDBRANCH   1  11
TORSDOF 3
