REMARK  Name = ZINC09948733
REMARK  15 active torsions:
REMARK  status: ('A' for Active; 'I' for Inactive)
REMARK    1  A    between atoms: C_1  and  C_2
REMARK    2  A    between atoms: C_2  and  C_3
REMARK    3  A    between atoms: C_2  and  C_4
REMARK    4  A    between atoms: C_2  and  C_5
REMARK    5  A    between atoms: C_8  and  C_11
REMARK    6  A    between atoms: C_14  and  C_16
REMARK    7  A    between atoms: N_18  and  N_19
REMARK    8  A    between atoms: C_20  and  C_21
REMARK    9  A    between atoms: N_22  and  N_23
REMARK   10  A    between atoms: C_24  and  C_26
REMARK   11  A    between atoms: C_29  and  C_31
REMARK   12  A    between atoms: C_34  and  C_37
REMARK   13  A    between atoms: C_37  and  C_38
REMARK   14  A    between atoms: C_37  and  C_39
REMARK   15  A    between atoms: C_37  and  C_40
REMARK                            x       y       z     vdW  Elec       q    Type
REMARK                         _______ _______ _______ _____ _____    ______ ____
ROOT
ATOM      1  N   UNL     1      -4.605   1.183   5.565  0.00  0.00    -0.187 NA
ATOM      2  C   UNL     1      -4.166   1.754   4.481  0.00  0.00    +0.151 C 
ENDROOT
BRANCH   1   5
ATOM      3  C   UNL     1      -6.104   1.179   7.414  0.00  0.00    +0.236 C 
ATOM      4  O   UNL     1      -5.608   0.140   7.796  0.00  0.00    -0.274 OA
ATOM      5  N   UNL     1      -5.650   1.770   6.291  0.00  0.00    -0.207 N 
ATOM      6  H   UNL     1      -6.046   2.600   5.986  0.00  0.00    +0.177 HD
BRANCH   3   9
ATOM      7  C   UNL     1      -7.699   1.091   9.461  0.00  0.00    +0.032 C 
ATOM      8  C   UNL     1      -8.575   1.083   8.207  0.00  0.00    +0.022 C 
ATOM      9  C   UNL     1      -7.228   1.810   8.195  0.00  0.00    +0.085 C 
BRANCH   7  13
ATOM     10  C   UNL     1      -5.727  -2.550  10.512  0.00  0.00    -0.042 A 
ATOM     11  C   UNL     1      -5.708  -1.477  11.383  0.00  0.00    +0.004 A 
ATOM     12  C   UNL     1      -6.346  -0.299  11.043  0.00  0.00    +0.004 A 
ATOM     13  C   UNL     1      -7.003  -0.194   9.832  0.00  0.00    -0.044 A 
ATOM     14  C   UNL     1      -7.026  -1.268   8.962  0.00  0.00    +0.004 A 
ATOM     15  C   UNL     1      -6.384  -2.445   9.300  0.00  0.00    +0.004 A 
BRANCH  10  17
ATOM     16  C   UNL     1      -5.644  -4.393  12.169  0.00  0.00    +0.015 C 
ATOM     17  C   UNL     1      -5.032  -3.835  10.883  0.00  0.00    -0.013 C 
ATOM     18  C   UNL     1      -5.204  -4.852   9.753  0.00  0.00    +0.015 C 
ATOM     19  C   UNL     1      -3.542  -3.563  11.103  0.00  0.00    +0.015 C 
ENDBRANCH  10  17
ENDBRANCH   7  13
ENDBRANCH   3   9
ENDBRANCH   1   5
BRANCH   2  20
ATOM     20  C   UNL     1      -3.075   1.142   3.723  0.00  0.00    +0.151 C 
ATOM     21  N   UNL     1      -2.636   1.712   2.638  0.00  0.00    -0.187 NA
BRANCH  21  22
ATOM     22  N   UNL     1      -1.591   1.126   1.912  0.00  0.00    -0.207 N 
ATOM     23  C   UNL     1      -1.137   1.716   0.789  0.00  0.00    +0.236 C 
ATOM     24  O   UNL     1      -1.633   2.755   0.407  0.00  0.00    -0.274 OA
ATOM     25  H   UNL     1      -1.195   0.295   2.218  0.00  0.00    +0.177 HD
BRANCH  23  26
ATOM     26  C   UNL     1      -0.013   1.086   0.008  0.00  0.00    +0.085 C 
ATOM     27  C   UNL     1       1.335   1.811  -0.001  0.00  0.00    +0.022 C 
ATOM     28  C   UNL     1       0.460   1.806  -1.256  0.00  0.00    +0.032 C 
BRANCH  28  29
ATOM     29  C   UNL     1      -0.234   3.091  -1.626  0.00  0.00    -0.044 A 
ATOM     30  C   UNL     1      -0.220   4.161  -0.750  0.00  0.00    +0.004 A 
ATOM     31  C   UNL     1      -0.853   5.341  -1.091  0.00  0.00    +0.004 A 
ATOM     32  C   UNL     1      -1.507   5.450  -2.304  0.00  0.00    -0.042 A 
ATOM     33  C   UNL     1      -1.526   4.378  -3.178  0.00  0.00    +0.004 A 
ATOM     34  C   UNL     1      -0.889   3.199  -2.838  0.00  0.00    +0.004 A 
BRANCH  32  35
ATOM     35  C   UNL     1      -2.200   6.736  -2.674  0.00  0.00    -0.013 C 
ATOM     36  C   UNL     1      -3.690   6.466  -2.897  0.00  0.00    +0.015 C 
ATOM     37  C   UNL     1      -2.030   7.751  -1.542  0.00  0.00    +0.015 C 
ATOM     38  C   UNL     1      -1.585   7.295  -3.958  0.00  0.00    +0.015 C 
ENDBRANCH  32  35
ENDBRANCH  28  29
ENDBRANCH  23  26
ENDBRANCH  21  22
ENDBRANCH   2  20
TORSDOF 9
