REMARK  Name = ZINC02884384
REMARK  6 active torsions:
REMARK  status: ('A' for Active; 'I' for Inactive)
REMARK    1  A    between atoms: C_1  and  C_2
REMARK    2  A    between atoms: C_4  and  S_10
REMARK    3  A    between atoms: C_7  and  O_8
REMARK    4  A    between atoms: O_8  and  C_9
REMARK    5  A    between atoms: S_10  and  N_13
REMARK    6  A    between atoms: N_13  and  C_14
REMARK                            x       y       z     vdW  Elec       q    Type
REMARK                         _______ _______ _______ _____ _____    ______ ____
ROOT
ATOM      1  S   UNL     1      -2.501  -0.454   0.729  0.00  0.00    +0.072 S 
ATOM      2  O   UNL     1      -3.810  -0.952   0.489  0.00  0.00    -0.150 OA
ATOM      3  O   UNL     1      -1.333  -1.155   0.323  0.00  0.00    -0.150 OA
ENDROOT
BRANCH   1   7
ATOM      4  C   UNL     1      -4.641   0.379   5.423  0.00  0.00    +0.047 C 
ATOM      5  C   UNL     1      -3.400   0.169   4.594  0.00  0.00    -0.007 A 
ATOM      6  C   UNL     1      -3.503  -0.020   3.229  0.00  0.00    +0.035 A 
ATOM      7  C   UNL     1      -2.365  -0.212   2.469  0.00  0.00    +0.109 A 
ATOM      8  C   UNL     1      -1.121  -0.220   3.071  0.00  0.00    +0.032 A 
ATOM      9  C   UNL     1      -1.011  -0.025   4.434  0.00  0.00    +0.048 A 
ATOM     10  C   UNL     1      -2.152   0.167   5.200  0.00  0.00    +0.123 A 
BRANCH  10  11
ATOM     11  O   UNL     1      -2.047   0.353   6.543  0.00  0.00    -0.495 OA
ATOM     12  C   UNL     1      -0.731   0.338   7.099  0.00  0.00    +0.277 C 
ENDBRANCH  10  11
ENDBRANCH   1   7
BRANCH   1  13
ATOM     13  N   UNL     1      -2.427   1.041   0.019  0.00  0.00    -0.215 N 
ATOM     14  H   UNL     1      -3.171   1.363  -0.513  0.00  0.00    +0.174 HD
BRANCH  13  15
ATOM     15  C   UNL     1      -1.291   1.838   0.188  0.00  0.00    +0.066 A 
ATOM     16  C   UNL     1      -0.033   1.253   0.253  0.00  0.00    +0.027 A 
ATOM     17  C   UNL     1       1.088   2.044   0.413  0.00  0.00    +0.022 A 
ATOM     18  C   UNL     1       0.959   3.418   0.514  0.00  0.00    +0.042 A 
ATOM     19  C   UNL     1      -0.293   4.004   0.456  0.00  0.00    +0.042 A 
ATOM     20  C   UNL     1      -1.418   3.218   0.295  0.00  0.00    +0.065 A 
ATOM     21 CL   UNL     1      -2.989   3.954   0.220  0.00  0.00    -0.082 Cl
ATOM     22 CL   UNL     1       2.370   4.408   0.716  0.00  0.00    -0.083 Cl
ENDBRANCH  13  15
ENDBRANCH   1  13
TORSDOF 4
