REMARK  Name = ZINC31040352
REMARK  6 active torsions:
REMARK  status: ('A' for Active; 'I' for Inactive)
REMARK    1  A    between atoms: C_4  and  C_7
REMARK    2  A    between atoms: C_7  and  C_8
REMARK    3  A    between atoms: C_8  and  C_10
REMARK    4  A    between atoms: C_8  and  N_20
REMARK    5  A    between atoms: C_21  and  C_23
REMARK    6  A    between atoms: C_23  and  N_24
REMARK                            x       y       z     vdW  Elec       q    Type
REMARK                         _______ _______ _______ _____ _____    ______ ____
ROOT
ATOM      1  N   UNL     1      -2.756   3.152   1.700  0.00  0.00    -0.304 N 
ATOM      2  C   UNL     1      -1.651   2.423   1.444  0.00  0.00    +0.232 C 
ATOM      3  O   UNL     1      -0.989   1.984   2.360  0.00  0.00    -0.274 OA
ATOM      4  H   UNL     1      -3.356   3.550   0.869  0.00  0.00    +0.149 HD
ENDROOT
BRANCH   1   5
ATOM      5  C   UNL     1      -3.156   3.413   3.084  0.00  0.00    +0.143 C 
BRANCH   5   6
ATOM      6  C   UNL     1      -4.640   3.673   3.138  0.00  0.00    +0.129 A 
ATOM      7  N   UNL     1      -5.487   3.575   2.077  0.00  0.00    -0.340 N 
ATOM      8  H   UNL     1      -5.099   3.289   1.088  0.00  0.00    +0.167 HD
ATOM      9  C   UNL     1      -6.752   3.885   2.533  0.00  0.00    +0.066 A 
ATOM     10  C   UNL     1      -8.004   3.956   1.936  0.00  0.00    +0.028 A 
ATOM     11  C   UNL     1      -9.101   4.314   2.691  0.00  0.00    +0.002 A 
ATOM     12  C   UNL     1      -8.961   4.603   4.041  0.00  0.00    +0.002 A 
ATOM     13  C   UNL     1      -7.738   4.539   4.645  0.00  0.00    +0.030 A 
ATOM     14  C   UNL     1      -6.612   4.178   3.900  0.00  0.00    +0.089 A 
ATOM     15  N   UNL     1      -5.297   4.029   4.203  0.00  0.00    -0.231 NA
ENDBRANCH   5   6
BRANCH   5  16
ATOM     16  C   UNL     1      -2.405   4.638   3.610  0.00  0.00    +0.065 C 
BRANCH  16  20
ATOM     17  C   UNL     1       1.775   3.777   3.787  0.00  0.00    +0.000 A 
ATOM     18  C   UNL     1       1.229   4.317   2.638  0.00  0.00    +0.000 A 
ATOM     19  C   UNL     1      -0.124   4.596   2.581  0.00  0.00    +0.004 A 
ATOM     20  C   UNL     1      -0.930   4.334   3.673  0.00  0.00    -0.045 A 
ATOM     21  C   UNL     1      -0.383   3.799   4.824  0.00  0.00    +0.004 A 
ATOM     22  C   UNL     1       0.969   3.515   4.879  0.00  0.00    +0.000 A 
ENDBRANCH  16  20
ENDBRANCH   5  16
ENDBRANCH   1   5
BRANCH   2  23
ATOM     23  C   UNL     1      -1.239   2.154   0.020  0.00  0.00    +0.213 C 
BRANCH  23  24
ATOM     24  N   UNL     1      -0.016   1.347   0.009  0.00  0.00    -0.215 N 
ATOM     25  C   UNL     1       0.002  -0.004   0.002  0.00  0.00    +0.251 C 
ATOM     26  O   UNL     1      -0.951  -0.753   0.007  0.00  0.00    -0.272 OA
ATOM     27  C   UNL     1       1.461  -0.380  -0.014  0.00  0.00    +0.138 C 
ATOM     28  C   UNL     1       1.808  -1.212  -1.255  0.00  0.00    +0.045 C 
ATOM     29  C   UNL     1       2.921  -2.143  -0.723  0.00  0.00    +0.038 C 
ATOM     30  C   UNL     1       2.674  -2.246   0.768  0.00  0.00    -0.042 A 
ATOM     31  C   UNL     1       1.830  -1.225   1.175  0.00  0.00    -0.012 A 
ATOM     32  C   UNL     1       1.468  -1.125   2.508  0.00  0.00    +0.006 A 
ATOM     33  C   UNL     1       1.944  -2.037   3.430  0.00  0.00    +0.000 A 
ATOM     34  C   UNL     1       2.785  -3.054   3.023  0.00  0.00    +0.000 A 
ATOM     35  C   UNL     1       3.148  -3.158   1.694  0.00  0.00    +0.004 A 
ATOM     36  N   UNL     1       2.172   0.899  -0.013  0.00  0.00    -0.281 N 
ATOM     37  C   UNL     1       1.222   1.856   0.000  0.00  0.00    +0.310 C 
ATOM     38  O   UNL     1       1.464   3.048   0.004  0.00  0.00    -0.252 OA
ATOM     39  H   UNL     1       3.271   0.916  -0.023  0.00  0.00    +0.152 HD
ENDBRANCH  23  24
ENDBRANCH   2  23
TORSDOF 6
