REMARK  Name = ZINC13730763
REMARK  8 active torsions:
REMARK  status: ('A' for Active; 'I' for Inactive)
REMARK    1  A    between atoms: C_1  and  C_2
REMARK    2  A    between atoms: C_2  and  C_3
REMARK    3  A    between atoms: C_3  and  C_4
REMARK    4  A    between atoms: C_4  and  C_6
REMARK    5  A    between atoms: C_4  and  N_45
REMARK    6  A    between atoms: C_12  and  C_13
REMARK    7  A    between atoms: C_12  and  N_45
REMARK    8  A    between atoms: C_16  and  C_18
REMARK                            x       y       z     vdW  Elec       q    Type
REMARK                         _______ _______ _______ _____ _____    ______ ____
ROOT
ATOM      1  C   UNL     1      -4.931   2.761  -1.046  0.00  0.00    -0.006 C 
ENDROOT
BRANCH   1   2
ATOM      2  C   UNL     1      -3.662   2.602  -0.250  0.00  0.00    +0.089 A 
ATOM      3  C   UNL     1      -3.275   3.385   0.776  0.00  0.00    +0.043 A 
ATOM      4  C   UNL     1      -2.037   2.888   1.231  0.00  0.00    +0.050 A 
ATOM      5  C   UNL     1      -1.734   1.817   0.449  0.00  0.00    +0.136 A 
ATOM      6  O   UNL     1      -2.726   1.659  -0.448  0.00  0.00    -0.462 OA
BRANCH   5   7
ATOM      7  C   UNL     1      -0.523   0.977   0.561  0.00  0.00    +0.031 A 
ATOM      8  C   UNL     1       0.739   1.570   0.609  0.00  0.00    +0.014 A 
ATOM      9  C   UNL     1       1.866   0.781   0.708  0.00  0.00    +0.016 A 
ATOM     10  C   UNL     1       1.747  -0.598   0.758  0.00  0.00    +0.019 A 
ATOM     11  C   UNL     1       0.498  -1.193   0.711  0.00  0.00    +0.031 A 
ATOM     12  C   UNL     1      -0.638  -0.414   0.613  0.00  0.00    +0.030 A 
ATOM     13 BR   UNL     1      -2.343  -1.228   0.548  0.00  0.00    -0.050 Br
ATOM     14 BR   UNL     1       3.297  -1.673   0.893  0.00  0.00    -0.050 Br
ENDBRANCH   5   7
ENDBRANCH   1   2
BRANCH   1  15
ATOM     15  N   UNL     1      -4.673   3.652  -2.193  0.00  0.00    +0.388 N 
ATOM     16  H   UNL     1      -4.443   4.591  -1.848  0.00  0.00    -0.084 HD
ATOM     17  H   UNL     1      -3.884   3.284  -2.737  0.00  0.00    -0.084 HD
BRANCH  15  18
ATOM     18  C   UNL     1      -5.865   3.731  -3.059  0.00  0.00    -0.040 C 
BRANCH  18  19
ATOM     19  C   UNL     1      -5.852   5.042  -3.801  0.00  0.00    -0.061 A 
ATOM     20  C   UNL     1      -4.663   5.545  -4.294  0.00  0.00    +0.002 A 
ATOM     21  C   UNL     1      -4.652   6.746  -4.979  0.00  0.00    +0.000 A 
ATOM     22  C   UNL     1      -5.828   7.448  -5.162  0.00  0.00    +0.000 A 
ATOM     23  C   UNL     1      -7.017   6.948  -4.665  0.00  0.00    +0.000 A 
ATOM     24  C   UNL     1      -7.029   5.745  -3.984  0.00  0.00    +0.002 A 
ENDBRANCH  18  19
BRANCH  18  25
ATOM     25  C   UNL     1      -5.844   2.576  -4.063  0.00  0.00    -0.011 C 
BRANCH  25  27
ATOM     26  C   UNL     1      -7.097   1.462  -5.916  0.00  0.00    +0.004 C 
ATOM     27  C   UNL     1      -7.141   2.584  -4.876  0.00  0.00    -0.005 C 
ENDBRANCH  25  27
ENDBRANCH  18  25
ENDBRANCH  15  18
ENDBRANCH   1  15
TORSDOF 7
