REMARK  Name = ZINC64022973
REMARK  6 active torsions:
REMARK  status: ('A' for Active; 'I' for Inactive)
REMARK    1  A    between atoms: C_3  and  C_6
REMARK    2  A    between atoms: C_9  and  S_12
REMARK    3  A    between atoms: N_10  and  N_11
REMARK    4  A    between atoms: S_12  and  C_13
REMARK    5  A    between atoms: C_13  and  C_14
REMARK    6  A    between atoms: C_17  and  C_19
REMARK                            x       y       z     vdW  Elec       q    Type
REMARK                         _______ _______ _______ _____ _____    ______ ____
ROOT
ATOM      1  C   UNL     1       3.735   1.821  -0.024  0.00  0.00    +0.188 A 
ATOM      2  N   UNL     1       4.126   3.048  -0.290  0.00  0.00    -0.126 NA
ATOM      3  N   UNL     1       5.406   3.127  -0.209  0.00  0.00    -0.121 NA
ATOM      4  C   UNL     1       5.912   1.958   0.113  0.00  0.00    +0.209 A 
ATOM      5  N   UNL     1       4.867   1.086   0.248  0.00  0.00    -0.223 N 
ENDROOT
BRANCH   1   8
ATOM      6  C   UNL     1      -0.016   1.354   0.009  0.00  0.00    +0.008 A 
ATOM      7  C   UNL     1       1.176   2.042   0.002  0.00  0.00    +0.019 A 
ATOM      8  C   UNL     1       2.348   1.328  -0.013  0.00  0.00    +0.058 A 
ATOM      9  S   UNL     1       1.752  -0.355  -0.017  0.00  0.00    -0.093 S 
ATOM     10  C   UNL     1       0.002  -0.004   0.002  0.00  0.00    +0.046 A 
ENDBRANCH   1   8
BRANCH   5  11
ATOM     11  N   UNL     1       4.934  -0.237   0.579  0.00  0.00    -0.295 N 
ATOM     12  H   UNL     1       5.024  -0.812  -0.245  0.00  0.00    +0.163 HD
ATOM     13  H   UNL     1       5.688  -0.411   1.226  0.00  0.00    +0.163 HD
ENDBRANCH   5  11
BRANCH   4  14
ATOM     14  S   UNL     1       7.620   1.585   0.337  0.00  0.00    -0.078 S 
BRANCH  14  15
ATOM     15  C   UNL     1       8.459   3.162   0.023  0.00  0.00    +0.133 C 
BRANCH  15  16
ATOM     16  C   UNL     1       9.946   2.980   0.183  0.00  0.00    +0.059 A 
ATOM     17  C   UNL     1      10.558   3.160   1.381  0.00  0.00    +0.071 A 
ATOM     18  S   UNL     1      12.253   2.812   0.941  0.00  0.00    -0.080 S 
ATOM     19  C   UNL     1      12.005   2.482  -0.691  0.00  0.00    +0.082 A 
ATOM     20  N   UNL     1      10.712   2.635  -0.833  0.00  0.00    -0.248 NA
BRANCH  19  21
ATOM     21  C   UNL     1      13.023   2.099  -1.734  0.00  0.00    +0.045 C 
ATOM     22  C   UNL     1      13.775   0.826  -1.295  0.00  0.00    +0.010 C 
ATOM     23  C   UNL     1      15.229   1.060  -1.776  0.00  0.00    +0.001 C 
ATOM     24  C   UNL     1      15.437   2.572  -1.513  0.00  0.00    +0.001 C 
ATOM     25  C   UNL     1      14.079   3.209  -1.872  0.00  0.00    +0.010 C 
ENDBRANCH  19  21
ENDBRANCH  15  16
ENDBRANCH  14  15
ENDBRANCH   4  14
TORSDOF 6
