REMARK  Name = ZINC40066624
REMARK  11 active torsions:
REMARK  status: ('A' for Active; 'I' for Inactive)
REMARK    1  A    between atoms: C_1  and  C_2
REMARK    2  A    between atoms: C_2  and  C_3
REMARK    3  A    between atoms: C_3  and  C_5
REMARK    4  A    between atoms: C_3  and  N_6
REMARK    5  A    between atoms: C_10  and  C_11
REMARK    6  A    between atoms: C_12  and  C_32
REMARK    7  A    between atoms: C_13  and  C_30
REMARK    8  A    between atoms: N_16  and  C_29
REMARK    9  A    between atoms: C_17  and  N_18
REMARK   10  A    between atoms: N_18  and  C_19
REMARK   11  A    between atoms: C_19  and  C_20
REMARK                            x       y       z     vdW  Elec       q    Type
REMARK                         _______ _______ _______ _____ _____    ______ ____
ROOT
ATOM      1  C   UNL     1      -0.886   2.043  -6.692  0.00  0.00    +0.019 A 
ATOM      2  C   UNL     1      -2.215   1.588  -6.650  0.00  0.00    -0.017 A 
ATOM      3  C   UNL     1      -3.102   2.010  -7.636  0.00  0.00    +0.120 A 
ATOM      4  C   UNL     1      -2.646   2.885  -8.655  0.00  0.00    +0.270 A 
ATOM      5  O   UNL     1      -3.418   3.259  -9.521  0.00  0.00    -0.266 OA
ATOM      6  N   UNL     1      -1.369   3.306  -8.673  0.00  0.00    -0.298 N 
ATOM      7  C   UNL     1      -0.486   2.913  -7.720  0.00  0.00    +0.109 A 
ATOM      8  C   UNL     1      -0.924   4.210  -9.738  0.00  0.00    +0.154 C 
ATOM      9  C   UNL     1      -2.672   0.658  -5.556  0.00  0.00    +0.046 C 
ENDROOT
BRANCH   1  14
ATOM     10  N   UNL     1       3.366   0.027  -5.832  0.00  0.00    -0.252 N 
ATOM     11  C   UNL     1       2.347   0.618  -5.234  0.00  0.00    +0.259 C 
ATOM     12  O   UNL     1       2.360   0.828  -4.034  0.00  0.00    -0.269 OA
ATOM     13  C   UNL     1       1.230   1.003  -6.036  0.00  0.00    +0.077 C 
ATOM     14  C   UNL     1       0.072   1.618  -5.670  0.00  0.00    +0.032 C 
ATOM     15  S   UNL     1       1.766   0.458  -7.652  0.00  0.00    -0.061 S 
ATOM     16  C   UNL     1       3.354  -0.201  -7.165  0.00  0.00    +0.121 C 
ATOM     17  S   UNL     1       4.554  -0.937  -8.138  0.00  0.00    -0.027 S 
BRANCH  10  18
ATOM     18  C   UNL     1       4.529  -0.382  -5.041  0.00  0.00    +0.080 C 
ATOM     19  C   UNL     1       5.777   0.338  -5.558  0.00  0.00    +0.028 C 
BRANCH  18  21
ATOM     20  C   UNL     1       3.532  -2.617  -4.536  0.00  0.00    +0.006 C 
ATOM     21  C   UNL     1       4.725  -1.895  -5.166  0.00  0.00    +0.019 C 
ENDBRANCH  18  21
ENDBRANCH  10  18
ENDBRANCH   1  14
BRANCH   7  22
ATOM     22  N   UNL     1       0.802   3.362  -7.763  0.00  0.00    -0.326 N 
ATOM     23  H   UNL     1       1.456   2.907  -8.316  0.00  0.00    +0.148 HD
BRANCH  22  24
ATOM     24  C   UNL     1       1.196   4.532  -6.974  0.00  0.00    +0.138 C 
BRANCH  24  25
ATOM     25  C   UNL     1       2.622   4.898  -7.296  0.00  0.00    -0.027 A 
ATOM     26  C   UNL     1       3.658   4.340  -6.569  0.00  0.00    +0.009 A 
ATOM     27  C   UNL     1       4.968   4.672  -6.861  0.00  0.00    +0.050 A 
ATOM     28  C   UNL     1       5.245   5.565  -7.883  0.00  0.00    +0.166 A 
ATOM     29  C   UNL     1       4.202   6.127  -8.615  0.00  0.00    +0.167 A 
ATOM     30  C   UNL     1       2.892   5.785  -8.321  0.00  0.00    +0.054 A 
ATOM     31  O   UNL     1       4.730   6.965  -9.555  0.00  0.00    -0.453 OA
ATOM     32  C   UNL     1       6.079   7.224  -9.124  0.00  0.00    +0.466 C 
ATOM     33  O   UNL     1       6.427   6.051  -8.364  0.00  0.00    -0.453 OA
ENDBRANCH  24  25
ENDBRANCH  22  24
ENDBRANCH   7  22
BRANCH   3  34
ATOM     34  C   UNL     1      -4.463   1.565  -7.622  0.00  0.00    +0.105 C 
ATOM     35  N   UNL     1      -5.542   1.211  -7.611  0.00  0.00    -0.191 NA
ENDBRANCH   3  34
TORSDOF 7
