REMARK  Name = ZINC65237771
REMARK  6 active torsions:
REMARK  status: ('A' for Active; 'I' for Inactive)
REMARK    1  A    between atoms: C_1  and  C_2
REMARK    2  A    between atoms: C_5  and  C_9
REMARK    3  A    between atoms: C_6  and  C_8
REMARK    4  A    between atoms: C_9  and  C_11
REMARK    5  A    between atoms: C_9  and  N_12
REMARK    6  A    between atoms: C_13  and  C_15
REMARK                            x       y       z     vdW  Elec       q    Type
REMARK                         _______ _______ _______ _____ _____    ______ ____
ROOT
ATOM      1  C   UNL     1       1.807  -6.437  -2.593  0.00  0.00    +0.153 C 
ATOM      2  N   UNL     1       1.835  -5.785  -3.720  0.00  0.00    -0.166 NA
ATOM      3  N   UNL     1       2.447  -6.529  -4.737  0.00  0.00    -0.184 N 
ATOM      4  N   UNL     1       2.635  -7.830  -4.289  0.00  0.00    -0.218 N 
ATOM      5  C   UNL     1       2.489  -7.765  -2.813  0.00  0.00    +0.236 C 
ATOM      6  C   UNL     1       1.599  -8.915  -2.414  0.00  0.00    +0.246 C 
ATOM      7  O   UNL     1       0.930  -8.838  -1.405  0.00  0.00    -0.273 OA
ATOM      8  N   UNL     1       1.544 -10.028  -3.173  0.00  0.00    -0.282 N 
ATOM      9  C   UNL     1       2.288 -10.172  -4.349  0.00  0.00    +0.056 A 
ATOM     10  C   UNL     1       2.843  -9.034  -4.953  0.00  0.00    +0.071 A 
ATOM     11  C   UNL     1       3.561  -9.143  -6.123  0.00  0.00    +0.026 A 
ATOM     12  C   UNL     1       3.734 -10.388  -6.707  0.00  0.00    +0.002 A 
ATOM     13  C   UNL     1       3.188 -11.512  -6.117  0.00  0.00    +0.002 A 
ATOM     14  C   UNL     1       2.478 -11.410  -4.936  0.00  0.00    +0.025 A 
ATOM     15  H   UNL     1       2.698  -6.192  -5.611  0.00  0.00    +0.193 HD
ATOM     16  H   UNL     1       0.967 -10.756  -2.893  0.00  0.00    +0.155 HD
ENDROOT
BRANCH   1  18
ATOM     17  N   UNL     1       0.642  -4.749  -1.279  0.00  0.00    -0.304 N 
ATOM     18  C   UNL     1       1.224  -5.963  -1.337  0.00  0.00    +0.263 C 
ATOM     19  O   UNL     1       1.266  -6.666  -0.344  0.00  0.00    -0.269 OA
ATOM     20  H   UNL     1       0.610  -4.189  -2.070  0.00  0.00    +0.150 HD
BRANCH  17  21
ATOM     21  C   UNL     1       0.059  -4.275  -0.021  0.00  0.00    +0.101 C 
ATOM     22  C   UNL     1      -1.370  -4.804   0.109  0.00  0.00    +0.033 C 
BRANCH  21  27
ATOM     23  C   UNL     1      -0.018   1.503   0.010  0.00  0.00    +0.044 C 
ATOM     24  C   UNL     1       0.002  -0.004   0.002  0.00  0.00    -0.050 A 
ATOM     25  C   UNL     1       0.006  -0.689  -1.199  0.00  0.00    +0.004 A 
ATOM     26  C   UNL     1       0.025  -2.071  -1.207  0.00  0.00    +0.006 A 
ATOM     27  C   UNL     1       0.040  -2.768  -0.013  0.00  0.00    -0.025 A 
ATOM     28  C   UNL     1       0.037  -2.084   1.188  0.00  0.00    -0.045 A 
ATOM     29  C   UNL     1       0.023  -0.702   1.195  0.00  0.00    +0.007 A 
ATOM     30  C   UNL     1       0.054  -2.845   2.489  0.00  0.00    +0.044 C 
ENDBRANCH  21  27
ENDBRANCH  17  21
ENDBRANCH   1  18
TORSDOF 3
