REMARK  Name = ZINC03841355
REMARK  6 active torsions:
REMARK  status: ('A' for Active; 'I' for Inactive)
REMARK    1  A    between atoms: C_1  and  C_2
REMARK    2  A    between atoms: C_5  and  S_8
REMARK    3  A    between atoms: S_8  and  N_11
REMARK    4  A    between atoms: N_11  and  C_12
REMARK    5  A    between atoms: C_27  and  C_28
REMARK    6  A    between atoms: C_27  and  N_65
REMARK                            x       y       z     vdW  Elec       q    Type
REMARK                         _______ _______ _______ _____ _____    ______ ____
ROOT
ATOM      1  C   UNL     1      -1.073   1.391  -0.847  0.00  0.00    +0.112 A 
ATOM      2  C   UNL     1      -0.826   2.498  -1.613  0.00  0.00    +0.031 A 
ATOM      3  C   UNL     1       0.432   3.106  -1.536  0.00  0.00    +0.023 A 
ATOM      4  C   UNL     1       1.396   2.598  -0.725  0.00  0.00    +0.023 A 
ATOM      5  N   UNL     1       1.183   1.452  -0.032  0.00  0.00    -0.310 N 
ATOM      6  C   UNL     1      -0.051   0.891  -0.017  0.00  0.00    +0.274 A 
ATOM      7  O   UNL     1      -0.276  -0.058   0.717  0.00  0.00    -0.266 OA
ATOM      8  C   UNL     1       2.248   0.738   0.674  0.00  0.00    +0.127 C 
ATOM      9  C   UNL     1       3.430   1.638   0.994  0.00  0.00    -0.007 C 
ATOM     10  C   UNL     1       3.827   2.424  -0.259  0.00  0.00    +0.011 C 
ATOM     11  C   UNL     1       2.679   3.386  -0.586  0.00  0.00    +0.020 C 
ATOM     12  C   UNL     1       2.508   4.345   0.603  0.00  0.00    -0.069 C 
ATOM     13  C   UNL     1       3.124   2.583   2.147  0.00  0.00    -0.074 C 
ATOM     14  N   UNL     1       2.067   3.540   1.764  0.00  0.00    +0.381 N 
ATOM     15  H   UNL     1       1.222   3.018   1.506  0.00  0.00    -0.082 HD
ENDROOT
BRANCH   1  16
ATOM     16  N   UNL     1      -2.327   0.767  -0.884  0.00  0.00    -0.211 N 
ATOM     17  H   UNL     1      -2.474  -0.055  -0.391  0.00  0.00    +0.174 HD
BRANCH  16  18
ATOM     18  S   UNL     1      -3.558   1.434  -1.769  0.00  0.00    +0.072 S 
ATOM     19  O   UNL     1      -3.009   1.778  -3.033  0.00  0.00    -0.150 OA
ATOM     20  O   UNL     1      -4.673   0.563  -1.634  0.00  0.00    -0.150 OA
BRANCH  18  25
ATOM     21  C   UNL     1      -5.083   6.616   0.918  0.00  0.00    +0.044 C 
ATOM     22  C   UNL     1      -4.703   5.322   0.247  0.00  0.00    -0.050 A 
ATOM     23  C   UNL     1      -3.809   5.327  -0.807  0.00  0.00    +0.005 A 
ATOM     24  C   UNL     1      -3.459   4.140  -1.423  0.00  0.00    +0.029 A 
ATOM     25  C   UNL     1      -4.003   2.947  -0.984  0.00  0.00    +0.109 A 
ATOM     26  C   UNL     1      -4.901   2.943   0.067  0.00  0.00    +0.029 A 
ATOM     27  C   UNL     1      -5.248   4.130   0.685  0.00  0.00    +0.005 A 
ENDBRANCH  18  25
ENDBRANCH  16  18
ENDBRANCH   1  16
BRANCH  14  28
ATOM     28  C   UNL     1       1.753   4.426   2.904  0.00  0.00    -0.075 C 
BRANCH  28  29
ATOM     29  C   UNL     1       3.007   5.166   3.372  0.00  0.00    -0.028 C 
ATOM     30  C   UNL     1       2.934   5.389   4.883  0.00  0.00    +0.002 C 
ATOM     31  C   UNL     1       4.188   6.129   5.351  0.00  0.00    +0.000 C 
ATOM     32  C   UNL     1       4.278   7.481   4.640  0.00  0.00    +0.000 C 
ATOM     33  C   UNL     1       4.352   7.258   3.128  0.00  0.00    +0.000 C 
ATOM     34  C   UNL     1       3.097   6.518   2.660  0.00  0.00    +0.002 C 
ENDBRANCH  28  29
ENDBRANCH  14  28
TORSDOF 5
