REMARK  Name = ZINC46085421
REMARK  4 active torsions:
REMARK  status: ('A' for Active; 'I' for Inactive)
REMARK    1  A    between atoms: C_6  and  C_12
REMARK    2  A    between atoms: C_7  and  O_11
REMARK    3  A    between atoms: C_12  and  C_14
REMARK    4  A    between atoms: C_12  and  N_20
REMARK                            x       y       z     vdW  Elec       q    Type
REMARK                         _______ _______ _______ _____ _____    ______ ____
ROOT
ATOM      1  C   UNL     1       5.995  -0.906  -0.060  0.00  0.00    +0.136 C 
ENDROOT
BRANCH   1   7
ATOM      2  C   UNL     1      -0.043   1.245   0.507  0.00  0.00    +0.020 A 
ATOM      3  C   UNL     1       1.103   1.969   0.339  0.00  0.00    +0.011 A 
ATOM      4  C   UNL     1       2.321   1.270   0.238  0.00  0.00    +0.004 A 
ATOM      5  C   UNL     1       3.539   1.946   0.065  0.00  0.00    +0.010 A 
ATOM      6  C   UNL     1       4.698   1.237  -0.028  0.00  0.00    +0.010 A 
ATOM      7  C   UNL     1       4.694  -0.154   0.047  0.00  0.00    +0.021 A 
ATOM      8  C   UNL     1       3.529  -0.846   0.216  0.00  0.00    +0.148 A 
ATOM      9  C   UNL     1       2.309  -0.144   0.316  0.00  0.00    +0.113 A 
ATOM     10  N   UNL     1       1.152  -0.792   0.482  0.00  0.00    -0.251 NA
ATOM     11  C   UNL     1       0.016  -0.145   0.576  0.00  0.00    +0.111 A 
BRANCH   8  12
ATOM     12  O   UNL     1       3.544  -2.202   0.286  0.00  0.00    -0.504 OA
ATOM     13  H   UNL     1       3.648  -2.549   1.183  0.00  0.00    +0.292 HD
ENDBRANCH   8  12
ENDBRANCH   1   7
BRANCH   1  14
ATOM     14  N   UNL     1       7.092  -0.055   0.406  0.00  0.00    -0.318 N 
ATOM     15  C   UNL     1       8.268  -0.630   0.874  0.00  0.00    +0.119 A 
ATOM     16  C   UNL     1       8.399  -2.015   0.890  0.00  0.00    +0.045 A 
ATOM     17  C   UNL     1       9.575  -2.574   1.357  0.00  0.00    +0.025 A 
ATOM     18  C   UNL     1      10.585  -1.726   1.794  0.00  0.00    +0.059 A 
ATOM     19  C   UNL     1      10.386  -0.360   1.750  0.00  0.00    +0.132 A 
ATOM     20  N   UNL     1       9.255   0.145   1.294  0.00  0.00    -0.239 NA
ATOM     21 CL   UNL     1      12.080  -2.376   2.390  0.00  0.00    -0.082 Cl
ATOM     22  H   UNL     1       6.997   0.910   0.389  0.00  0.00    +0.148 HD
ENDBRANCH   1  14
BRANCH   1  23
ATOM     23  C   UNL     1       6.235  -1.292  -1.497  0.00  0.00    -0.020 A 
ATOM     24  C   UNL     1       6.745  -0.375  -2.403  0.00  0.00    +0.025 A 
ATOM     25  C   UNL     1       6.952  -0.765  -3.712  0.00  0.00    +0.111 A 
ATOM     26  N   UNL     1       6.670  -1.992  -4.103  0.00  0.00    -0.263 NA
ATOM     27  C   UNL     1       6.184  -2.891  -3.270  0.00  0.00    +0.111 A 
ATOM     28  C   UNL     1       5.956  -2.575  -1.944  0.00  0.00    +0.025 A 
ENDBRANCH   1  23
TORSDOF 4
