REMARK  Name = ZINC66435218
REMARK  9 active torsions:
REMARK  status: ('A' for Active; 'I' for Inactive)
REMARK    1  A    between atoms: C_3  and  C_6
REMARK    2  A    between atoms: C_6  and  C_7
REMARK    3  A    between atoms: C_7  and  N_8
REMARK    4  A    between atoms: N_11  and  C_14
REMARK    5  A    between atoms: C_14  and  C_15
REMARK    6  A    between atoms: C_15  and  C_17
REMARK    7  A    between atoms: C_15  and  O_27
REMARK    8  A    between atoms: C_20  and  O_23
REMARK    9  A    between atoms: O_23  and  C_24
REMARK                            x       y       z     vdW  Elec       q    Type
REMARK                         _______ _______ _______ _____ _____    ______ ____
ROOT
ATOM      1  N   UNL     1       5.637   2.507   1.403  0.00  0.00    +0.382 N 
ATOM      2  C   UNL     1       6.516   1.495   0.803  0.00  0.00    -0.063 C 
ATOM      3  C   UNL     1       7.953   2.020   0.774  0.00  0.00    +0.066 C 
ATOM      4  N   UNL     1       8.389   2.321   2.145  0.00  0.00    -0.303 NA
ATOM      5  C   UNL     1       7.504   3.315   2.768  0.00  0.00    +0.066 C 
ATOM      6  C   UNL     1       6.070   2.780   2.780  0.00  0.00    -0.063 C 
ATOM      7  H   UNL     1       5.684   3.357   0.862  0.00  0.00    -0.082 HD
ENDROOT
BRANCH   1   8
ATOM      8  C   UNL     1       4.255   2.011   1.414  0.00  0.00    -0.074 C 
BRANCH   8   9
ATOM      9  C   UNL     1       3.761   1.845  -0.024  0.00  0.00    +0.024 C 
BRANCH   9  12
ATOM     10  C   UNL     1      -0.016   1.351   0.009  0.00  0.00    +0.008 A 
ATOM     11  C   UNL     1       1.183   2.038   0.002  0.00  0.00    +0.011 A 
ATOM     12  C   UNL     1       2.343   1.336  -0.013  0.00  0.00    -0.012 A 
ATOM     13  S   UNL     1       1.754  -0.349  -0.017  0.00  0.00    -0.102 S 
ATOM     14  C   UNL     1       0.002  -0.004   0.002  0.00  0.00    +0.045 A 
ENDBRANCH   9  12
ENDBRANCH   8   9
ENDBRANCH   1   8
BRANCH   4  15
ATOM     15  C   UNL     1       9.786   2.775   2.165  0.00  0.00    +0.120 C 
BRANCH  15  16
ATOM     16  C   UNL     1      10.281   2.839   3.612  0.00  0.00    +0.158 C 
BRANCH  16  17
ATOM     17  C   UNL     1      11.671   3.420   3.642  0.00  0.00    -0.018 A 
ATOM     18  C   UNL     1      12.759   2.624   3.336  0.00  0.00    +0.010 A 
ATOM     19  C   UNL     1      14.034   3.154   3.363  0.00  0.00    +0.046 A 
ATOM     20  C   UNL     1      14.223   4.487   3.698  0.00  0.00    +0.127 A 
ATOM     21  C   UNL     1      13.129   5.284   4.005  0.00  0.00    +0.046 A 
ATOM     22  C   UNL     1      11.856   4.750   3.971  0.00  0.00    +0.010 A 
BRANCH  20  23
ATOM     23  O   UNL     1      15.476   5.011   3.727  0.00  0.00    -0.434 OA
BRANCH  23  24
ATOM     24  C   UNL     1      15.595   6.390   4.080  0.00  0.00    +0.541 C 
ATOM     25  F   UNL     1      14.883   7.170   3.163  0.00  0.00    -0.166 F 
ATOM     26  F   UNL     1      15.075   6.589   5.364  0.00  0.00    -0.166 F 
ENDBRANCH  23  24
ENDBRANCH  20  23
ENDBRANCH  16  17
BRANCH  16  27
ATOM     27  O   UNL     1      10.303   1.522   4.166  0.00  0.00    -0.386 OA
ATOM     28  H   UNL     1      10.880   0.906   3.694  0.00  0.00    +0.210 HD
ENDBRANCH  16  27
ENDBRANCH  15  16
ENDBRANCH   4  15
TORSDOF 9
