REMARK  Name = ZINC60135401
REMARK  4 active torsions:
REMARK  status: ('A' for Active; 'I' for Inactive)
REMARK    1  A    between atoms: C_5  and  N_8
REMARK    2  A    between atoms: C_9  and  C_11
REMARK    3  A    between atoms: C_16  and  C_19
REMARK    4  A    between atoms: N_21  and  C_22
REMARK                            x       y       z     vdW  Elec       q    Type
REMARK                         _______ _______ _______ _____ _____    ______ ____
ROOT
ATOM      1  C   UNL     1       3.466  -4.074   1.665  0.00  0.00    +0.076 C 
ATOM      2  C   UNL     1       4.938  -3.778   1.962  0.00  0.00    +0.013 C 
ATOM      3  C   UNL     1       5.582  -5.001   2.616  0.00  0.00    +0.001 C 
ATOM      4  C   UNL     1       5.485  -6.198   1.667  0.00  0.00    +0.013 C 
ATOM      5  C   UNL     1       4.013  -6.494   1.370  0.00  0.00    +0.076 C 
ATOM      6  C   UNL     1       3.369  -5.271   0.716  0.00  0.00    +0.025 C 
ENDROOT
BRANCH   1   8
ATOM      7  N   UNL     1       2.800  -1.692   1.676  0.00  0.00    -0.312 N 
ATOM      8  C   UNL     1       2.831  -2.869   1.020  0.00  0.00    +0.216 C 
ATOM      9  O   UNL     1       2.348  -2.958  -0.089  0.00  0.00    -0.276 OA
ATOM     10  H   UNL     1       3.186  -1.621   2.563  0.00  0.00    +0.149 HD
BRANCH   7  15
ATOM     11  C   UNL     1      -0.018   1.451   0.010  0.00  0.00    +0.000 C 
ATOM     12  C   UNL     1       1.400   2.058  -0.000  0.00  0.00    +0.000 C 
ATOM     13  C   UNL     1       1.950   2.011   1.399  0.00  0.00    +0.002 C 
ATOM     14  C   UNL     1       2.801   0.753   1.656  0.00  0.00    +0.022 C 
ATOM     15  C   UNL     1       2.183  -0.521   1.050  0.00  0.00    +0.073 C 
ATOM     16  C   UNL     1       0.693  -0.589   1.251  0.00  0.00    +0.022 C 
ATOM     17  C   UNL     1       0.002  -0.004   0.002  0.00  0.00    +0.002 C 
ENDBRANCH   7  15
ENDBRANCH   1   8
BRANCH   5  18
ATOM     18  C   UNL     1       3.917  -7.673   0.436  0.00  0.00    +0.216 C 
ATOM     19  O   UNL     1       3.385  -7.546  -0.647  0.00  0.00    -0.276 OA
ATOM     20  N   UNL     1       4.422  -8.867   0.803  0.00  0.00    -0.312 N 
ATOM     21  H   UNL     1       4.848  -8.968   1.669  0.00  0.00    +0.149 HD
BRANCH  20  22
ATOM     22  C   UNL     1       4.329 -10.013  -0.105  0.00  0.00    +0.073 C 
ATOM     23  C   UNL     1       2.930 -10.648   0.034  0.00  0.00    +0.022 C 
ATOM     24  C   UNL     1       2.647 -11.455  -1.204  0.00  0.00    +0.002 C 
ATOM     25  C   UNL     1       3.023 -12.940  -1.037  0.00  0.00    +0.000 C 
ATOM     26  C   UNL     1       4.362 -13.138  -0.301  0.00  0.00    +0.000 C 
ATOM     27  C   UNL     1       5.415 -12.161  -0.748  0.00  0.00    +0.002 C 
ATOM     28  C   UNL     1       5.397 -10.950   0.207  0.00  0.00    +0.022 C 
ENDBRANCH  20  22
ENDBRANCH   5  18
TORSDOF 4
