REMARK  Name = ZINC67043435
REMARK  6 active torsions:
REMARK  status: ('A' for Active; 'I' for Inactive)
REMARK    1  A    between atoms: C_1  and  C_2
REMARK    2  A    between atoms: C_4  and  C_24
REMARK    3  A    between atoms: C_12  and  C_14
REMARK    4  A    between atoms: C_14  and  N_15
REMARK    5  A    between atoms: N_15  and  S_16
REMARK    6  A    between atoms: S_16  and  C_19
REMARK                            x       y       z     vdW  Elec       q    Type
REMARK                         _______ _______ _______ _____ _____    ______ ____
ROOT
ATOM      1  C   UNL     1      -0.018   1.503   0.010  0.00  0.00    +0.044 C 
ATOM      2  C   UNL     1       0.002  -0.004   0.002  0.00  0.00    -0.049 A 
ATOM      3  C   UNL     1       0.006  -0.698  -1.199  0.00  0.00    +0.009 A 
ATOM      4  C   UNL     1       0.024  -2.068  -1.235  0.00  0.00    -0.024 A 
ATOM      5  C   UNL     1       0.040  -2.822  -0.038  0.00  0.00    +0.083 A 
ATOM      6  C   UNL     1       0.036  -2.081   1.166  0.00  0.00    +0.041 A 
ATOM      7  C   UNL     1       0.023  -0.709   1.191  0.00  0.00    +0.020 A 
ATOM      8  S   UNL     1       0.059  -3.361   2.397  0.00  0.00    -0.052 S 
ATOM      9  C   UNL     1       0.073  -4.752   1.275  0.00  0.00    +0.165 A 
ATOM     10  N   UNL     1       0.059  -4.165   0.101  0.00  0.00    -0.224 NA
ATOM     11  N   UNL     1       0.093  -6.106   1.569  0.00  0.00    -0.264 N 
ATOM     12  C   UNL     1       0.104  -6.517   2.853  0.00  0.00    +0.234 C 
ATOM     13  O   UNL     1       0.097  -5.701   3.750  0.00  0.00    -0.274 OA
ATOM     14  C   UNL     1       0.027  -2.779  -2.563  0.00  0.00    +0.046 C 
ATOM     15  H   UNL     1       0.099  -6.758   0.851  0.00  0.00    +0.157 HD
ENDROOT
BRANCH  12  16
ATOM     16  C   UNL     1       0.125  -7.989   3.172  0.00  0.00    +0.201 C 
BRANCH  16  17
ATOM     17  N   UNL     1       0.134  -8.173   4.626  0.00  0.00    -0.181 NA
ATOM     18  H   UNL     1       0.344  -7.426   5.208  0.00  0.00    +0.149 HD
BRANCH  17  19
ATOM     19  S   UNL     1      -0.214  -9.656   5.274  0.00  0.00    +0.065 S 
ATOM     20  O   UNL     1      -0.099  -9.520   6.684  0.00  0.00    -0.153 OA
ATOM     21  O   UNL     1      -1.408 -10.104   4.648  0.00  0.00    -0.153 OA
BRANCH  19  22
ATOM     22  C   UNL     1       1.064 -10.759   4.769  0.00  0.00    +0.142 A 
ATOM     23  C   UNL     1       2.234 -11.051   5.388  0.00  0.00    +0.036 A 
ATOM     24  C   UNL     1       3.095 -11.959   4.800  0.00  0.00    +0.010 A 
ATOM     25  C   UNL     1       2.743 -12.531   3.623  0.00  0.00    +0.047 A 
ATOM     26  S   UNL     1       1.150 -11.788   3.313  0.00  0.00    -0.077 S 
ENDBRANCH  19  22
ENDBRANCH  17  19
ENDBRANCH  16  17
ENDBRANCH  12  16
TORSDOF 4
