REMARK  Name = ZINC19181969
REMARK  9 active torsions:
REMARK  status: ('A' for Active; 'I' for Inactive)
REMARK    1  A    between atoms: C_1  and  C_2
REMARK    2  A    between atoms: C_4  and  C_25
REMARK    3  A    between atoms: C_5  and  S_9
REMARK    4  A    between atoms: C_6  and  C_8
REMARK    5  A    between atoms: S_9  and  C_10
REMARK    6  A    between atoms: C_10  and  C_11
REMARK    7  A    between atoms: N_13  and  C_14
REMARK    8  A    between atoms: C_14  and  C_15
REMARK    9  A    between atoms: N_17  and  C_18
REMARK                            x       y       z     vdW  Elec       q    Type
REMARK                         _______ _______ _______ _____ _____    ______ ____
ROOT
ATOM      1  C   UNL     1      -4.495   4.933  -1.835  0.00  0.00    +0.224 C 
ATOM      2  O   UNL     1      -5.101   5.268  -0.839  0.00  0.00    -0.275 OA
ATOM      3  N   UNL     1      -4.990   5.223  -3.054  0.00  0.00    -0.306 N 
ATOM      4  H   UNL     1      -4.440   4.920  -3.957  0.00  0.00    +0.149 HD
ENDROOT
BRANCH   1   5
ATOM      5  C   UNL     1      -3.189   4.193  -1.708  0.00  0.00    +0.170 C 
BRANCH   5   6
ATOM      6  S   UNL     1      -2.796   3.956   0.047  0.00  0.00    -0.115 S 
BRANCH   6  11
ATOM      7  C   UNL     1       2.458   0.985  -0.020  0.00  0.00    +0.044 C 
ATOM      8  C   UNL     1       1.147   1.726  -0.004  0.00  0.00    -0.050 A 
ATOM      9  C   UNL     1      -0.044   1.023  -0.004  0.00  0.00    +0.007 A 
ATOM     10  C   UNL     1      -1.248   1.699   0.005  0.00  0.00    -0.037 A 
ATOM     11  C   UNL     1      -1.262   3.089   0.027  0.00  0.00    +0.014 A 
ATOM     12  C   UNL     1      -0.064   3.792   0.028  0.00  0.00    -0.037 A 
ATOM     13  C   UNL     1       1.136   3.109   0.013  0.00  0.00    +0.007 A 
ATOM     14  C   UNL     1      -0.074   5.299   0.045  0.00  0.00    +0.045 C 
ATOM     15  C   UNL     1      -2.545   0.931  -0.002  0.00  0.00    +0.045 C 
ENDBRANCH   6  11
ENDBRANCH   5   6
ENDBRANCH   1   5
BRANCH   3  16
ATOM     16  C   UNL     1      -6.260   5.943  -3.177  0.00  0.00    +0.200 C 
BRANCH  16  17
ATOM     17  C   UNL     1      -6.587   6.139  -4.635  0.00  0.00    +0.234 C 
ATOM     18  O   UNL     1      -5.832   5.720  -5.488  0.00  0.00    -0.274 OA
ATOM     19  N   UNL     1      -7.716   6.782  -4.992  0.00  0.00    -0.283 N 
ATOM     20  H   UNL     1      -8.436   7.097  -4.223  0.00  0.00    +0.155 HD
BRANCH  19  21
ATOM     21  C   UNL     1      -7.974   7.048  -6.342  0.00  0.00    +0.047 A 
ATOM     22  C   UNL     1      -7.574   6.144  -7.318  0.00  0.00    +0.024 A 
ATOM     23  C   UNL     1      -7.832   6.407  -8.649  0.00  0.00    +0.002 A 
ATOM     24  C   UNL     1      -8.482   7.574  -9.011  0.00  0.00    +0.001 A 
ATOM     25  C   UNL     1      -8.877   8.478  -8.043  0.00  0.00    +0.017 A 
ATOM     26  C   UNL     1      -8.625   8.218  -6.709  0.00  0.00    +0.039 A 
ATOM     27 BR   UNL     1      -9.166   9.456  -5.385  0.00  0.00    -0.048 Br
ENDBRANCH  19  21
ENDBRANCH  16  17
ENDBRANCH   3  16
TORSDOF 6
