REMARK  Name = ZINC28120941
REMARK  8 active torsions:
REMARK  status: ('A' for Active; 'I' for Inactive)
REMARK    1  A    between atoms: C_1  and  C_2
REMARK    2  A    between atoms: C_2  and  C_3
REMARK    3  A    between atoms: C_8  and  C_28
REMARK    4  A    between atoms: C_9  and  C_24
REMARK    5  A    between atoms: C_12  and  C_15
REMARK    6  A    between atoms: C_13  and  O_14
REMARK    7  A    between atoms: C_15  and  N_16
REMARK    8  A    between atoms: C_20  and  C_23
REMARK                            x       y       z     vdW  Elec       q    Type
REMARK                         _______ _______ _______ _____ _____    ______ ____
ROOT
ATOM      1  C   UNL     1       1.856   1.718  -1.182  0.00  0.00    -0.005 A 
ATOM      2  C   UNL     1       3.061   2.361  -1.221  0.00  0.00    +0.022 A 
ATOM      3  C   UNL     1       3.720   2.669  -0.030  0.00  0.00    +0.065 A 
ATOM      4  C   UNL     1       5.022   3.362  -0.035  0.00  0.00    +0.203 A 
ATOM      5  O   UNL     1       5.568   3.690  -1.074  0.00  0.00    -0.286 OA
ATOM      6  C   UNL     1       5.631   3.638   1.279  0.00  0.00    +0.101 A 
ATOM      7  C   UNL     1       4.968   3.244   2.402  0.00  0.00    +0.221 A 
ATOM      8  O   UNL     1       3.791   2.619   2.357  0.00  0.00    -0.449 OA
ATOM      9  C   UNL     1       3.153   2.321   1.208  0.00  0.00    +0.144 A 
ATOM     10  C   UNL     1       1.926   1.673   1.230  0.00  0.00    +0.021 A 
ATOM     11  C   UNL     1       1.286   1.369   0.040  0.00  0.00    +0.125 A 
ENDROOT
BRANCH   6  12
ATOM     12  C   UNL     1       6.933   4.327   1.376  0.00  0.00    +0.117 A 
ATOM     13  N   UNL     1       7.571   4.739   2.451  0.00  0.00    -0.239 NA
ATOM     14  C   UNL     1       8.768   5.355   2.390  0.00  0.00    +0.079 A 
ATOM     15  C   UNL     1       9.557   5.840   3.460  0.00  0.00    +0.029 A 
ATOM     16  C   UNL     1      10.750   6.450   3.227  0.00  0.00    +0.002 A 
ATOM     17  C   UNL     1      11.241   6.622   1.940  0.00  0.00    +0.001 A 
ATOM     18  C   UNL     1      10.501   6.163   0.866  0.00  0.00    +0.017 A 
ATOM     19  C   UNL     1       9.295   5.546   1.091  0.00  0.00    +0.040 A 
ATOM     20  S   UNL     1       8.041   4.821   0.063  0.00  0.00    -0.067 S 
ENDBRANCH   6  12
BRANCH   7  21
ATOM     21  C   UNL     1       5.590   3.524   3.746  0.00  0.00    +0.451 C 
ATOM     22  F   UNL     1       5.719   4.906   3.921  0.00  0.00    -0.163 F 
ATOM     23  F   UNL     1       4.774   3.000   4.755  0.00  0.00    -0.163 F 
ATOM     24  F   UNL     1       6.853   2.926   3.810  0.00  0.00    -0.163 F 
ENDBRANCH   7  21
BRANCH   1  26
ATOM     25  C   UNL     1       0.131   2.487  -2.788  0.00  0.00    +0.009 C 
ATOM     26  C   UNL     1       1.142   1.385  -2.466  0.00  0.00    +0.035 C 
ENDBRANCH   1  26
BRANCH  11  27
ATOM     27  O   UNL     1       0.088   0.730   0.064  0.00  0.00    -0.506 OA
ATOM     28  H   UNL     1      -0.367   0.452   1.026  0.00  0.00    +0.292 HD
ENDBRANCH  11  27
BRANCH  10  29
ATOM     29  C   UNL     1       1.294   1.294   2.545  0.00  0.00    -0.036 C 
BRANCH  29  30
ATOM     30  N   UNL     1       1.741  -0.050   2.934  0.00  0.00    +0.383 N 
ATOM     31  C   UNL     1       1.240  -1.063   1.996  0.00  0.00    -0.078 C 
ATOM     32  C   UNL     1       1.841  -2.426   2.346  0.00  0.00    -0.018 C 
ATOM     33  C   UNL     1       1.454  -2.796   3.780  0.00  0.00    -0.001 C 
ATOM     34  C   UNL     1       1.945  -1.702   4.731  0.00  0.00    -0.031 C 
ATOM     35  C   UNL     1       1.341  -0.359   4.312  0.00  0.00    -0.075 C 
ATOM     36  C   UNL     1       1.511  -2.033   6.161  0.00  0.00    +0.005 C 
ATOM     37  H   UNL     1       2.840  -0.069   2.891  0.00  0.00    -0.081 HD
ENDBRANCH  29  30
ENDBRANCH  10  29
TORSDOF 6
