REMARK  Name = ZINC00500280
REMARK  5 active torsions:
REMARK  status: ('A' for Active; 'I' for Inactive)
REMARK    1  A    between atoms: C_1  and  C_2
REMARK    2  A    between atoms: C_2  and  C_25
REMARK    3  A    between atoms: C_6  and  C_16
REMARK    4  A    between atoms: C_8  and  N_15
REMARK    5  A    between atoms: C_9  and  C_13
REMARK                            x       y       z     vdW  Elec       q    Type
REMARK                         _______ _______ _______ _____ _____    ______ ____
ROOT
ATOM      1  C   UNL     1      -0.900   5.286   3.288  0.00  0.00    +0.011 C 
ATOM      2  C   UNL     1      -1.417   5.885   1.978  0.00  0.00    -0.022 C 
ATOM      3  C   UNL     1      -1.887   4.764   1.056  0.00  0.00    +0.063 C 
ATOM      4  C   UNL     1      -0.739   3.888   0.633  0.00  0.00    +0.054 A 
ATOM      5  C   UNL     1       0.582   4.353   0.655  0.00  0.00    +0.047 A 
ATOM      6  C   UNL     1       1.634   3.517   0.241  0.00  0.00    +0.006 A 
ATOM      7  C   UNL     1       1.327   2.195  -0.188  0.00  0.00    +0.038 A 
ATOM      8  C   UNL     1       2.233   1.158  -0.652  0.00  0.00    +0.059 A 
ATOM      9  C   UNL     1       1.702  -0.059  -1.018  0.00  0.00    +0.112 A 
ATOM     10  S   UNL     1      -0.046   0.155  -0.747  0.00  0.00    -0.056 S 
ATOM     11  C   UNL     1      -0.040   1.833  -0.161  0.00  0.00    +0.112 A 
ATOM     12  N   UNL     1      -0.991   2.658   0.228  0.00  0.00    -0.244 NA
ATOM     13  C   UNL     1       0.877   5.718   1.113  0.00  0.00    +0.166 C 
ATOM     14  O   UNL     1       2.015   6.071   1.340  0.00  0.00    -0.292 OA
ATOM     15  C   UNL     1      -0.289   6.668   1.293  0.00  0.00    +0.086 C 
ATOM     16  C   UNL     1      -2.585   6.828   2.274  0.00  0.00    +0.011 C 
ENDROOT
BRANCH   6  17
ATOM     17  C   UNL     1       3.031   4.001   0.253  0.00  0.00    -0.016 A 
ATOM     18  C   UNL     1       3.914   3.571   1.244  0.00  0.00    +0.008 A 
ATOM     19  C   UNL     1       5.218   4.022   1.246  0.00  0.00    +0.001 A 
ATOM     20  C   UNL     1       5.648   4.908   0.273  0.00  0.00    +0.000 A 
ATOM     21  C   UNL     1       4.776   5.343  -0.709  0.00  0.00    +0.001 A 
ATOM     22  C   UNL     1       3.471   4.895  -0.725  0.00  0.00    +0.008 A 
ENDBRANCH   6  17
BRANCH   8  23
ATOM     23  N   UNL     1       3.602   1.389  -0.724  0.00  0.00    -0.356 N 
ATOM     24  H   UNL     1       4.210   0.653  -0.895  0.00  0.00    +0.142 HD
ATOM     25  H   UNL     1       3.950   2.287  -0.604  0.00  0.00    +0.142 HD
ENDBRANCH   8  23
BRANCH   9  26
ATOM     26  C   UNL     1       2.389  -1.218  -1.500  0.00  0.00    +0.108 C 
ATOM     27  N   UNL     1       2.935  -2.138  -1.883  0.00  0.00    -0.190 NA
ENDBRANCH   9  26
TORSDOF 3
