REMARK  Name = ZINC58172942
REMARK  9 active torsions:
REMARK  status: ('A' for Active; 'I' for Inactive)
REMARK    1  A    between atoms: C_1  and  C_2
REMARK    2  A    between atoms: C_5  and  C_7
REMARK    3  A    between atoms: C_7  and  N_8
REMARK    4  A    between atoms: N_8  and  C_9
REMARK    5  A    between atoms: C_9  and  C_10
REMARK    6  A    between atoms: C_10  and  C_11
REMARK    7  A    between atoms: C_17  and  C_19
REMARK    8  A    between atoms: C_19  and  C_21
REMARK    9  A    between atoms: C_19  and  N_22
REMARK                            x       y       z     vdW  Elec       q    Type
REMARK                         _______ _______ _______ _____ _____    ______ ____
ROOT
ATOM      1  N   UNL     1       0.350  -4.707  -1.674  0.00  0.00    -0.295 N 
ATOM      2  C   UNL     1      -0.451  -5.078  -2.692  0.00  0.00    +0.236 C 
ATOM      3  O   UNL     1      -1.476  -5.685  -2.467  0.00  0.00    -0.274 OA
ENDROOT
BRANCH   2   4
ATOM      4  C   UNL     1      -0.072  -4.740  -4.111  0.00  0.00    +0.157 C 
ATOM      5  C   UNL     1       0.823  -5.845  -4.677  0.00  0.00    +0.038 C 
BRANCH   4   6
ATOM      6  N   UNL     1      -1.283  -4.627  -4.927  0.00  0.00    -0.289 N 
ATOM      7  C   UNL     1      -1.276  -3.872  -6.043  0.00  0.00    +0.298 C 
ATOM      8  O   UNL     1      -0.265  -3.283  -6.373  0.00  0.00    -0.253 OA
ATOM      9  N   UNL     1      -2.391  -3.768  -6.793  0.00  0.00    -0.313 N 
ATOM     10  H   UNL     1      -2.090  -5.096  -4.664  0.00  0.00    +0.151 HD
ATOM     11  H   UNL     1      -3.198  -4.237  -6.530  0.00  0.00    +0.146 HD
ATOM     12  H   UNL     1      -2.386  -3.224  -7.596  0.00  0.00    +0.146 HD
ENDBRANCH   4   6
ENDBRANCH   2   4
BRANCH   1  13
ATOM     13  C   UNL     1      -0.076  -4.926  -0.290  0.00  0.00    +0.150 C 
BRANCH  13  18
ATOM     14  C   UNL     1      -2.360  -0.181   1.798  0.00  0.00    +0.051 C 
ATOM     15  C   UNL     1      -1.998  -1.499   1.165  0.00  0.00    -0.013 A 
ATOM     16  C   UNL     1      -2.798  -2.389   0.528  0.00  0.00    +0.011 A 
ATOM     17  C   UNL     1      -2.241  -3.547   0.018  0.00  0.00    +0.013 A 
ATOM     18  C   UNL     1      -0.910  -3.758   0.170  0.00  0.00    +0.007 A 
ATOM     19  S   UNL     1      -0.402  -2.291   1.051  0.00  0.00    -0.097 S 
ENDBRANCH  13  18
ENDBRANCH   1  13
BRANCH   1  20
ATOM     20  C   UNL     1       1.646  -4.083  -1.951  0.00  0.00    +0.113 C 
BRANCH  20  21
ATOM     21  C   UNL     1       2.744  -5.147  -1.904  0.00  0.00    +0.054 C 
BRANCH  21  22
ATOM     22  C   UNL     1       4.056  -4.534  -2.321  0.00  0.00    -0.046 A 
ATOM     23  C   UNL     1       4.427  -4.534  -3.652  0.00  0.00    +0.004 A 
ATOM     24  C   UNL     1       5.631  -3.971  -4.035  0.00  0.00    +0.000 A 
ATOM     25  C   UNL     1       6.463  -3.408  -3.085  0.00  0.00    +0.000 A 
ATOM     26  C   UNL     1       6.092  -3.407  -1.754  0.00  0.00    +0.000 A 
ATOM     27  C   UNL     1       4.886  -3.966  -1.372  0.00  0.00    +0.004 A 
ENDBRANCH  21  22
ENDBRANCH  20  21
ENDBRANCH   1  20
TORSDOF 7
