REMARK  Name = ZINC22110702
REMARK  11 active torsions:
REMARK  status: ('A' for Active; 'I' for Inactive)
REMARK    1  A    between atoms: C_1  and  C_2
REMARK    2  A    between atoms: C_2  and  C_4
REMARK    3  A    between atoms: C_2  and  O_14
REMARK    4  A    between atoms: N_6  and  C_7
REMARK    5  A    between atoms: C_7  and  C_8
REMARK    6  A    between atoms: C_7  and  C_9
REMARK    7  A    between atoms: C_7  and  C_11
REMARK    8  A    between atoms: C_11  and  C_12
REMARK    9  A    between atoms: C_11  and  C_13
REMARK   10  A    between atoms: O_14  and  C_15
REMARK   11  A    between atoms: C_15  and  C_17
REMARK                            x       y       z     vdW  Elec       q    Type
REMARK                         _______ _______ _______ _____ _____    ______ ____
ROOT
ATOM      1  C   UNL     1       0.536  -1.150  -3.520  0.00  0.00    +0.078 A 
ATOM      2  C   UNL     1       1.910  -1.389  -3.567  0.00  0.00    +0.017 A 
ATOM      3  C   UNL     1       2.500  -1.836  -4.734  0.00  0.00    +0.013 A 
ATOM      4  C   UNL     1       1.726  -2.049  -5.872  0.00  0.00    +0.035 A 
ATOM      5  C   UNL     1       0.340  -1.810  -5.833  0.00  0.00    +0.052 A 
ATOM      6  C   UNL     1      -0.253  -1.366  -4.654  0.00  0.00    +0.066 A 
ATOM      7 CL   UNL     1      -1.963  -1.075  -4.595  0.00  0.00    -0.082 Cl
ATOM      8  C   UNL     1      -0.483  -2.036  -7.038  0.00  0.00    +0.196 C 
ATOM      9  O   UNL     1      -1.680  -1.829  -7.005  0.00  0.00    -0.287 OA
ATOM     10  C   UNL     1       0.149  -2.513  -8.286  0.00  0.00    +0.033 A 
ATOM     11  C   UNL     1      -0.620  -2.726  -9.426  0.00  0.00    +0.012 A 
ATOM     12  C   UNL     1      -0.019  -3.173 -10.590  0.00  0.00    +0.001 A 
ATOM     13  C   UNL     1       1.343  -3.409 -10.630  0.00  0.00    +0.001 A 
ATOM     14  C   UNL     1       2.123  -3.202  -9.505  0.00  0.00    +0.012 A 
ATOM     15  C   UNL     1       1.535  -2.752  -8.326  0.00  0.00    +0.033 A 
ATOM     16  C   UNL     1       2.360  -2.527  -7.122  0.00  0.00    +0.195 C 
ATOM     17  O   UNL     1       3.556  -2.733  -7.156  0.00  0.00    -0.287 OA
ENDROOT
BRANCH   1  18
ATOM     18  C   UNL     1      -0.088  -0.673  -2.267  0.00  0.00    +0.341 C 
ATOM     19  O   UNL     1      -1.284  -0.469  -2.224  0.00  0.00    -0.245 OA
BRANCH  18  20
ATOM     20  O   UNL     1       0.671  -0.465  -1.174  0.00  0.00    -0.449 OA
BRANCH  20  22
ATOM     21  C   UNL     1      -0.019   1.526   0.010  0.00  0.00    +0.062 C 
ATOM     22  C   UNL     1       0.002  -0.004   0.002  0.00  0.00    +0.259 C 
BRANCH  22  23
ATOM     23  C   UNL     1       0.731  -0.503   1.223  0.00  0.00    +0.255 C 
ATOM     24  O   UNL     1       1.774  -1.109   1.101  0.00  0.00    -0.272 OA
ATOM     25  N   UNL     1       0.223  -0.277   2.451  0.00  0.00    -0.294 N 
ATOM     26  H   UNL     1      -0.611   0.208   2.548  0.00  0.00    +0.150 HD
BRANCH  25  27
ATOM     27  C   UNL     1       0.932  -0.762   3.638  0.00  0.00    +0.121 C 
ATOM     28  C   UNL     1       1.062  -2.285   3.567  0.00  0.00    +0.048 C 
BRANCH  27  29
ATOM     29  C   UNL     1       0.148  -0.374   4.893  0.00  0.00    +0.020 C 
ATOM     30  C   UNL     1       0.821  -0.987   6.123  0.00  0.00    +0.010 C 
ATOM     31  C   UNL     1       0.125   1.149   5.030  0.00  0.00    +0.010 C 
ENDBRANCH  27  29
BRANCH  27  32
ATOM     32  C   UNL     1       2.273  -0.157   3.690  0.00  0.00    +0.088 C 
ATOM     33  N   UNL     1       3.308   0.310   3.730  0.00  0.00    -0.194 NA
ENDBRANCH  27  32
ENDBRANCH  25  27
ENDBRANCH  22  23
ENDBRANCH  20  22
ENDBRANCH  18  20
ENDBRANCH   1  18
TORSDOF 7
