REMARK  Name = ZINC12497012
REMARK  8 active torsions:
REMARK  status: ('A' for Active; 'I' for Inactive)
REMARK    1  A    between atoms: C_1  and  C_2
REMARK    2  A    between atoms: C_2  and  O_3
REMARK    3  A    between atoms: O_3  and  C_4
REMARK    4  A    between atoms: C_4  and  C_6
REMARK    5  A    between atoms: C_6  and  C_31
REMARK    6  A    between atoms: C_11  and  C_13
REMARK    7  A    between atoms: C_16  and  C_19
REMARK    8  A    between atoms: N_22  and  C_25
REMARK                            x       y       z     vdW  Elec       q    Type
REMARK                         _______ _______ _______ _____ _____    ______ ____
ROOT
ATOM      1  C   UNL     1      -0.887   1.682  -3.629  0.00  0.00    +0.041 C 
ATOM      2  C   UNL     1       0.103   1.804  -4.729  0.00  0.00    +0.086 C 
ATOM      3  C   UNL     1      -0.588   2.895  -5.639  0.00  0.00    +0.077 C 
ATOM      4  C   UNL     1      -0.869   3.915  -4.562  0.00  0.00    -0.027 C 
ATOM      5  C   UNL     1       0.455   2.985  -6.686  0.00  0.00    +0.229 C 
ATOM      6  O   UNL     1       0.803   3.974  -7.294  0.00  0.00    -0.275 OA
ATOM      7  N   UNL     1       0.942   1.711  -6.821  0.00  0.00    -0.210 N 
ATOM      8  C   UNL     1       0.592   0.899  -5.771  0.00  0.00    +0.229 C 
ATOM      9  O   UNL     1       0.659  -0.310  -5.718  0.00  0.00    -0.275 OA
ATOM     10  C   UNL     1      -2.006   0.715  -4.019  0.00  0.00    +0.002 C 
ATOM     11  N   UNL     1      -1.421   3.064  -3.465  0.00  0.00    +0.395 N 
ATOM     12  H   UNL     1      -1.134   3.442  -2.555  0.00  0.00    -0.083 HD
ATOM     13  H   UNL     1      -2.447   3.049  -3.521  0.00  0.00    -0.083 HD
ENDROOT
BRANCH   4  14
ATOM     14  C   UNL     1      -1.883   4.928  -5.028  0.00  0.00    -0.061 A 
ATOM     15  C   UNL     1      -3.216   4.578  -5.123  0.00  0.00    +0.002 A 
ATOM     16  C   UNL     1      -4.147   5.508  -5.547  0.00  0.00    +0.003 A 
ATOM     17  C   UNL     1      -3.742   6.786  -5.885  0.00  0.00    -0.050 A 
ATOM     18  C   UNL     1      -2.407   7.135  -5.795  0.00  0.00    +0.003 A 
ATOM     19  C   UNL     1      -1.478   6.205  -5.367  0.00  0.00    +0.002 A 
ATOM     20  C   UNL     1      -4.755   7.799  -6.352  0.00  0.00    +0.044 C 
ENDBRANCH   4  14
BRANCH   7  21
ATOM     21  C   UNL     1       1.713   1.284  -7.912  0.00  0.00    +0.044 A 
ATOM     22  C   UNL     1       2.173  -0.024  -7.968  0.00  0.00    +0.024 A 
ATOM     23  C   UNL     1       2.928  -0.443  -9.047  0.00  0.00    +0.002 A 
ATOM     24  C   UNL     1       3.234   0.443 -10.064  0.00  0.00    +0.000 A 
ATOM     25  C   UNL     1       2.781   1.748 -10.007  0.00  0.00    +0.002 A 
ATOM     26  C   UNL     1       2.022   2.171  -8.934  0.00  0.00    +0.024 A 
ENDBRANCH   7  21
BRANCH   1  27
ATOM     27  C   UNL     1      -0.211   1.220  -2.363  0.00  0.00    +0.297 C 
ATOM     28  O   UNL     1       0.783   0.536  -2.424  0.00  0.00    -0.252 OA
BRANCH  27  29
ATOM     29  O   UNL     1      -0.715   1.567  -1.168  0.00  0.00    -0.466 OA
BRANCH  29  31
ATOM     30  C   UNL     1      -0.729   1.579   1.267  0.00  0.00    +0.048 C 
ATOM     31  C   UNL     1      -0.013   1.086   0.008  0.00  0.00    +0.228 C 
ENDBRANCH  29  31
ENDBRANCH  27  29
ENDBRANCH   1  27
TORSDOF 5
