REMARK  Name = ZINC59417788
REMARK  4 active torsions:
REMARK  status: ('A' for Active; 'I' for Inactive)
REMARK    1  A    between atoms: C_1  and  C_2
REMARK    2  A    between atoms: C_5  and  C_7
REMARK    3  A    between atoms: N_8  and  N_9
REMARK    4  A    between atoms: C_10  and  C_12
REMARK                            x       y       z     vdW  Elec       q    Type
REMARK                         _______ _______ _______ _____ _____    ______ ____
ROOT
ATOM      1  N   UNL     1       3.819  -4.118  -0.038  0.00  0.00    -0.200 N 
ATOM      2  C   UNL     1       5.152  -3.917  -0.043  0.00  0.00    +0.299 C 
ATOM      3  O   UNL     1       5.596  -2.784  -0.039  0.00  0.00    -0.265 OA
ATOM      4  H   UNL     1       3.465  -5.021  -0.041  0.00  0.00    +0.178 HD
ENDROOT
BRANCH   2   5
ATOM      5  C   UNL     1       6.067  -5.066  -0.054  0.00  0.00    +0.192 A 
ATOM      6  C   UNL     1       7.424  -4.985  -0.054  0.00  0.00    +0.063 A 
ATOM      7  C   UNL     1       7.912  -6.363  -0.066  0.00  0.00    +0.022 A 
ATOM      8  C   UNL     1       9.182  -6.946  -0.072  0.00  0.00    +0.027 A 
ATOM      9  C   UNL     1       9.302  -8.308  -0.085  0.00  0.00    +0.019 A 
ATOM     10  C   UNL     1       8.170  -9.113  -0.091  0.00  0.00    +0.019 A 
ATOM     11  C   UNL     1       6.910  -8.557  -0.085  0.00  0.00    +0.048 A 
ATOM     12  C   UNL     1       6.763  -7.175  -0.072  0.00  0.00    +0.136 A 
ATOM     13  O   UNL     1       5.689  -6.361  -0.058  0.00  0.00    -0.450 OA
ATOM     14 BR   UNL     1      11.019  -9.099  -0.093  0.00  0.00    -0.050 Br
ENDBRANCH   2   5
BRANCH   1  16
ATOM     15  C   UNL     1       1.659  -3.217  -0.023  0.00  0.00    +0.176 C 
ATOM     16  N   UNL     1       2.946  -3.023  -0.028  0.00  0.00    -0.184 NA
BRANCH  15  21
ATOM     17  C   UNL     1      -0.018   1.503   0.010  0.00  0.00    +0.086 C 
ATOM     18  C   UNL     1       0.002  -0.004   0.002  0.00  0.00    +0.103 A 
ATOM     19  C   UNL     1      -1.084  -0.804   0.003  0.00  0.00    +0.045 A 
ATOM     20  C   UNL     1      -0.619  -2.132  -0.007  0.00  0.00    +0.051 A 
ATOM     21  C   UNL     1       0.745  -2.071  -0.013  0.00  0.00    +0.148 A 
ATOM     22  O   UNL     1       1.104  -0.771  -0.013  0.00  0.00    -0.459 OA
ENDBRANCH  15  21
ENDBRANCH   1  16
TORSDOF 3
