REMARK  Name = ZINC67383789
REMARK  3 active torsions:
REMARK  status: ('A' for Active; 'I' for Inactive)
REMARK    1  A    between atoms: C_3  and  C_10
REMARK    2  A    between atoms: C_5  and  N_7
REMARK    3  A    between atoms: C_10  and  N_11
REMARK                            x       y       z     vdW  Elec       q    Type
REMARK                         _______ _______ _______ _____ _____    ______ ____
ROOT
ATOM      1  N   UNL     1       4.105   2.425   1.356  0.00  0.00    -0.324 N 
ATOM      2  C   UNL     1       5.272   3.118   1.599  0.00  0.00    +0.130 A 
ATOM      3  C   UNL     1       5.712   3.359   2.924  0.00  0.00    +0.041 A 
ATOM      4  C   UNL     1       4.995   2.913   4.040  0.00  0.00    +0.013 A 
ATOM      5  C   UNL     1       5.468   3.174   5.292  0.00  0.00    +0.002 A 
ATOM      6  C   UNL     1       6.654   3.879   5.475  0.00  0.00    +0.017 A 
ATOM      7  C   UNL     1       7.377   4.327   4.409  0.00  0.00    +0.044 A 
ATOM      8  C   UNL     1       6.919   4.076   3.108  0.00  0.00    +0.090 A 
ATOM      9  N   UNL     1       7.592   4.494   2.025  0.00  0.00    -0.234 NA
ATOM     10  C   UNL     1       7.136   4.242   0.821  0.00  0.00    +0.224 A 
ATOM     11  N   UNL     1       6.016   3.572   0.600  0.00  0.00    -0.220 NA
ATOM     12 BR   UNL     1       8.985   5.283   4.684  0.00  0.00    -0.048 Br
ATOM     13  H   UNL     1       3.571   2.099   2.097  0.00  0.00    +0.148 HD
ENDROOT
BRANCH   1  14
ATOM     14  C   UNL     1       3.672   2.182  -0.022  0.00  0.00    +0.138 C 
BRANCH  14  17
ATOM     15  C   UNL     1      -0.017   1.378   0.010  0.00  0.00    +0.003 A 
ATOM     16  C   UNL     1       1.171   2.085   0.002  0.00  0.00    +0.005 A 
ATOM     17  C   UNL     1       2.377   1.411  -0.013  0.00  0.00    -0.028 A 
ATOM     18  C   UNL     1       2.396   0.028  -0.020  0.00  0.00    +0.038 A 
ATOM     19  C   UNL     1       1.209  -0.679  -0.012  0.00  0.00    +0.127 A 
ATOM     20  C   UNL     1       0.002  -0.004   0.002  0.00  0.00    +0.033 A 
BRANCH  19  21
ATOM     21  N   UNL     1       1.229  -2.159  -0.020  0.00  0.00    +0.056 N 
ATOM     22  O   UNL     1       2.284  -2.749  -0.035  0.00  0.00    -0.126 OA
ATOM     23  O   UNL     1       0.190  -2.778  -0.013  0.00  0.00    -0.126 OA
ENDBRANCH  19  21
ENDBRANCH  14  17
ENDBRANCH   1  14
TORSDOF 3
