REMARK  Name = ZINC14546624
REMARK  3 active torsions:
REMARK  status: ('A' for Active; 'I' for Inactive)
REMARK    1  A    between atoms: C_1  and  C_2
REMARK    2  A    between atoms: C_4  and  N_26
REMARK    3  A    between atoms: C_9  and  C_18
REMARK                            x       y       z     vdW  Elec       q    Type
REMARK                         _______ _______ _______ _____ _____    ______ ____
ROOT
ATOM      1  C   UNL     1      -4.059   1.863  -3.296  0.00  0.00    +0.046 C 
ATOM      2  C   UNL     1      -4.046   1.226  -1.930  0.00  0.00    -0.027 A 
ATOM      3  C   UNL     1      -4.346  -0.113  -1.795  0.00  0.00    +0.038 A 
ATOM      4  C   UNL     1      -4.334  -0.697  -0.542  0.00  0.00    +0.127 A 
ATOM      5  C   UNL     1      -4.023   0.061   0.570  0.00  0.00    +0.038 A 
ATOM      6  C   UNL     1      -3.720   1.410   0.445  0.00  0.00    -0.017 A 
ATOM      7  C   UNL     1      -3.733   1.995  -0.810  0.00  0.00    +0.034 A 
ATOM      8  N   UNL     1      -3.442   3.345  -1.004  0.00  0.00    -0.336 N 
ATOM      9  C   UNL     1      -2.581   3.882   0.051  0.00  0.00    +0.108 C 
ATOM     10  C   UNL     1      -3.259   3.688   1.409  0.00  0.00    +0.029 C 
ATOM     11  C   UNL     1      -3.388   2.175   1.691  0.00  0.00    +0.049 C 
ATOM     12  C   UNL     1      -2.026   1.781   2.214  0.00  0.00    -0.023 C 
ATOM     13  C   UNL     1      -1.385   2.831   2.664  0.00  0.00    -0.030 C 
ATOM     14  C   UNL     1      -2.235   4.077   2.512  0.00  0.00    +0.033 C 
ATOM     15  H   UNL     1      -3.037   3.500  -1.915  0.00  0.00    +0.147 HD
ENDROOT
BRANCH   9  16
ATOM     16  C   UNL     1      -1.261   3.156   0.040  0.00  0.00    +0.010 A 
ATOM     17  C   UNL     1      -1.102   2.019  -0.732  0.00  0.00    +0.047 A 
ATOM     18  C   UNL     1       0.109   1.350  -0.738  0.00  0.00    +0.020 A 
ATOM     19  C   UNL     1       1.164   1.824   0.019  0.00  0.00    +0.003 A 
ATOM     20  C   UNL     1       1.008   2.963   0.787  0.00  0.00    +0.020 A 
ATOM     21  C   UNL     1      -0.205   3.629   0.798  0.00  0.00    +0.047 A 
ATOM     22 CL   UNL     1      -0.400   5.060   1.761  0.00  0.00    -0.083 Cl
ATOM     23 CL   UNL     1      -2.425   1.428  -1.688  0.00  0.00    -0.083 Cl
ENDBRANCH   9  16
BRANCH   4  24
ATOM     24  N   UNL     1      -4.654  -2.134  -0.392  0.00  0.00    +0.056 N 
ATOM     25  O   UNL     1      -4.929  -2.802  -1.372  0.00  0.00    -0.126 OA
ATOM     26  O   UNL     1      -4.643  -2.648   0.713  0.00  0.00    -0.126 OA
ENDBRANCH   4  24
TORSDOF 2
