REMARK  Name = ZINC00421621
REMARK  3 active torsions:
REMARK  status: ('A' for Active; 'I' for Inactive)
REMARK    1  A    between atoms: C_1  and  C_2
REMARK    2  A    between atoms: C_2  and  C_3
REMARK    3  A    between atoms: C_10  and  C_14
REMARK                            x       y       z     vdW  Elec       q    Type
REMARK                         _______ _______ _______ _____ _____    ______ ____
ROOT
ATOM      1  C   UNL     1      -3.620   1.831   0.029  0.00  0.00    -0.047 A 
ATOM      2  C   UNL     1      -3.596   3.225   0.036  0.00  0.00    +0.006 A 
ATOM      3  C   UNL     1      -2.418   3.906   0.045  0.00  0.00    +0.028 A 
ATOM      4  C   UNL     1      -1.203   3.199   0.030  0.00  0.00    +0.073 A 
ATOM      5  C   UNL     1      -1.230   1.782   0.017  0.00  0.00    +0.001 A 
ATOM      6  C   UNL     1      -2.464   1.112   0.020  0.00  0.00    +0.013 A 
ATOM      7  C   UNL     1      -0.013   1.076   0.008  0.00  0.00    +0.020 A 
ATOM      8  C   UNL     1       1.149   1.793   0.001  0.00  0.00    +0.028 A 
ATOM      9  C   UNL     1       1.106   3.187   0.008  0.00  0.00    +0.136 A 
ATOM     10  N   UNL     1      -0.031   3.842   0.022  0.00  0.00    -0.235 NA
ATOM     11 CL   UNL     1       2.596   4.079  -0.001  0.00  0.00    -0.062 Cl
ENDROOT
BRANCH   8  12
ATOM     12  C   UNL     1       2.476   1.079  -0.016  0.00  0.00    +0.193 C 
ATOM     13  N   UNL     1       3.437   1.857  -0.809  0.00  0.00    -0.322 N 
ATOM     14  C   UNL     1       3.333   1.825  -2.195  0.00  0.00    +0.041 A 
ATOM     15  C   UNL     1       3.719   2.894  -2.984  0.00  0.00    +0.024 A 
ATOM     16  C   UNL     1       3.591   2.812  -4.357  0.00  0.00    +0.002 A 
ATOM     17  C   UNL     1       3.079   1.669  -4.950  0.00  0.00    +0.001 A 
ATOM     18  C   UNL     1       2.690   0.594  -4.178  0.00  0.00    +0.015 A 
ATOM     19  C   UNL     1       2.815   0.662  -2.793  0.00  0.00    +0.058 A 
ATOM     20  C   UNL     1       2.423  -0.460  -1.922  0.00  0.00    +0.247 C 
ATOM     21  O   UNL     1       2.209  -1.560  -2.394  0.00  0.00    -0.270 OA
ATOM     22  N   UNL     1       2.303  -0.252  -0.597  0.00  0.00    -0.289 N 
ATOM     23  H   UNL     1       4.128   2.381  -0.375  0.00  0.00    +0.148 HD
ATOM     24  H   UNL     1       2.097  -1.002  -0.018  0.00  0.00    +0.151 HD
ENDBRANCH   8  12
BRANCH   1  26
ATOM     25  C   UNL     1      -5.385   0.860   1.476  0.00  0.00    +0.009 C 
ATOM     26  C   UNL     1      -4.944   1.111   0.032  0.00  0.00    +0.032 C 
ENDBRANCH   1  26
TORSDOF 2
