REMARK  Name = ZINC02424285
REMARK  6 active torsions:
REMARK  status: ('A' for Active; 'I' for Inactive)
REMARK    1  A    between atoms: C_1  and  C_2
REMARK    2  A    between atoms: C_7  and  C_8
REMARK    3  A    between atoms: C_14  and  C_26
REMARK    4  A    between atoms: C_29  and  O_32
REMARK    5  A    between atoms: O_32  and  C_33
REMARK    6  A    between atoms: C_33  and  C_34
REMARK                            x       y       z     vdW  Elec       q    Type
REMARK                         _______ _______ _______ _____ _____    ______ ____
ROOT
ATOM      1  C   UNL     1      -0.018   1.503   0.010  0.00  0.00    +0.044 C 
ATOM      2  C   UNL     1       0.002  -0.004   0.002  0.00  0.00    -0.047 A 
ATOM      3  C   UNL     1       0.006  -0.685  -1.195  0.00  0.00    +0.019 A 
ATOM      4  C   UNL     1       0.024  -2.080  -1.194  0.00  0.00    +0.065 A 
ATOM      5  C   UNL     1       0.033  -2.793   0.015  0.00  0.00    +0.140 A 
ATOM      6  C   UNL     1       0.033  -2.080   1.214  0.00  0.00    +0.050 A 
ATOM      7  C   UNL     1       0.023  -0.703   1.200  0.00  0.00    -0.044 A 
ATOM      8  C   UNL     1       0.029   0.053   2.503  0.00  0.00    +0.044 C 
ATOM      9  O   UNL     1       0.037  -4.145   0.057  0.00  0.00    -0.450 OA
ATOM     10  C   UNL     1       0.273  -4.846  -1.070  0.00  0.00    +0.199 A 
ATOM     11  C   UNL     1       0.280  -4.268  -2.309  0.00  0.00    +0.072 A 
ATOM     12  C   UNL     1       0.036  -2.832  -2.474  0.00  0.00    +0.199 A 
ATOM     13  O   UNL     1      -0.140  -2.306  -3.559  0.00  0.00    -0.287 OA
ATOM     14  C   UNL     1       0.566  -5.340  -3.309  0.00  0.00    +0.151 C 
ATOM     15  N   UNL     1       0.728  -6.580  -2.533  0.00  0.00    -0.238 N 
ATOM     16  C   UNL     1       0.556  -6.282  -1.228  0.00  0.00    +0.288 C 
ATOM     17  O   UNL     1       0.627  -7.082  -0.317  0.00  0.00    -0.266 OA
ATOM     18  C   UNL     1       1.009  -7.841  -3.054  0.00  0.00    +0.129 A 
ATOM     19  C   UNL     1       1.269  -7.983  -4.413  0.00  0.00    +0.045 A 
ATOM     20  C   UNL     1       1.547  -9.240  -4.918  0.00  0.00    +0.025 A 
ATOM     21  C   UNL     1       1.555 -10.319  -4.042  0.00  0.00    +0.059 A 
ATOM     22  C   UNL     1       1.288 -10.105  -2.703  0.00  0.00    +0.132 A 
ATOM     23  N   UNL     1       1.031  -8.893  -2.250  0.00  0.00    -0.238 NA
ATOM     24 CL   UNL     1       1.898 -11.918  -4.623  0.00  0.00    -0.082 Cl
ENDROOT
BRANCH  14  25
ATOM     25  C   UNL     1      -0.587  -5.474  -4.271  0.00  0.00    -0.022 A 
ATOM     26  C   UNL     1      -1.718  -6.175  -3.898  0.00  0.00    +0.009 A 
ATOM     27  C   UNL     1      -2.776  -6.300  -4.779  0.00  0.00    +0.046 A 
ATOM     28  C   UNL     1      -2.702  -5.720  -6.037  0.00  0.00    +0.121 A 
ATOM     29  C   UNL     1      -1.565  -5.016  -6.408  0.00  0.00    +0.046 A 
ATOM     30  C   UNL     1      -0.512  -4.890  -5.522  0.00  0.00    +0.009 A 
BRANCH  28  31
ATOM     31  O   UNL     1      -3.740  -5.841  -6.905  0.00  0.00    -0.483 OA
BRANCH  31  32
ATOM     32  C   UNL     1      -3.594  -5.219  -8.182  0.00  0.00    +0.324 C 
BRANCH  32  33
ATOM     33  C   UNL     1      -4.836  -5.458  -9.003  0.00  0.00    +0.248 C 
ATOM     34  O   UNL     1      -5.755  -6.098  -8.538  0.00  0.00    -0.272 OA
ATOM     35  N   UNL     1      -4.925  -4.960 -10.252  0.00  0.00    -0.327 N 
ATOM     36  H   UNL     1      -4.189  -4.448 -10.623  0.00  0.00    +0.145 HD
ATOM     37  H   UNL     1      -5.724  -5.114 -10.780  0.00  0.00    +0.145 HD
ENDBRANCH  32  33
ENDBRANCH  31  32
ENDBRANCH  28  31
ENDBRANCH  14  25
TORSDOF 4
