REMARK  Name = ZINC39445114
REMARK  6 active torsions:
REMARK  status: ('A' for Active; 'I' for Inactive)
REMARK    1  A    between atoms: C_3  and  O_23
REMARK    2  A    between atoms: C_4  and  C_8
REMARK    3  A    between atoms: C_8  and  N_9
REMARK    4  A    between atoms: C_15  and  C_19
REMARK    5  A    between atoms: O_23  and  C_24
REMARK    6  A    between atoms: C_24  and  C_25
REMARK                            x       y       z     vdW  Elec       q    Type
REMARK                         _______ _______ _______ _____ _____    ______ ____
ROOT
ATOM      1  C   UNL     1       3.711  -0.715  -0.038  0.00  0.00    -0.039 C 
ENDROOT
BRANCH   1   2
ATOM      2  N   UNL     1       4.327  -0.650   1.295  0.00  0.00    +0.385 N 
ATOM      3  C   UNL     1       4.547   0.755   1.661  0.00  0.00    -0.072 C 
ATOM      4  C   UNL     1       4.903   0.858   3.150  0.00  0.00    +0.039 C 
ATOM      5  C   UNL     1       6.020  -0.126   3.427  0.00  0.00    +0.061 C 
ATOM      6  C   UNL     1       6.318  -1.113   2.572  0.00  0.00    -0.037 C 
ATOM      7  C   UNL     1       5.611  -1.372   1.276  0.00  0.00    -0.043 C 
ATOM      8  C   UNL     1       7.469  -1.842   3.212  0.00  0.00    +0.157 C 
ATOM      9  N   UNL     1       7.673  -1.087   4.464  0.00  0.00    -0.179 NA
ATOM     10  N   UNL     1       6.841  -0.173   4.495  0.00  0.00    -0.159 NA
ATOM     11  H   UNL     1       3.711  -1.078   1.970  0.00  0.00    -0.081 HD
BRANCH   8  12
ATOM     12  C   UNL     1       7.094  -3.296   3.506  0.00  0.00    +0.019 C 
ATOM     13  C   UNL     1       6.311  -3.478   4.817  0.00  0.00    +0.006 C 
ATOM     14  C   UNL     1       7.147  -4.747   5.048  0.00  0.00    +0.001 C 
ATOM     15  C   UNL     1       8.226  -4.104   4.162  0.00  0.00    +0.006 C 
ENDBRANCH   8  12
ENDBRANCH   1   2
BRANCH   1  19
ATOM     16  C   UNL     1      -0.196   1.016   0.112  0.00  0.00    +0.023 A 
ATOM     17  C   UNL     1       0.024  -0.233   0.661  0.00  0.00    +0.047 A 
ATOM     18  C   UNL     1       1.290  -0.797   0.613  0.00  0.00    +0.123 A 
ATOM     19  C   UNL     1       2.334  -0.105   0.015  0.00  0.00    -0.021 A 
ATOM     20  C   UNL     1       2.110   1.143  -0.532  0.00  0.00    +0.025 A 
ATOM     21  C   UNL     1       0.846   1.704  -0.484  0.00  0.00    +0.041 A 
ATOM     22 CL   UNL     1       0.567   3.273  -1.173  0.00  0.00    -0.084 Cl
BRANCH  18  23
ATOM     23  O   UNL     1       1.509  -2.025   1.153  0.00  0.00    -0.483 OA
BRANCH  23  24
ATOM     24  C   UNL     1       0.389  -2.678   1.753  0.00  0.00    +0.324 C 
BRANCH  24  25
ATOM     25  C   UNL     1       0.819  -4.018   2.293  0.00  0.00    +0.248 C 
ATOM     26  O   UNL     1       1.971  -4.378   2.176  0.00  0.00    -0.272 OA
ATOM     27  N   UNL     1      -0.077  -4.816   2.907  0.00  0.00    -0.327 N 
ATOM     28  H   UNL     1      -0.998  -4.529   3.001  0.00  0.00    +0.145 HD
ATOM     29  H   UNL     1       0.200  -5.679   3.254  0.00  0.00    +0.145 HD
ENDBRANCH  24  25
ENDBRANCH  23  24
ENDBRANCH  18  23
ENDBRANCH   1  19
TORSDOF 6
