REMARK  Name = ZINC18036935
REMARK  11 active torsions:
REMARK  status: ('A' for Active; 'I' for Inactive)
REMARK    1  A    between atoms: C_1  and  C_2
REMARK    2  A    between atoms: C_2  and  C_3
REMARK    3  A    between atoms: C_3  and  C_4
REMARK    4  A    between atoms: C_4  and  N_5
REMARK    5  A    between atoms: N_5  and  C_6
REMARK    6  A    between atoms: C_7  and  C_28
REMARK    7  A    between atoms: C_10  and  C_13
REMARK    8  A    between atoms: N_15  and  C_16
REMARK    9  A    between atoms: C_17  and  C_24
REMARK   10  A    between atoms: C_24  and  O_26
REMARK   11  A    between atoms: O_26  and  C_27
REMARK                            x       y       z     vdW  Elec       q    Type
REMARK                         _______ _______ _______ _____ _____    ______ ____
ROOT
ATOM      1  C   UNL     1       1.537  -3.841  -2.710  0.00  0.00    +0.076 C 
ATOM      2  C   UNL     1       2.178  -4.468  -3.777  0.00  0.00    +0.086 C 
ATOM      3  C   UNL     1       2.235  -5.907  -3.824  0.00  0.00    +0.069 C 
ATOM      4  N   UNL     1       2.817  -6.558  -4.787  0.00  0.00    -0.302 NA
ATOM      5  C   UNL     1       1.561  -6.599  -2.655  0.00  0.00    +0.187 C 
ATOM      6  S   UNL     1       0.962  -5.169  -1.672  0.00  0.00    -0.091 S 
ATOM      7  H   UNL     1       3.299  -6.075  -5.477  0.00  0.00    +0.186 HD
ENDROOT
BRANCH   2   8
ATOM      8  C   UNL     1       2.788  -3.673  -4.841  0.00  0.00    +0.251 C 
ATOM      9  O   UNL     1       2.241  -3.585  -5.925  0.00  0.00    -0.270 OA
ATOM     10  N   UNL     1       3.955  -3.036  -4.621  0.00  0.00    -0.293 N 
ATOM     11  C   UNL     1       4.694  -3.222  -3.362  0.00  0.00    +0.136 C 
ATOM     12  C   UNL     1       6.149  -3.566  -3.703  0.00  0.00    +0.179 C 
ATOM     13  O   UNL     1       6.667  -2.585  -4.604  0.00  0.00    -0.377 OA
ATOM     14  C   UNL     1       5.990  -2.531  -5.862  0.00  0.00    +0.179 C 
ATOM     15  C   UNL     1       4.531  -2.138  -5.635  0.00  0.00    +0.136 C 
ENDBRANCH   2   8
BRANCH   5  16
ATOM     16  C   UNL     1       2.553  -7.414  -1.865  0.00  0.00    +0.237 C 
ATOM     17  O   UNL     1       3.693  -7.022  -1.736  0.00  0.00    -0.274 OA
ATOM     18  N   UNL     1       2.172  -8.578  -1.303  0.00  0.00    -0.278 N 
ATOM     19  H   UNL     1       1.260  -8.892  -1.406  0.00  0.00    +0.155 HD
BRANCH  18  20
ATOM     20  C   UNL     1       3.085  -9.328  -0.576  0.00  0.00    +0.086 A 
ATOM     21  C   UNL     1       2.876 -10.538   0.061  0.00  0.00    +0.091 A 
ATOM     22  C   UNL     1       4.013 -11.127   0.767  0.00  0.00    -0.021 A 
ATOM     23  C   UNL     1       5.139 -10.395   0.702  0.00  0.00    -0.004 A 
ATOM     24  S   UNL     1       4.697  -8.979  -0.273  0.00  0.00    -0.077 S 
ATOM     25  C   UNL     1       6.274 -11.043   1.447  0.00  0.00    +0.043 C 
ATOM     26  C   UNL     1       5.595 -12.089   2.359  0.00  0.00    +0.010 C 
ATOM     27  C   UNL     1       4.295 -12.386   1.584  0.00  0.00    +0.037 C 
BRANCH  21  28
ATOM     28  C   UNL     1       1.571 -11.201   0.030  0.00  0.00    +0.342 C 
ATOM     29  O   UNL     1       1.309 -11.987  -0.861  0.00  0.00    -0.245 OA
BRANCH  28  30
ATOM     30  O   UNL     1       0.659 -10.940   0.989  0.00  0.00    -0.464 OA
ATOM     31  C   UNL     1      -0.593 -11.622   0.897  0.00  0.00    +0.280 C 
ENDBRANCH  28  30
ENDBRANCH  21  28
ENDBRANCH  18  20
ENDBRANCH   5  16
BRANCH   1  32
ATOM     32  N   UNL     1       1.387  -2.499  -2.503  0.00  0.00    -0.338 N 
ATOM     33  H   UNL     1       1.747  -1.867  -3.144  0.00  0.00    +0.147 HD
BRANCH  32  34
ATOM     34  C   UNL     1       0.683  -2.016  -1.312  0.00  0.00    +0.102 C 
BRANCH  34  35
ATOM     35  C   UNL     1       0.656  -0.487  -1.322  0.00  0.00    +0.018 C 
BRANCH  35  37
ATOM     36  C   UNL     1      -0.107   1.548  -0.088  0.00  0.00    +0.004 C 
ATOM     37  C   UNL     1      -0.079   0.018  -0.079  0.00  0.00    -0.002 C 
ENDBRANCH  35  37
ENDBRANCH  34  35
ENDBRANCH  32  34
ENDBRANCH   1  32
TORSDOF 9
