REMARK  Name = ZINC63374365
REMARK  8 active torsions:
REMARK  status: ('A' for Active; 'I' for Inactive)
REMARK    1  A    between atoms: C_1  and  C_2
REMARK    2  A    between atoms: C_5  and  N_8
REMARK    3  A    between atoms: C_9  and  O_42
REMARK    4  A    between atoms: C_11  and  C_25
REMARK    5  A    between atoms: N_15  and  C_18
REMARK    6  A    between atoms: C_21  and  C_24
REMARK    7  A    between atoms: C_32  and  O_37
REMARK    8  A    between atoms: O_37  and  C_38
REMARK                            x       y       z     vdW  Elec       q    Type
REMARK                         _______ _______ _______ _____ _____    ______ ____
ROOT
ATOM      1  N   UNL     1      -0.590  -4.057   0.006  0.00  0.00    -0.228 N 
ATOM      2  C   UNL     1      -0.072  -4.576   1.273  0.00  0.00    +0.224 C 
ATOM      3  C   UNL     1      -0.204  -6.101   1.293  0.00  0.00    +0.142 C 
ATOM      4  C   UNL     1       0.299  -6.659  -0.015  0.00  0.00    +0.236 C 
ATOM      5  O   UNL     1       0.864  -7.731  -0.040  0.00  0.00    -0.274 OA
ATOM      6  N   UNL     1       0.120  -5.966  -1.155  0.00  0.00    -0.193 N 
ATOM      7  C   UNL     1      -0.428  -4.740  -1.138  0.00  0.00    +0.322 C 
ATOM      8  O   UNL     1      -0.782  -4.235  -2.186  0.00  0.00    -0.251 OA
ENDROOT
BRANCH   3   9
ATOM      9  C   UNL     1       0.625  -6.671   2.446  0.00  0.00    +0.096 C 
ATOM     10  C   UNL     1       0.152  -6.066   3.769  0.00  0.00    +0.124 C 
ATOM     11  C   UNL     1       1.131  -6.550   4.833  0.00  0.00    -0.036 C 
ATOM     12  C   UNL     1       0.402  -7.120   5.782  0.00  0.00    +0.003 A 
ATOM     13  C   UNL     1       0.760  -7.692   7.089  0.00  0.00    +0.055 A 
ATOM     14  C   UNL     1      -0.257  -8.219   7.825  0.00  0.00    +0.121 A 
ATOM     15  C   UNL     1      -1.596  -8.243   7.408  0.00  0.00    +0.047 A 
ATOM     16  C   UNL     1      -2.037  -7.739   6.228  0.00  0.00    +0.029 A 
ATOM     17  C   UNL     1      -1.029  -7.136   5.345  0.00  0.00    +0.043 A 
ATOM     18  N   UNL     1      -1.167  -6.554   4.171  0.00  0.00    -0.376 N 
ATOM     19  C   UNL     1       2.624  -6.426   4.650  0.00  0.00    +0.048 C 
ATOM     20  C   UNL     1       2.929  -6.957   3.237  0.00  0.00    +0.085 C 
ATOM     21  N   UNL     1       2.042  -6.323   2.257  0.00  0.00    -0.310 NA
ATOM     22  H   UNL     1       2.342  -6.524   1.315  0.00  0.00    +0.122 HD
ATOM     23  H   UNL     1      -1.986  -6.465   3.659  0.00  0.00    +0.160 HD
BRANCH  14  24
ATOM     24  O   UNL     1       0.044  -8.756   9.037  0.00  0.00    -0.495 OA
ATOM     25  C   UNL     1      -1.039  -9.304   9.791  0.00  0.00    +0.277 C 
ENDBRANCH  14  24
ENDBRANCH   3   9
BRANCH   1  30
ATOM     26  C   UNL     1      -3.343   0.904  -0.062  0.00  0.00    +0.044 C 
ATOM     27  C   UNL     1      -2.611  -0.414  -0.044  0.00  0.00    -0.050 A 
ATOM     28  C   UNL     1      -3.308  -1.587   0.182  0.00  0.00    +0.005 A 
ATOM     29  C   UNL     1      -2.641  -2.796   0.199  0.00  0.00    +0.024 A 
ATOM     30  C   UNL     1      -1.269  -2.833  -0.011  0.00  0.00    +0.040 A 
ATOM     31  C   UNL     1      -0.572  -1.654  -0.238  0.00  0.00    +0.024 A 
ATOM     32  C   UNL     1      -1.246  -0.448  -0.259  0.00  0.00    +0.005 A 
ENDBRANCH   1  30
BRANCH   6  33
ATOM     33  C   UNL     1       0.507  -6.534  -2.376  0.00  0.00    +0.045 A 
ATOM     34  C   UNL     1       1.780  -6.303  -2.879  0.00  0.00    +0.024 A 
ATOM     35  C   UNL     1       2.159  -6.864  -4.083  0.00  0.00    +0.005 A 
ATOM     36  C   UNL     1       1.270  -7.656  -4.788  0.00  0.00    -0.050 A 
ATOM     37  C   UNL     1       0.001  -7.887  -4.290  0.00  0.00    +0.005 A 
ATOM     38  C   UNL     1      -0.380  -7.334  -3.083  0.00  0.00    +0.024 A 
ATOM     39  C   UNL     1       1.686  -8.266  -6.101  0.00  0.00    +0.044 C 
ENDBRANCH   6  33
BRANCH   2  40
ATOM     40  O   UNL     1       1.305  -4.216   1.408  0.00  0.00    -0.373 OA
ATOM     41  H   UNL     1       1.464  -3.263   1.404  0.00  0.00    +0.212 HD
ENDBRANCH   2  40
TORSDOF 5
