REMARK  Name = ZINC36605139
REMARK  15 active torsions:
REMARK  status: ('A' for Active; 'I' for Inactive)
REMARK    1  A    between atoms: C_1  and  C_2
REMARK    2  A    between atoms: C_5  and  S_8
REMARK    3  A    between atoms: S_8  and  C_11
REMARK    4  A    between atoms: C_11  and  N_12
REMARK    5  A    between atoms: C_13  and  C_15
REMARK    6  A    between atoms: C_15  and  C_17
REMARK    7  A    between atoms: C_15  and  N_26
REMARK    8  A    between atoms: C_20  and  N_23
REMARK    9  A    between atoms: N_23  and  C_24
REMARK   10  A    between atoms: N_23  and  C_25
REMARK   11  A    between atoms: N_26  and  C_27
REMARK   12  A    between atoms: C_33  and  C_35
REMARK   13  A    between atoms: C_35  and  C_36
REMARK   14  A    between atoms: C_36  and  C_37
REMARK   15  A    between atoms: C_36  and  C_38
REMARK                            x       y       z     vdW  Elec       q    Type
REMARK                         _______ _______ _______ _____ _____    ______ ____
ROOT
ATOM      1  C   UNL     1       2.903  -4.917   3.068  0.00  0.00    +0.197 C 
ENDROOT
BRANCH   1   2
ATOM      2  C   UNL     1       4.083  -4.236   2.423  0.00  0.00    -0.018 A 
ATOM      3  C   UNL     1       5.365  -4.682   2.686  0.00  0.00    +0.008 A 
ATOM      4  C   UNL     1       6.448  -4.060   2.096  0.00  0.00    +0.023 A 
ATOM      5  C   UNL     1       6.248  -2.986   1.239  0.00  0.00    +0.029 A 
ATOM      6  C   UNL     1       4.959  -2.541   0.977  0.00  0.00    +0.023 A 
ATOM      7  C   UNL     1       3.880  -3.171   1.566  0.00  0.00    +0.008 A 
BRANCH   5   8
ATOM      8  N   UNL     1       7.342  -2.354   0.641  0.00  0.00    -0.336 N 
ATOM      9  C   UNL     1       8.701  -2.825   0.919  0.00  0.00    +0.129 C 
ATOM     10  C   UNL     1       7.129  -1.222  -0.263  0.00  0.00    +0.129 C 
ENDBRANCH   5   8
ENDBRANCH   1   2
BRANCH   1  12
ATOM     11  N   UNL     1       2.175  -5.898   0.917  0.00  0.00    -0.294 N 
ATOM     12  C   UNL     1       2.471  -6.085   2.219  0.00  0.00    +0.240 C 
ATOM     13  O   UNL     1       2.390  -7.192   2.707  0.00  0.00    -0.273 OA
ATOM     14  H   UNL     1       2.239  -5.013   0.527  0.00  0.00    +0.150 HD
BRANCH  11  15
ATOM     15  C   UNL     1       1.755  -7.033   0.092  0.00  0.00    +0.278 C 
BRANCH  15  16
ATOM     16  S   UNL     1      -0.057  -7.110   0.047  0.00  0.00    +0.013 S 
ATOM     17  O   UNL     1      -0.586  -6.978   1.359  0.00  0.00    -0.168 OA
ATOM     18  O   UNL     1      -0.481  -8.169  -0.801  0.00  0.00    -0.168 OA
BRANCH  16  23
ATOM     19  C   UNL     1      -1.756  -2.075  -2.809  0.00  0.00    +0.044 C 
ATOM     20  C   UNL     1      -1.332  -3.332  -2.096  0.00  0.00    -0.050 A 
ATOM     21  C   UNL     1      -1.085  -4.486  -2.816  0.00  0.00    +0.005 A 
ATOM     22  C   UNL     1      -0.696  -5.640  -2.162  0.00  0.00    +0.027 A 
ATOM     23  C   UNL     1      -0.552  -5.640  -0.787  0.00  0.00    +0.090 A 
ATOM     24  C   UNL     1      -0.798  -4.486  -0.067  0.00  0.00    +0.027 A 
ATOM     25  C   UNL     1      -1.183  -3.331  -0.722  0.00  0.00    +0.005 A 
ENDBRANCH  16  23
ENDBRANCH  15  16
ENDBRANCH  11  15
ENDBRANCH   1  12
BRANCH   1  26
ATOM     26  N   UNL     1       3.284  -5.396   4.399  0.00  0.00    -0.255 N 
ATOM     27  C   UNL     1       4.086  -6.472   4.525  0.00  0.00    +0.221 C 
ATOM     28  O   UNL     1       4.516  -7.026   3.536  0.00  0.00    -0.275 OA
BRANCH  26  29
ATOM     29  C   UNL     1       2.814  -4.736   5.541  0.00  0.00    +0.037 A 
ATOM     30  C   UNL     1       2.869  -3.350   5.615  0.00  0.00    +0.023 A 
ATOM     31  C   UNL     1       2.405  -2.702   6.743  0.00  0.00    +0.002 A 
ATOM     32  C   UNL     1       1.886  -3.431   7.797  0.00  0.00    +0.000 A 
ATOM     33  C   UNL     1       1.830  -4.811   7.726  0.00  0.00    +0.002 A 
ATOM     34  C   UNL     1       2.288  -5.465   6.599  0.00  0.00    +0.023 A 
ENDBRANCH  26  29
BRANCH  27  35
ATOM     35  C   UNL     1       4.447  -6.987   5.894  0.00  0.00    +0.099 C 
BRANCH  35  36
ATOM     36  C   UNL     1       5.956  -7.228   5.967  0.00  0.00    -0.008 C 
ATOM     37  C   UNL     1       6.340  -7.631   7.392  0.00  0.00    +0.008 C 
ATOM     38  C   UNL     1       6.341  -8.348   4.999  0.00  0.00    +0.008 C 
ENDBRANCH  35  36
ENDBRANCH  27  35
ENDBRANCH   1  26
TORSDOF 10
