REMARK  Name = ZINC24014082
REMARK  12 active torsions:
REMARK  status: ('A' for Active; 'I' for Inactive)
REMARK    1  A    between atoms: C_1  and  C_2
REMARK    2  A    between atoms: C_3  and  C_28
REMARK    3  A    between atoms: C_4  and  C_19
REMARK    4  A    between atoms: C_10  and  S_15
REMARK    5  A    between atoms: S_15  and  C_16
REMARK    6  A    between atoms: C_16  and  C_17
REMARK    7  A    between atoms: C_22  and  C_25
REMARK    8  A    between atoms: C_25  and  C_26
REMARK    9  A    between atoms: C_25  and  C_27
REMARK   10  A    between atoms: C_28  and  O_30
REMARK   11  A    between atoms: O_30  and  C_31
REMARK   12  A    between atoms: C_31  and  C_32
REMARK                            x       y       z     vdW  Elec       q    Type
REMARK                         _______ _______ _______ _____ _____    ______ ____
ROOT
ATOM      1  C   UNL     1      -5.722   2.454  -1.029  0.00  0.00    +0.061 C 
ATOM      2  C   UNL     1      -5.729   1.570  -2.250  0.00  0.00    +0.017 C 
ATOM      3  C   UNL     1      -4.715   0.714  -2.454  0.00  0.00    +0.065 C 
ATOM      4  C   UNL     1      -4.668  -0.185  -3.656  0.00  0.00    +0.095 C 
ATOM      5  C   UNL     1      -6.015  -0.271  -4.317  0.00  0.00    +0.062 C 
ATOM      6  C   UNL     1      -6.994   0.634  -4.028  0.00  0.00    +0.099 C 
ATOM      7  N   UNL     1      -6.767   1.654  -3.139  0.00  0.00    -0.306 N 
ATOM      8  N   UNL     1      -8.222   0.508  -4.636  0.00  0.00    -0.305 N 
ATOM      9  C   UNL     1      -8.287  -0.117  -5.963  0.00  0.00    +0.220 C 
ATOM     10  N   UNL     1      -7.397  -1.282  -5.986  0.00  0.00    -0.285 N 
ATOM     11  C   UNL     1      -6.278  -1.299  -5.239  0.00  0.00    +0.246 C 
ATOM     12  O   UNL     1      -5.484  -2.215  -5.363  0.00  0.00    -0.270 OA
ATOM     13  H   UNL     1      -7.420   2.539  -3.140  0.00  0.00    +0.153 HD
ATOM     14  H   UNL     1      -9.142   0.864  -4.150  0.00  0.00    +0.150 HD
ATOM     15  H   UNL     1      -7.643  -2.150  -6.616  0.00  0.00    +0.152 HD
ENDROOT
BRANCH   4  16
ATOM     16  C   UNL     1      -3.667   0.360  -4.643  0.00  0.00    -0.035 A 
ATOM     17  C   UNL     1      -2.755  -0.489  -5.242  0.00  0.00    +0.005 A 
ATOM     18  C   UNL     1      -1.841   0.010  -6.151  0.00  0.00    +0.004 A 
ATOM     19  C   UNL     1      -1.831   1.359  -6.452  0.00  0.00    -0.045 A 
ATOM     20  C   UNL     1      -2.740   2.208  -5.849  0.00  0.00    +0.004 A 
ATOM     21  C   UNL     1      -3.658   1.709  -4.944  0.00  0.00    +0.005 A 
BRANCH  19  22
ATOM     22  C   UNL     1      -0.831   1.904  -7.438  0.00  0.00    +0.013 C 
ATOM     23  C   UNL     1       0.587   1.629  -6.931  0.00  0.00    +0.012 C 
ATOM     24  C   UNL     1      -1.028   1.223  -8.794  0.00  0.00    +0.012 C 
ENDBRANCH  19  22
ENDBRANCH   4  16
BRANCH   3  25
ATOM     25  C   UNL     1      -3.665   0.653  -1.509  0.00  0.00    +0.338 C 
ATOM     26  O   UNL     1      -3.640   1.434  -0.576  0.00  0.00    -0.245 OA
BRANCH  25  27
ATOM     27  O   UNL     1      -2.690  -0.270  -1.642  0.00  0.00    -0.457 OA
BRANCH  27  28
ATOM     28  C   UNL     1      -1.661  -0.274  -0.651  0.00  0.00    +0.259 C 
BRANCH  28  29
ATOM     29  C   UNL     1      -0.668  -1.365  -0.961  0.00  0.00    +0.006 C 
ATOM     30  C   UNL     1       0.617  -1.120  -0.895  0.00  0.00    +0.007 C 
ENDBRANCH  28  29
ENDBRANCH  27  28
ENDBRANCH  25  27
ENDBRANCH   3  25
BRANCH   9  31
ATOM     31  S   UNL     1      -7.760   1.074  -7.225  0.00  0.00    -0.115 S 
BRANCH  31  32
ATOM     32  C   UNL     1      -6.020   1.396  -6.825  0.00  0.00    +0.099 C 
BRANCH  32  33
ATOM     33  C   UNL     1      -5.455   2.391  -7.806  0.00  0.00    -0.024 C 
ATOM     34  C   UNL     1      -5.069   3.572  -7.391  0.00  0.00    +0.005 C 
ENDBRANCH  32  33
ENDBRANCH  31  32
ENDBRANCH   9  31
TORSDOF 9
