REMARK  Name = ZINC22437273
REMARK  9 active torsions:
REMARK  status: ('A' for Active; 'I' for Inactive)
REMARK    1  A    between atoms: C_1  and  C_2
REMARK    2  A    between atoms: C_5  and  N_9
REMARK    3  A    between atoms: C_6  and  C_8
REMARK    4  A    between atoms: N_9  and  C_10
REMARK    5  A    between atoms: C_10  and  C_17
REMARK    6  A    between atoms: C_13  and  C_16
REMARK    7  A    between atoms: N_21  and  C_22
REMARK    8  A    between atoms: C_26  and  C_29
REMARK    9  A    between atoms: C_27  and  C_28
REMARK                            x       y       z     vdW  Elec       q    Type
REMARK                         _______ _______ _______ _____ _____    ______ ____
ROOT
ATOM      1  C   UNL     1       3.813   4.000  -0.237  0.00  0.00    +0.094 C 
ATOM      2  C   UNL     1       4.179   3.075   0.925  0.00  0.00    +0.034 C 
ATOM      3  C   UNL     1       5.590   2.523   0.713  0.00  0.00    +0.006 C 
ATOM      4  C   UNL     1       6.587   3.682   0.649  0.00  0.00    -0.014 C 
ATOM      5  C   UNL     1       6.221   4.606  -0.513  0.00  0.00    +0.006 C 
ATOM      6  C   UNL     1       4.810   5.159  -0.301  0.00  0.00    +0.034 C 
ATOM      7  C   UNL     1       7.998   3.130   0.437  0.00  0.00    +0.007 C 
ENDROOT
BRANCH   1   8
ATOM      8  C   UNL     1       2.423   4.543  -0.028  0.00  0.00    +0.180 A 
ATOM      9  N   UNL     1       2.091   5.804   0.070  0.00  0.00    -0.111 NA
ATOM     10  N   UNL     1       0.824   5.926   0.245  0.00  0.00    -0.023 NA
ATOM     11  N   UNL     1       0.264   4.765   0.265  0.00  0.00    -0.039 NA
ATOM     12  N   UNL     1       1.290   3.819   0.093  0.00  0.00    -0.195 N 
BRANCH  12  13
ATOM     13  C   UNL     1       1.163   2.423   0.051  0.00  0.00    +0.072 A 
ATOM     14  C   UNL     1       1.616   1.716  -1.054  0.00  0.00    +0.028 A 
ATOM     15  C   UNL     1       1.490   0.341  -1.093  0.00  0.00    +0.002 A 
ATOM     16  C   UNL     1       0.912  -0.331  -0.032  0.00  0.00    +0.004 A 
ATOM     17  C   UNL     1       0.460   0.370   1.071  0.00  0.00    -0.046 A 
ATOM     18  C   UNL     1       0.584   1.745   1.115  0.00  0.00    -0.022 A 
ATOM     19  C   UNL     1       0.085   2.509   2.315  0.00  0.00    +0.046 C 
ATOM     20  C   UNL     1      -0.168  -0.367   2.226  0.00  0.00    +0.044 C 
ENDBRANCH  12  13
ENDBRANCH   1   8
BRANCH   1  21
ATOM     21  N   UNL     1       3.859   3.247  -1.493  0.00  0.00    -0.331 N 
ATOM     22  H   UNL     1       4.185   2.196  -1.493  0.00  0.00    +0.147 HD
BRANCH  21  27
ATOM     23  C   UNL     1       2.358   5.749  -6.356  0.00  0.00    +0.044 C 
ATOM     24  C   UNL     1       2.756   5.084  -5.064  0.00  0.00    -0.050 A 
ATOM     25  C   UNL     1       2.655   5.777  -3.871  0.00  0.00    +0.005 A 
ATOM     26  C   UNL     1       3.019   5.171  -2.685  0.00  0.00    +0.023 A 
ATOM     27  C   UNL     1       3.489   3.863  -2.691  0.00  0.00    +0.031 A 
ATOM     28  C   UNL     1       3.594   3.172  -3.891  0.00  0.00    -0.029 A 
ATOM     29  C   UNL     1       3.223   3.782  -5.073  0.00  0.00    +0.008 A 
ATOM     30  C   UNL     1       4.108   1.755  -3.903  0.00  0.00    +0.045 C 
ENDBRANCH  21  27
ENDBRANCH   1  21
TORSDOF 4
