REMARK  Name = ZINC42506473
REMARK  11 active torsions:
REMARK  status: ('A' for Active; 'I' for Inactive)
REMARK    1  A    between atoms: C_1  and  C_2
REMARK    2  A    between atoms: C_13  and  C_15
REMARK    3  A    between atoms: C_15  and  C_17
REMARK    4  A    between atoms: C_15  and  N_18
REMARK    5  A    between atoms: N_18  and  C_19
REMARK    6  A    between atoms: N_18  and  C_20
REMARK    7  A    between atoms: C_20  and  C_21
REMARK    8  A    between atoms: N_23  and  C_24
REMARK    9  A    between atoms: C_24  and  C_25
REMARK   10  A    between atoms: C_24  and  C_26
REMARK   11  A    between atoms: C_24  and  C_27
REMARK                            x       y       z     vdW  Elec       q    Type
REMARK                         _______ _______ _______ _____ _____    ______ ____
ROOT
ATOM      1  C   UNL     1       2.142  -0.335   3.154  0.00  0.00    +0.017 C 
ATOM      2  C   UNL     1       1.507  -1.291   4.166  0.00  0.00    -0.004 C 
ENDROOT
BRANCH   1  14
ATOM      3  C   UNL     1       2.534  -2.296   1.893  0.00  0.00    +0.028 C 
ATOM      4  C   UNL     1       1.099  -2.320   1.363  0.00  0.00    +0.079 C 
ATOM      5  C   UNL     1       1.090  -2.817  -0.089  0.00  0.00    +0.027 C 
ATOM      6  C   UNL     1      -0.357  -2.900  -0.574  0.00  0.00    +0.039 C 
ATOM      7  C   UNL     1      -1.075  -1.602  -0.315  0.00  0.00    -0.026 A 
ATOM      8  C   UNL     1      -2.218  -1.312  -1.041  0.00  0.00    +0.005 A 
ATOM      9  C   UNL     1      -2.901  -0.131  -0.825  0.00  0.00    +0.000 A 
ATOM     10  C   UNL     1      -2.447   0.770   0.121  0.00  0.00    +0.002 A 
ATOM     11  C   UNL     1      -1.308   0.489   0.850  0.00  0.00    +0.024 A 
ATOM     12  C   UNL     1      -0.619  -0.699   0.631  0.00  0.00    +0.040 A 
ATOM     13  N   UNL     1       0.540  -0.962   1.376  0.00  0.00    -0.270 N 
ATOM     14  C   UNL     1       1.131   0.015   2.092  0.00  0.00    +0.206 C 
ATOM     15  O   UNL     1       0.850   1.176   1.882  0.00  0.00    -0.277 OA
ENDBRANCH   1  14
BRANCH   1  16
ATOM     16  N   UNL     1       2.574   0.889   3.841  0.00  0.00    +0.391 N 
ATOM     17  C   UNL     1       3.316   1.742   2.902  0.00  0.00    -0.094 C 
ATOM     18  H   UNL     1       1.765   1.388   4.181  0.00  0.00    -0.080 HD
BRANCH  16  19
ATOM     19  C   UNL     1       3.442   0.536   4.972  0.00  0.00    +0.019 C 
BRANCH  19  20
ATOM     20  C   UNL     1       3.787   1.780   5.749  0.00  0.00    +0.197 C 
ATOM     21  O   UNL     1       3.351   2.855   5.396  0.00  0.00    -0.278 OA
ATOM     22  N   UNL     1       4.578   1.697   6.837  0.00  0.00    -0.312 N 
ATOM     23  H   UNL     1       4.926   0.837   7.120  0.00  0.00    +0.149 HD
BRANCH  22  24
ATOM     24  C   UNL     1       4.912   2.907   7.593  0.00  0.00    +0.026 C 
ATOM     25  C   UNL     1       3.628   3.552   8.118  0.00  0.00    +0.031 C 
ATOM     26  C   UNL     1       5.817   2.538   8.771  0.00  0.00    +0.031 C 
ATOM     27  C   UNL     1       5.642   3.894   6.679  0.00  0.00    +0.031 C 
ENDBRANCH  22  24
ENDBRANCH  19  20
ENDBRANCH  16  19
ENDBRANCH   1  16
TORSDOF 5
