REMARK  Name = ZINC36206723
REMARK  17 active torsions:
REMARK  status: ('A' for Active; 'I' for Inactive)
REMARK    1  A    between atoms: C_1  and  C_2
REMARK    2  A    between atoms: C_2  and  C_3
REMARK    3  A    between atoms: C_9  and  C_18
REMARK    4  A    between atoms: C_13  and  C_14
REMARK    5  A    between atoms: C_14  and  O_16
REMARK    6  A    between atoms: O_16  and  C_17
REMARK    7  A    between atoms: C_18  and  N_19
REMARK    8  A    between atoms: N_19  and  C_20
REMARK    9  A    between atoms: N_19  and  C_27
REMARK   10  A    between atoms: C_20  and  C_21
REMARK   11  A    between atoms: C_27  and  C_28
REMARK   12  A    between atoms: C_28  and  C_30
REMARK   13  A    between atoms: C_28  and  O_35
REMARK   14  A    between atoms: C_30  and  O_31
REMARK   15  A    between atoms: O_31  and  C_32
REMARK   16  A    between atoms: C_32  and  C_33
REMARK   17  A    between atoms: C_32  and  C_34
REMARK                            x       y       z     vdW  Elec       q    Type
REMARK                         _______ _______ _______ _____ _____    ______ ____
ROOT
ATOM      1  C   UNL     1      -4.301  -1.957   4.350  0.00  0.00    -0.003 C 
ENDROOT
BRANCH   1   8
ATOM      2  C   UNL     1      -1.413  -2.282  -0.497  0.00  0.00    -0.012 A 
ATOM      3  C   UNL     1      -1.996  -2.175   0.767  0.00  0.00    +0.076 A 
ATOM      4  C   UNL     1      -1.354  -1.903   2.074  0.00  0.00    +0.260 A 
ATOM      5  O   UNL     1      -0.150  -1.734   2.155  0.00  0.00    -0.267 OA
ATOM      6  N   UNL     1      -2.136  -1.846   3.170  0.00  0.00    -0.312 N 
ATOM      7  H   UNL     1      -1.731  -1.669   4.033  0.00  0.00    +0.170 HD
ATOM      8  C   UNL     1      -3.477  -2.032   3.091  0.00  0.00    +0.094 A 
ATOM      9  N   UNL     1      -4.074  -2.273   1.955  0.00  0.00    -0.229 NA
ATOM     10  C   UNL     1      -3.398  -2.350   0.816  0.00  0.00    +0.116 A 
ATOM     11  S   UNL     1      -3.831  -2.652  -0.879  0.00  0.00    -0.062 S 
ATOM     12  C   UNL     1      -2.196  -2.535  -1.586  0.00  0.00    +0.102 A 
BRANCH   2  14
ATOM     13  C   UNL     1       0.396  -0.638  -0.912  0.00  0.00    +0.009 C 
ATOM     14  C   UNL     1       0.075  -2.112  -0.659  0.00  0.00    +0.034 C 
ENDBRANCH   2  14
BRANCH  12  15
ATOM     15  C   UNL     1      -1.794  -2.678  -2.987  0.00  0.00    +0.346 C 
ATOM     16  O   UNL     1      -0.623  -2.570  -3.298  0.00  0.00    -0.244 OA
BRANCH  15  17
ATOM     17  O   UNL     1      -2.723  -2.930  -3.933  0.00  0.00    -0.464 OA
ATOM     18  C   UNL     1      -2.260  -3.058  -5.279  0.00  0.00    +0.280 C 
ENDBRANCH  15  17
ENDBRANCH  12  15
ENDBRANCH   1   8
BRANCH   1  19
ATOM     19  N   UNL     1      -5.727  -2.049   4.008  0.00  0.00    +0.389 N 
ATOM     20  H   UNL     1      -5.885  -2.869   3.442  0.00  0.00    -0.081 HD
BRANCH  19  21
ATOM     21  C   UNL     1      -6.128  -0.852   3.258  0.00  0.00    -0.042 C 
BRANCH  21  22
ATOM     22  C   UNL     1      -5.727   0.381   4.027  0.00  0.00    -0.064 A 
ATOM     23  C   UNL     1      -6.555   0.879   5.015  0.00  0.00    +0.002 A 
ATOM     24  C   UNL     1      -6.187   2.010   5.721  0.00  0.00    +0.000 A 
ATOM     25  C   UNL     1      -4.990   2.641   5.438  0.00  0.00    +0.000 A 
ATOM     26  C   UNL     1      -4.162   2.143   4.450  0.00  0.00    +0.000 A 
ATOM     27  C   UNL     1      -4.528   1.010   3.748  0.00  0.00    +0.002 A 
ENDBRANCH  21  22
ENDBRANCH  19  21
BRANCH  19  28
ATOM     28  C   UNL     1      -6.521  -2.144   5.240  0.00  0.00    -0.044 C 
BRANCH  28  29
ATOM     29  C   UNL     1      -7.872  -2.790   4.927  0.00  0.00    +0.124 C 
BRANCH  29  30
ATOM     30  O   UNL     1      -8.577  -1.984   3.981  0.00  0.00    -0.391 OA
ATOM     31  H   UNL     1      -8.746  -1.081   4.281  0.00  0.00    +0.210 HD
ENDBRANCH  29  30
BRANCH  29  32
ATOM     32  C   UNL     1      -8.694  -2.901   6.213  0.00  0.00    +0.189 C 
BRANCH  32  33
ATOM     33  O   UNL     1      -9.906  -3.608   5.944  0.00  0.00    -0.375 OA
BRANCH  33  34
ATOM     34  C   UNL     1     -10.751  -3.768   7.085  0.00  0.00    +0.112 C 
ATOM     35  C   UNL     1     -12.213  -3.817   6.635  0.00  0.00    +0.037 C 
ATOM     36  C   UNL     1     -10.396  -5.072   7.804  0.00  0.00    +0.037 C 
ENDBRANCH  33  34
ENDBRANCH  32  33
ENDBRANCH  29  32
ENDBRANCH  28  29
ENDBRANCH  19  28
ENDBRANCH   1  19
TORSDOF 13
