REMARK  Name = ZINC18086041
REMARK  5 active torsions:
REMARK  status: ('A' for Active; 'I' for Inactive)
REMARK    1  A    between atoms: C_1  and  C_2
REMARK    2  A    between atoms: N_7  and  S_9
REMARK    3  A    between atoms: S_9  and  C_12
REMARK    4  A    between atoms: C_15  and  N_18
REMARK    5  A    between atoms: C_19  and  C_21
REMARK                            x       y       z     vdW  Elec       q    Type
REMARK                         _______ _______ _______ _____ _____    ______ ____
ROOT
ATOM      1  C   UNL     1       0.033  -0.550   1.677  0.00  0.00    +0.106 A 
ATOM      2  C   UNL     1       1.227  -0.913   2.273  0.00  0.00    +0.030 A 
ATOM      3  C   UNL     1       1.247  -1.318   3.593  0.00  0.00    +0.025 A 
ATOM      4  C   UNL     1       0.064  -1.372   4.319  0.00  0.00    +0.034 A 
ATOM      5  C   UNL     1      -1.134  -1.011   3.716  0.00  0.00    +0.025 A 
ATOM      6  C   UNL     1      -1.146  -0.602   2.397  0.00  0.00    +0.030 A 
ENDROOT
BRANCH   4   7
ATOM      7  N   UNL     1       0.080  -1.787   5.654  0.00  0.00    -0.282 N 
ATOM      8  C   UNL     1       1.141  -1.505   6.435  0.00  0.00    +0.248 C 
ATOM      9  O   UNL     1       2.043  -0.807   6.009  0.00  0.00    -0.270 OA
ATOM     10  H   UNL     1      -0.673  -2.279   6.018  0.00  0.00    +0.155 HD
BRANCH   8  11
ATOM     11  C   UNL     1       1.210  -2.038   7.795  0.00  0.00    +0.052 C 
ATOM     12  C   UNL     1       2.280  -1.760   8.582  0.00  0.00    +0.023 C 
ATOM     13  C   UNL     1       2.305  -2.336   9.935  0.00  0.00    +0.017 A 
ATOM     14  C   UNL     1       3.167  -1.850  10.918  0.00  0.00    +0.011 A 
ATOM     15  C   UNL     1       3.158  -2.423  12.173  0.00  0.00    +0.001 A 
ATOM     16  C   UNL     1       2.301  -3.474  12.457  0.00  0.00    +0.004 A 
ATOM     17  C   UNL     1       1.443  -3.964  11.490  0.00  0.00    +0.046 A 
ATOM     18  C   UNL     1       1.436  -3.402  10.226  0.00  0.00    +0.128 A 
ATOM     19  O   UNL     1       0.607  -3.859   9.256  0.00  0.00    -0.487 OA
ATOM     20  C   UNL     1       0.097  -2.902   8.326  0.00  0.00    +0.269 C 
ENDBRANCH   8  11
ENDBRANCH   4   7
BRANCH   1  21
ATOM     21  S   UNL     1       0.013  -0.027  -0.005  0.00  0.00    +0.061 S 
ATOM     22  O   UNL     1      -1.300  -0.268  -0.490  0.00  0.00    -0.153 OA
ATOM     23  O   UNL     1       1.167  -0.586  -0.618  0.00  0.00    -0.153 OA
BRANCH  21  29
ATOM     24  C   UNL     1       3.092   3.892   0.957  0.00  0.00    +0.009 C 
ATOM     25  C   UNL     1       1.745   3.178   1.087  0.00  0.00    +0.002 C 
ATOM     26  C   UNL     1       0.614   4.208   1.052  0.00  0.00    +0.006 C 
ATOM     27  C   UNL     1      -0.731   3.497   1.215  0.00  0.00    +0.017 C 
ATOM     28  C   UNL     1      -0.932   2.520   0.047  0.00  0.00    +0.109 C 
ATOM     29  N   UNL     1       0.225   1.616  -0.010  0.00  0.00    -0.176 NA
ATOM     30  C   UNL     1       1.573   2.197  -0.077  0.00  0.00    +0.112 C 
ENDBRANCH  21  29
ENDBRANCH   1  21
TORSDOF 4
