REMARK  Name = ZINC53068043
REMARK  1 active torsions:
REMARK  status: ('A' for Active; 'I' for Inactive)
REMARK    1  A    between atoms: C_9  and  C_11
REMARK                            x       y       z     vdW  Elec       q    Type
REMARK                         _______ _______ _______ _____ _____    ______ ____
ROOT
ATOM      1  C   UNL     1       6.009   0.916  -0.052  0.00  0.00    +0.167 C 
ATOM      2  C   UNL     1       6.523   1.071   1.382  0.00  0.00    -0.042 C 
ATOM      3  N   UNL     1       7.985   1.223   1.361  0.00  0.00    +0.386 N 
ATOM      4  C   UNL     1       8.342   2.403   0.569  0.00  0.00    -0.044 C 
ATOM      5  C   UNL     1       9.872   2.574   0.545  0.00  0.00    -0.010 C 
ATOM      6  C   UNL     1      10.083   4.108   0.607  0.00  0.00    -0.001 C 
ATOM      7  C   UNL     1       8.964   4.569   1.574  0.00  0.00    -0.001 C 
ATOM      8  C   UNL     1       7.762   3.668   1.219  0.00  0.00    -0.010 C 
ATOM      9  C   UNL     1       7.816   2.263  -0.858  0.00  0.00    +0.148 C 
ATOM     10  O   UNL     1       6.401   2.055  -0.822  0.00  0.00    -0.372 OA
ATOM     11  H   UNL     1       8.325   1.335   2.304  0.00  0.00    -0.085 HD
ATOM     12  H   UNL     1       8.403   0.402   0.948  0.00  0.00    -0.085 HD
ENDROOT
BRANCH   1  21
ATOM     13  C   UNL     1      -0.017   1.384   0.010  0.00  0.00    +0.019 A 
ATOM     14  C   UNL     1       1.159   2.103   0.002  0.00  0.00    +0.048 A 
ATOM     15  C   UNL     1       2.379   1.439  -0.013  0.00  0.00    +0.135 A 
ATOM     16  C   UNL     1       2.398   0.034  -0.021  0.00  0.00    +0.022 A 
ATOM     17  C   UNL     1       1.202  -0.682  -0.012  0.00  0.00    +0.027 A 
ATOM     18  C   UNL     1       0.002  -0.004   0.002  0.00  0.00    +0.019 A 
ATOM     19 BR   UNL     1      -1.625  -0.968   0.012  0.00  0.00    -0.050 Br
ATOM     20  C   UNL     1       3.817  -0.339  -0.037  0.00  0.00    +0.056 A 
ATOM     21  C   UNL     1       4.506   0.810  -0.038  0.00  0.00    +0.133 A 
ATOM     22  O   UNL     1       3.661   1.856  -0.024  0.00  0.00    -0.457 OA
ENDBRANCH   1  21
TORSDOF 1
