REMARK  Name = ZINC49569507
REMARK  1 active torsions:
REMARK  status: ('A' for Active; 'I' for Inactive)
REMARK    1  A    between atoms: N_11  and  C_12
REMARK                            x       y       z     vdW  Elec       q    Type
REMARK                         _______ _______ _______ _____ _____    ______ ____
ROOT
ATOM      1  C   UNL     1      -0.017   1.383   0.010  0.00  0.00    +0.016 A 
ATOM      2  C   UNL     1       1.180   2.077   0.002  0.00  0.00    +0.018 A 
ATOM      3  C   UNL     1       2.364   1.384  -0.013  0.00  0.00    +0.041 A 
ATOM      4  C   UNL     1       2.423  -0.028  -0.021  0.00  0.00    +0.081 A 
ATOM      5  C   UNL     1       1.182  -0.704  -0.013  0.00  0.00    +0.044 A 
ATOM      6  C   UNL     1       0.002  -0.004   0.002  0.00  0.00    +0.020 A 
ATOM      7 BR   UNL     1      -1.635  -0.951   0.013  0.00  0.00    -0.050 Br
ATOM      8  N   UNL     1       3.664  -0.562  -0.036  0.00  0.00    -0.225 NA
ATOM      9  C   UNL     1       4.750   0.176  -0.042  0.00  0.00    +0.159 A 
ATOM     10  S   UNL     1       4.083   1.835  -0.027  0.00  0.00    -0.052 S 
ATOM     11  N   UNL     1       6.070  -0.226  -0.057  0.00  0.00    -0.322 N 
ATOM     12  H   UNL     1       6.289  -1.170  -0.063  0.00  0.00    +0.148 HD
ENDROOT
BRANCH  11  13
ATOM     13  C   UNL     1       7.140   0.775  -0.061  0.00  0.00    +0.057 C 
ATOM     14  C   UNL     1       7.492   1.182  -1.507  0.00  0.00    +0.002 C 
ATOM     15  C   UNL     1       9.008   1.438  -1.478  0.00  0.00    -0.077 C 
ATOM     16  N   UNL     1       9.550   0.785  -0.280  0.00  0.00    +0.383 N 
ATOM     17  C   UNL     1       8.445   0.171   0.490  0.00  0.00    -0.048 C 
ATOM     18  C   UNL     1       8.483  -1.332   0.120  0.00  0.00    -0.015 C 
ATOM     19  C   UNL     1      10.004  -1.587  -0.043  0.00  0.00    -0.020 C 
ATOM     20  C   UNL     1      10.513  -0.262  -0.657  0.00  0.00    -0.078 C 
ATOM     21  H   UNL     1      10.008   1.471   0.301  0.00  0.00    -0.081 HD
ENDBRANCH  11  13
TORSDOF 1
