REMARK  Name = ZINC19898405
REMARK  10 active torsions:
REMARK  status: ('A' for Active; 'I' for Inactive)
REMARK    1  A    between atoms: C_1  and  C_2
REMARK    2  A    between atoms: C_2  and  C_3
REMARK    3  A    between atoms: C_3  and  C_5
REMARK    4  A    between atoms: C_3  and  O_6
REMARK    5  A    between atoms: O_6  and  C_7
REMARK    6  A    between atoms: C_7  and  C_9
REMARK    7  A    between atoms: C_10  and  C_35
REMARK    8  A    between atoms: C_14  and  C_16
REMARK    9  A    between atoms: C_19  and  O_22
REMARK   10  A    between atoms: C_26  and  C_29
REMARK                            x       y       z     vdW  Elec       q    Type
REMARK                         _______ _______ _______ _____ _____    ______ ____
ROOT
ATOM      1  C   UNL     1       6.316   6.722  -1.475  0.00  0.00    +0.065 C 
ATOM      2  C   UNL     1       5.582   6.319  -2.526  0.00  0.00    +0.016 C 
ATOM      3  N   UNL     1       4.266   5.986  -2.364  0.00  0.00    -0.321 N 
ATOM      4  C   UNL     1       3.772   5.672  -1.127  0.00  0.00    +0.016 C 
ATOM      5  C   UNL     1       4.434   6.044  -0.010  0.00  0.00    +0.024 C 
ATOM      6  C   UNL     1       5.720   6.826  -0.102  0.00  0.00    +0.092 C 
ATOM      7  C   UNL     1       3.947   5.712   1.266  0.00  0.00    +0.162 C 
ATOM      8  O   UNL     1       4.562   6.071   2.251  0.00  0.00    -0.292 OA
ATOM      9  C   UNL     1       2.679   4.921   1.435  0.00  0.00    +0.088 C 
ATOM     10  C   UNL     1       2.485   4.021   0.210  0.00  0.00    +0.032 C 
ATOM     11  C   UNL     1       2.478   4.901  -1.042  0.00  0.00    +0.059 C 
ATOM     12  C   UNL     1       6.213   6.234  -3.892  0.00  0.00    +0.061 C 
ATOM     13  H   UNL     1       3.592   5.969  -3.234  0.00  0.00    +0.152 HD
ENDROOT
BRANCH   6  14
ATOM     14  C   UNL     1       5.442   8.274   0.207  0.00  0.00    -0.035 A 
ATOM     15  C   UNL     1       4.559   8.990  -0.579  0.00  0.00    +0.008 A 
ATOM     16  C   UNL     1       4.298  10.317  -0.294  0.00  0.00    +0.046 A 
ATOM     17  C   UNL     1       4.932  10.933   0.774  0.00  0.00    +0.117 A 
ATOM     18  C   UNL     1       5.822  10.214   1.558  0.00  0.00    +0.046 A 
ATOM     19  C   UNL     1       6.075   8.886   1.273  0.00  0.00    +0.008 A 
BRANCH  17  20
ATOM     20  O   UNL     1       4.681  12.240   1.053  0.00  0.00    -0.507 OA
ATOM     21  H   UNL     1       5.185  12.727   1.901  0.00  0.00    +0.292 HD
ENDBRANCH  17  20
ENDBRANCH   6  14
BRANCH  10  22
ATOM     22  C   UNL     1       1.173   3.289   0.322  0.00  0.00    -0.044 A 
ATOM     23  C   UNL     1       1.151   1.907   0.324  0.00  0.00    +0.004 A 
ATOM     24  C   UNL     1      -0.053   1.235   0.427  0.00  0.00    +0.000 A 
ATOM     25  C   UNL     1      -1.235   1.946   0.522  0.00  0.00    +0.000 A 
ATOM     26  C   UNL     1      -1.212   3.328   0.524  0.00  0.00    +0.000 A 
ATOM     27  C   UNL     1      -0.009   3.999   0.422  0.00  0.00    +0.004 A 
ENDBRANCH  10  22
BRANCH   1  28
ATOM     28  C   UNL     1       7.678   7.054  -1.667  0.00  0.00    +0.338 C 
ATOM     29  O   UNL     1       8.201   6.875  -2.751  0.00  0.00    -0.245 OA
BRANCH  28  30
ATOM     30  O   UNL     1       8.397   7.570  -0.648  0.00  0.00    -0.458 OA
BRANCH  30  31
ATOM     31  C   UNL     1       9.766   7.883  -0.913  0.00  0.00    +0.173 C 
ATOM     32  C   UNL     1       9.872   9.325  -1.412  0.00  0.00    +0.052 C 
BRANCH  31  34
ATOM     33  C   UNL     1      10.579   6.258   0.801  0.00  0.00    +0.007 C 
ATOM     34  C   UNL     1      10.582   7.726   0.371  0.00  0.00    +0.041 C 
ENDBRANCH  31  34
ENDBRANCH  30  31
ENDBRANCH  28  30
ENDBRANCH   1  28
TORSDOF 7
