REMARK  Name = ZINC16840773
REMARK  9 active torsions:
REMARK  status: ('A' for Active; 'I' for Inactive)
REMARK    1  A    between atoms: C_1  and  C_2
REMARK    2  A    between atoms: C_2  and  C_3
REMARK    3  A    between atoms: C_4  and  C_24
REMARK    4  A    between atoms: C_6  and  S_10
REMARK    5  A    between atoms: C_8  and  O_9
REMARK    6  A    between atoms: S_10  and  C_11
REMARK    7  A    between atoms: C_11  and  C_12
REMARK    8  A    between atoms: C_13  and  C_23
REMARK    9  A    between atoms: C_15  and  C_17
REMARK                            x       y       z     vdW  Elec       q    Type
REMARK                         _______ _______ _______ _____ _____    ______ ____
ROOT
ATOM      1  C   UNL     1      -0.487   4.068   0.818  0.00  0.00    +0.136 C 
ENDROOT
BRANCH   1   2
ATOM      2  C   UNL     1      -0.923   2.855   1.598  0.00  0.00    +0.093 A 
ATOM      3  C   UNL     1      -0.718   1.572   1.248  0.00  0.00    +0.127 A 
ATOM      4  O   UNL     1      -1.256   0.802   2.215  0.00  0.00    -0.440 OA
ATOM      5  C   UNL     1      -1.786   1.620   3.140  0.00  0.00    +0.228 A 
ATOM      6  N   UNL     1      -1.587   2.861   2.764  0.00  0.00    -0.213 NA
ATOM      7  C   UNL     1      -0.013   1.086   0.008  0.00  0.00    +0.088 C 
BRANCH   5   8
ATOM      8  C   UNL     1      -2.479   1.193   4.375  0.00  0.00    +0.037 A 
ATOM      9  C   UNL     1      -2.982   2.146   5.261  0.00  0.00    +0.013 A 
ATOM     10  C   UNL     1      -3.632   1.741   6.409  0.00  0.00    +0.001 A 
ATOM     11  C   UNL     1      -3.775   0.394   6.687  0.00  0.00    +0.000 A 
ATOM     12  C   UNL     1      -3.273  -0.556   5.815  0.00  0.00    +0.001 A 
ATOM     13  C   UNL     1      -2.626  -0.165   4.662  0.00  0.00    +0.013 A 
ENDBRANCH   5   8
ENDBRANCH   1   2
BRANCH   1  14
ATOM     14  S   UNL     1      -1.797   4.546  -0.336  0.00  0.00    -0.080 S 
BRANCH  14  18
ATOM     15  C   UNL     1       0.100   8.079  -2.250  0.00  0.00    +0.035 A 
ATOM     16  C   UNL     1      -1.166   7.666  -2.623  0.00  0.00    +0.049 A 
ATOM     17  N   UNL     1      -1.700   6.606  -2.035  0.00  0.00    -0.227 NA
ATOM     18  C   UNL     1      -1.041   5.947  -1.092  0.00  0.00    +0.192 A 
ATOM     19  N   UNL     1       0.173   6.313  -0.709  0.00  0.00    -0.187 NA
ATOM     20  C   UNL     1       0.769   7.363  -1.259  0.00  0.00    +0.220 A 
ATOM     21  C   UNL     1      -1.927   8.411  -3.689  0.00  0.00    +0.066 C 
BRANCH  15  23
ATOM     22  C   UNL     1       1.535   8.828  -4.129  0.00  0.00    +0.009 C 
ATOM     23  C   UNL     1       0.741   9.278  -2.901  0.00  0.00    +0.039 C 
ENDBRANCH  15  23
BRANCH  20  24
ATOM     24  O   UNL     1       2.011   7.734  -0.864  0.00  0.00    -0.492 OA
ATOM     25  H   UNL     1       2.725   7.317  -1.366  0.00  0.00    +0.294 HD
ENDBRANCH  20  24
ENDBRANCH  14  18
ENDBRANCH   1  14
TORSDOF 6
