REMARK  Name = ZINC05062524
REMARK  6 active torsions:
REMARK  status: ('A' for Active; 'I' for Inactive)
REMARK    1  A    between atoms: C_4  and  C_7
REMARK    2  A    between atoms: C_7  and  C_8
REMARK    3  A    between atoms: C_8  and  C_10
REMARK    4  A    between atoms: C_8  and  N_23
REMARK    5  A    between atoms: N_15  and  C_18
REMARK    6  A    between atoms: C_24  and  C_26
REMARK                            x       y       z     vdW  Elec       q    Type
REMARK                         _______ _______ _______ _____ _____    ______ ____
ROOT
ATOM      1  C   UNL     1       0.117   9.312  -2.680  0.00  0.00    +0.164 C 
ENDROOT
BRANCH   1   2
ATOM      2  C   UNL     1       0.907   8.786  -1.509  0.00  0.00    +0.236 C 
ATOM      3  O   UNL     1       2.118   8.838  -1.522  0.00  0.00    -0.274 OA
ATOM      4  N   UNL     1       0.267   8.259  -0.446  0.00  0.00    -0.297 N 
ATOM      5  C   UNL     1       1.018   7.641   0.657  0.00  0.00    +0.127 C 
ATOM      6  C   UNL     1       0.434   6.249   0.924  0.00  0.00    +0.125 C 
ATOM      7  N   UNL     1      -1.013   6.363   1.145  0.00  0.00    -0.314 N 
ATOM      8  C   UNL     1      -1.697   6.869  -0.052  0.00  0.00    +0.125 C 
ATOM      9  C   UNL     1      -1.201   8.287  -0.359  0.00  0.00    +0.127 C 
BRANCH   7  10
ATOM     10  C   UNL     1      -1.552   5.147   1.550  0.00  0.00    +0.099 A 
ATOM     11  C   UNL     1      -2.916   5.051   1.811  0.00  0.00    +0.042 A 
ATOM     12  C   UNL     1      -3.439   3.834   2.209  0.00  0.00    +0.005 A 
ATOM     13  C   UNL     1      -2.577   2.753   2.342  0.00  0.00    +0.018 A 
ATOM     14  C   UNL     1      -1.235   2.921   2.067  0.00  0.00    +0.084 A 
ATOM     15  N   UNL     1      -0.687   4.100   1.669  0.00  0.00    -0.350 N 
ATOM     16  H   UNL     1       0.316   4.195   1.471  0.00  0.00    +0.166 HD
ENDBRANCH   7  10
ENDBRANCH   1   2
BRANCH   1  17
ATOM     17  N   UNL     1       0.938  10.259  -3.437  0.00  0.00    -0.300 N 
ATOM     18  C   UNL     1       0.350  11.214  -4.185  0.00  0.00    +0.245 C 
ATOM     19  O   UNL     1      -0.863  11.289  -4.230  0.00  0.00    -0.270 OA
ATOM     20  H   UNL     1       1.906  10.199  -3.401  0.00  0.00    +0.150 HD
BRANCH  18  21
ATOM     21  C   UNL     1       1.179  12.169  -4.949  0.00  0.00    +0.037 A 
ATOM     22  C   UNL     1       2.571  12.089  -4.895  0.00  0.00    +0.013 A 
ATOM     23  C   UNL     1       3.339  12.981  -5.615  0.00  0.00    +0.001 A 
ATOM     24  C   UNL     1       2.732  13.960  -6.381  0.00  0.00    +0.000 A 
ATOM     25  C   UNL     1       1.352  14.049  -6.435  0.00  0.00    +0.001 A 
ATOM     26  C   UNL     1       0.573  13.160  -5.724  0.00  0.00    +0.013 A 
ENDBRANCH  18  21
ENDBRANCH   1  17
BRANCH   1  27
ATOM     27  C   UNL     1      -0.287   8.147  -3.586  0.00  0.00    +0.067 C 
BRANCH  27  31
ATOM     28  C   UNL     1      -2.851   9.579  -6.688  0.00  0.00    +0.000 A 
ATOM     29  C   UNL     1      -1.482   9.556  -6.879  0.00  0.00    +0.000 A 
ATOM     30  C   UNL     1      -0.652   9.093  -5.875  0.00  0.00    +0.004 A 
ATOM     31  C   UNL     1      -1.191   8.653  -4.681  0.00  0.00    -0.045 A 
ATOM     32  C   UNL     1      -2.561   8.671  -4.492  0.00  0.00    +0.004 A 
ATOM     33  C   UNL     1      -3.390   9.139  -5.494  0.00  0.00    +0.000 A 
ENDBRANCH  27  31
ENDBRANCH   1  27
TORSDOF 6
