REMARK  Name = ZINC62363171
REMARK  4 active torsions:
REMARK  status: ('A' for Active; 'I' for Inactive)
REMARK    1  A    between atoms: C_1  and  N_2
REMARK    2  A    between atoms: N_2  and  C_3
REMARK    3  A    between atoms: C_3  and  C_4
REMARK    4  A    between atoms: C_12  and  N_18
REMARK                            x       y       z     vdW  Elec       q    Type
REMARK                         _______ _______ _______ _____ _____    ______ ____
ROOT
ATOM      1  C   UNL     1       0.027   1.493  -0.032  0.00  0.00    +0.131 C 
ATOM      2  N   UNL     1       0.003   0.028  -0.017  0.00  0.00    -0.312 N 
ATOM      3  C   UNL     1      -0.104  -0.677  -1.208  0.00  0.00    +0.147 A 
ATOM      4  C   UNL     1       1.043  -1.121  -1.879  0.00  0.00    +0.102 A 
ATOM      5  C   UNL     1       0.879  -1.822  -3.066  0.00  0.00    +0.155 A 
ATOM      6  N   UNL     1      -0.348  -2.044  -3.519  0.00  0.00    -0.222 NA
ATOM      7  C   UNL     1      -1.404  -1.612  -2.862  0.00  0.00    +0.225 A 
ATOM      8  N   UNL     1      -1.297  -0.947  -1.728  0.00  0.00    -0.219 NA
ATOM      9 CL   UNL     1       2.260  -2.398  -3.945  0.00  0.00    -0.060 Cl
ENDROOT
BRANCH   4  10
ATOM     10  N   UNL     1       2.321  -0.864  -1.365  0.00  0.00    -0.353 N 
ATOM     11  H   UNL     1       2.420  -0.449  -0.494  0.00  0.00    +0.143 HD
ATOM     12  H   UNL     1       3.108  -1.102  -1.881  0.00  0.00    +0.143 HD
ENDBRANCH   4  10
BRANCH   2  13
ATOM     13  C   UNL     1       0.092  -0.693   1.256  0.00  0.00    +0.141 C 
BRANCH  13  14
ATOM     14  C   UNL     1      -1.293  -0.915   1.805  0.00  0.00    -0.030 A 
ATOM     15  C   UNL     1      -1.866   0.028   2.638  0.00  0.00    +0.006 A 
ATOM     16  C   UNL     1      -3.137  -0.176   3.142  0.00  0.00    +0.015 A 
ATOM     17  C   UNL     1      -3.836  -1.323   2.812  0.00  0.00    +0.018 A 
ATOM     18  C   UNL     1      -3.262  -2.266   1.979  0.00  0.00    +0.015 A 
ATOM     19  C   UNL     1      -1.994  -2.059   1.471  0.00  0.00    +0.006 A 
ATOM     20 BR   UNL     1      -5.574  -1.602   3.502  0.00  0.00    -0.050 Br
ENDBRANCH  13  14
ENDBRANCH   2  13
TORSDOF 3
