REMARK  Name = ZINC54579942
REMARK  7 active torsions:
REMARK  status: ('A' for Active; 'I' for Inactive)
REMARK    1  A    between atoms: C_1  and  C_2
REMARK    2  A    between atoms: C_2  and  C_4
REMARK    3  A    between atoms: C_2  and  N_15
REMARK    4  A    between atoms: C_7  and  S_10
REMARK    5  A    between atoms: S_10  and  N_13
REMARK    6  A    between atoms: N_13  and  C_14
REMARK    7  A    between atoms: C_22  and  C_24
REMARK                            x       y       z     vdW  Elec       q    Type
REMARK                         _______ _______ _______ _____ _____    ______ ____
ROOT
ATOM      1  C   UNL     1      -0.146   1.631  -0.056  0.00  0.00    +0.033 C 
ATOM      2  C   UNL     1      -0.122   0.102  -0.030  0.00  0.00    +0.102 C 
ENDROOT
BRANCH   2   3
ATOM      3  N   UNL     1       0.596  -0.395  -1.207  0.00  0.00    -0.293 N 
ATOM      4  C   UNL     1      -0.056  -0.554  -2.376  0.00  0.00    +0.303 C 
ATOM      5  O   UNL     1      -1.239  -0.284  -2.454  0.00  0.00    -0.253 OA
ATOM      6  N   UNL     1       0.604  -1.011  -3.459  0.00  0.00    -0.282 N 
ATOM      7  C   UNL     1       2.051  -1.280  -3.533  0.00  0.00    +0.110 C 
ATOM      8  C   UNL     1       2.399  -1.169  -5.038  0.00  0.00    +0.021 C 
ATOM      9  C   UNL     1       1.137  -1.787  -5.696  0.00  0.00    +0.024 C 
ATOM     10  C   UNL     1      -0.002  -1.330  -4.760  0.00  0.00    +0.081 C 
ATOM     11  H   UNL     1       1.539  -0.610  -1.145  0.00  0.00    +0.151 HD
BRANCH  10  12
ATOM     12  C   UNL     1      -1.027  -2.454  -4.595  0.00  0.00    +0.010 C 
ATOM     13  C   UNL     1      -0.341  -3.716  -4.033  0.00  0.00    +0.005 C 
ATOM     14  C   UNL     1      -1.047  -4.888  -4.760  0.00  0.00    +0.000 C 
ATOM     15  C   UNL     1      -1.254  -4.328  -6.189  0.00  0.00    +0.000 C 
ATOM     16  C   UNL     1      -1.608  -2.843  -5.966  0.00  0.00    +0.005 C 
ENDBRANCH  10  12
ENDBRANCH   2   3
BRANCH   2  17
ATOM     17  C   UNL     1       0.577  -0.369   1.219  0.00  0.00    -0.027 A 
ATOM     18  C   UNL     1       1.958  -0.375   1.278  0.00  0.00    +0.007 A 
ATOM     19  C   UNL     1       2.599  -0.807   2.425  0.00  0.00    +0.029 A 
ATOM     20  C   UNL     1       1.858  -1.231   3.512  0.00  0.00    +0.105 A 
ATOM     21  C   UNL     1       0.477  -1.224   3.454  0.00  0.00    +0.029 A 
ATOM     22  C   UNL     1      -0.164  -0.789   2.309  0.00  0.00    +0.007 A 
BRANCH  20  23
ATOM     23  S   UNL     1       2.675  -1.783   4.973  0.00  0.00    +0.058 S 
ATOM     24  O   UNL     1       1.766  -2.641   5.648  0.00  0.00    -0.153 OA
ATOM     25  O   UNL     1       3.972  -2.207   4.577  0.00  0.00    -0.153 OA
BRANCH  23  26
ATOM     26  N   UNL     1       2.886  -0.459   5.945  0.00  0.00    -0.193 NA
ATOM     27  C   UNL     1       1.722   0.235   6.501  0.00  0.00    +0.127 C 
ATOM     28  H   UNL     1       3.781  -0.142   6.146  0.00  0.00    +0.148 HD
ENDBRANCH  23  26
ENDBRANCH  20  23
ENDBRANCH   2  17
TORSDOF 5
