REMARK  Name = ZINC23454061
REMARK  11 active torsions:
REMARK  status: ('A' for Active; 'I' for Inactive)
REMARK    1  A    between atoms: C_1  and  O_2
REMARK    2  A    between atoms: O_2  and  C_3
REMARK    3  A    between atoms: C_7  and  C_9
REMARK    4  A    between atoms: C_9  and  C_11
REMARK    5  A    between atoms: C_9  and  O_28
REMARK    6  A    between atoms: C_11  and  N_12
REMARK    7  A    between atoms: N_15  and  S_18
REMARK    8  A    between atoms: S_18  and  C_21
REMARK    9  A    between atoms: O_28  and  C_29
REMARK   10  A    between atoms: C_29  and  C_30
REMARK   11  A    between atoms: C_33  and  C_36
REMARK                            x       y       z     vdW  Elec       q    Type
REMARK                         _______ _______ _______ _____ _____    ______ ____
ROOT
ATOM      1  C   UNL     1      -0.098   5.350   0.033  0.00  0.00    +0.132 C 
ENDROOT
BRANCH   1   6
ATOM      2  C   UNL     1       1.187   1.796   0.021  0.00  0.00    +0.120 A 
ATOM      3  C   UNL     1       0.001   1.076   0.006  0.00  0.00    +0.045 A 
ATOM      4  C   UNL     1      -1.209   1.741  -0.006  0.00  0.00    +0.004 A 
ATOM      5  C   UNL     1      -1.240   3.124   0.009  0.00  0.00    +0.006 A 
ATOM      6  C   UNL     1      -0.060   3.844   0.024  0.00  0.00    -0.017 A 
ATOM      7  C   UNL     1       1.153   3.183   0.030  0.00  0.00    +0.051 A 
BRANCH   2   9
ATOM      8  C   UNL     1       2.338  -0.284   0.016  0.00  0.00    +0.277 C 
ATOM      9  O   UNL     1       2.380   1.145   0.027  0.00  0.00    -0.495 OA
ENDBRANCH   2   9
ENDBRANCH   1   6
BRANCH   1  10
ATOM     10  C   UNL     1      -0.348   5.863  -1.386  0.00  0.00    -0.042 C 
BRANCH  10  11
ATOM     11  N   UNL     1      -0.372   7.332  -1.379  0.00  0.00    +0.383 N 
ATOM     12  C   UNL     1      -1.064   7.853  -2.566  0.00  0.00    -0.061 C 
ATOM     13  C   UNL     1      -1.227   9.370  -2.433  0.00  0.00    +0.091 C 
ATOM     14  N   UNL     1       0.095   9.962  -2.173  0.00  0.00    -0.180 NA
ATOM     15  C   UNL     1       0.906   9.399  -1.084  0.00  0.00    +0.091 C 
ATOM     16  C   UNL     1       0.986   7.880  -1.270  0.00  0.00    -0.061 C 
ATOM     17  H   UNL     1      -0.937   7.658  -0.493  0.00  0.00    -0.082 HD
BRANCH  14  18
ATOM     18  S   UNL     1       0.653  11.227  -3.084  0.00  0.00    +0.061 S 
ATOM     19  O   UNL     1      -0.490  11.878  -3.619  0.00  0.00    -0.153 OA
ATOM     20  O   UNL     1       1.615  11.906  -2.288  0.00  0.00    -0.153 OA
BRANCH  18  21
ATOM     21  C   UNL     1       1.527  10.539  -4.451  0.00  0.00    +0.107 A 
ATOM     22  C   UNL     1       2.883  10.287  -4.349  0.00  0.00    +0.028 A 
ATOM     23  C   UNL     1       3.567   9.743  -5.420  0.00  0.00    +0.003 A 
ATOM     24  C   UNL     1       2.899   9.460  -6.596  0.00  0.00    +0.020 A 
ATOM     25  C   UNL     1       1.544   9.715  -6.700  0.00  0.00    +0.043 A 
ATOM     26  C   UNL     1       0.858  10.255  -5.626  0.00  0.00    +0.048 A 
ATOM     27 CL   UNL     1       0.704   9.360  -8.177  0.00  0.00    -0.083 Cl
ENDBRANCH  18  21
ENDBRANCH  14  18
ENDBRANCH  10  11
ENDBRANCH   1  10
BRANCH   1  28
ATOM     28  O   UNL     1      -1.149   5.795   0.893  0.00  0.00    -0.369 OA
BRANCH  28  29
ATOM     29  C   UNL     1      -0.746   5.990   2.250  0.00  0.00    +0.195 C 
BRANCH  29  30
ATOM     30  C   UNL     1      -1.926   6.457   3.062  0.00  0.00    -0.022 A 
ATOM     31  C   UNL     1      -2.182   7.811   3.191  0.00  0.00    +0.007 A 
ATOM     32  C   UNL     1      -3.264   8.245   3.929  0.00  0.00    +0.019 A 
ATOM     33  C   UNL     1      -4.095   7.315   4.556  0.00  0.00    +0.052 A 
ATOM     34  C   UNL     1      -3.828   5.950   4.426  0.00  0.00    +0.019 A 
ATOM     35  C   UNL     1      -2.746   5.530   3.681  0.00  0.00    +0.007 A 
BRANCH  33  36
ATOM     36  C   UNL     1      -5.217   7.758   5.327  0.00  0.00    +0.099 C 
ATOM     37  N   UNL     1      -6.107   8.110   5.940  0.00  0.00    -0.191 NA
ENDBRANCH  33  36
ENDBRANCH  29  30
ENDBRANCH  28  29
ENDBRANCH   1  28
TORSDOF 10
