REMARK  Name = ZINC35471580
REMARK  7 active torsions:
REMARK  status: ('A' for Active; 'I' for Inactive)
REMARK    1  A    between atoms: C_1  and  C_2
REMARK    2  A    between atoms: C_2  and  C_3
REMARK    3  A    between atoms: C_3  and  N_4
REMARK    4  A    between atoms: N_4  and  C_5
REMARK    5  A    between atoms: C_5  and  C_6
REMARK    6  A    between atoms: C_16  and  C_18
REMARK    7  A    between atoms: N_27  and  C_28
REMARK                            x       y       z     vdW  Elec       q    Type
REMARK                         _______ _______ _______ _____ _____    ______ ____
ROOT
ATOM      1  C   UNL     1      -3.083  -3.062   1.529  0.00  0.00    +0.234 C 
ATOM      2  O   UNL     1      -4.110  -2.736   0.973  0.00  0.00    -0.274 OA
ATOM      3  N   UNL     1      -3.132  -3.677   2.727  0.00  0.00    -0.286 N 
ATOM      4  C   UNL     1      -1.900  -4.077   3.423  0.00  0.00    +0.130 C 
ATOM      5  C   UNL     1      -1.781  -3.291   4.733  0.00  0.00    +0.140 C 
ATOM      6  N   UNL     1      -3.071  -3.317   5.432  0.00  0.00    -0.347 N 
ATOM      7  C   UNL     1      -3.293  -3.058   6.749  0.00  0.00    +0.086 A 
ATOM      8  C   UNL     1      -4.616  -3.180   6.987  0.00  0.00    +0.019 A 
ATOM      9  C   UNL     1      -5.234  -3.531   5.769  0.00  0.00    +0.025 A 
ATOM     10  C   UNL     1      -4.269  -3.612   4.840  0.00  0.00    +0.044 A 
ATOM     11  C   UNL     1      -4.422  -3.963   3.382  0.00  0.00    +0.153 C 
ENDROOT
BRANCH  11  12
ATOM     12  C   UNL     1      -4.757  -5.425   3.242  0.00  0.00    -0.019 A 
ATOM     13  C   UNL     1      -5.881  -5.812   2.537  0.00  0.00    +0.006 A 
ATOM     14  C   UNL     1      -6.190  -7.154   2.408  0.00  0.00    +0.003 A 
ATOM     15  C   UNL     1      -5.374  -8.109   2.984  0.00  0.00    +0.038 A 
ATOM     16  C   UNL     1      -4.248  -7.723   3.690  0.00  0.00    +0.124 A 
ATOM     17  C   UNL     1      -3.937  -6.379   3.814  0.00  0.00    +0.044 A 
ATOM     18  F   UNL     1      -3.450  -8.656   4.254  0.00  0.00    -0.205 F 
ENDBRANCH  11  12
BRANCH   1  19
ATOM     19  C   UNL     1      -1.753  -2.781   0.880  0.00  0.00    +0.205 C 
BRANCH  19  20
ATOM     20  N   UNL     1      -1.968  -2.111  -0.406  0.00  0.00    -0.277 N 
ATOM     21  C   UNL     1      -2.108  -2.841  -1.530  0.00  0.00    +0.307 C 
ATOM     22  O   UNL     1      -2.056  -4.054  -1.478  0.00  0.00    -0.252 OA
ATOM     23  N   UNL     1      -2.306  -2.225  -2.712  0.00  0.00    -0.269 N 
ATOM     24  H   UNL     1      -2.272  -1.257  -2.767  0.00  0.00    +0.156 HD
BRANCH  23  25
ATOM     25  C   UNL     1      -2.563  -2.982  -3.862  0.00  0.00    +0.035 A 
ATOM     26  C   UNL     1      -2.083  -2.559  -5.094  0.00  0.00    +0.024 A 
ATOM     27  C   UNL     1      -2.337  -3.307  -6.227  0.00  0.00    +0.017 A 
ATOM     28  C   UNL     1      -3.069  -4.478  -6.134  0.00  0.00    +0.018 A 
ATOM     29  C   UNL     1      -3.548  -4.902  -4.907  0.00  0.00    +0.017 A 
ATOM     30  C   UNL     1      -3.292  -4.160  -3.771  0.00  0.00    +0.024 A 
ATOM     31 BR   UNL     1      -3.416  -5.500  -7.686  0.00  0.00    -0.050 Br
ENDBRANCH  23  25
BRANCH  20  32
ATOM     32  C   UNL     1      -2.031  -0.649  -0.468  0.00  0.00    +0.109 C 
BRANCH  32  34
ATOM     33  C   UNL     1      -0.693   1.440  -0.767  0.00  0.00    +0.005 C 
ATOM     34  C   UNL     1      -0.627  -0.087  -0.702  0.00  0.00    +0.016 C 
ENDBRANCH  32  34
ENDBRANCH  20  32
ENDBRANCH  19  20
ENDBRANCH   1  19
TORSDOF 6
