REMARK  Name = ZINC40914430
REMARK  9 active torsions:
REMARK  status: ('A' for Active; 'I' for Inactive)
REMARK    1  A    between atoms: C_1  and  C_2
REMARK    2  A    between atoms: C_7  and  C_8
REMARK    3  A    between atoms: C_8  and  O_9
REMARK    4  A    between atoms: O_9  and  C_10
REMARK    5  A    between atoms: C_13  and  C_18
REMARK    6  A    between atoms: C_15  and  O_16
REMARK    7  A    between atoms: O_16  and  C_17
REMARK    8  A    between atoms: C_23  and  C_27
REMARK    9  A    between atoms: C_23  and  C_28
REMARK                            x       y       z     vdW  Elec       q    Type
REMARK                         _______ _______ _______ _____ _____    ______ ____
ROOT
ATOM      1  C   UNL     1       0.053  -0.376   4.845  0.00  0.00    +0.162 A 
ATOM      2  C   UNL     1       0.031   0.996   5.036  0.00  0.00    +0.050 A 
ATOM      3  C   UNL     1       0.035   1.516   6.317  0.00  0.00    +0.010 A 
ATOM      4  C   UNL     1       0.063   0.669   7.409  0.00  0.00    -0.015 A 
ATOM      5  C   UNL     1       0.086  -0.701   7.226  0.00  0.00    +0.055 A 
ATOM      6  C   UNL     1       0.075  -1.228   5.945  0.00  0.00    +0.162 A 
ENDROOT
BRANCH   4   7
ATOM      7  C   UNL     1       0.068   1.241   8.803  0.00  0.00    +0.176 C 
ATOM      8  C   UNL     1       1.294   2.110   8.985  0.00  0.00    +0.041 C 
ATOM      9  C   UNL     1       1.221   3.458   9.012  0.00  0.00    +0.020 C 
ATOM     10  C   UNL     1       2.464   4.299   9.177  0.00  0.00    +0.058 C 
ATOM     11  C   UNL     1       3.487   3.544  10.028  0.00  0.00    -0.023 C 
ATOM     12  C   UNL     1       3.807   2.216   9.333  0.00  0.00    +0.086 C 
ATOM     13  C   UNL     1       2.529   1.452   9.129  0.00  0.00    +0.164 C 
ATOM     14  O   UNL     1       2.563   0.237   9.087  0.00  0.00    -0.292 OA
ATOM     15  C   UNL     1       2.902   3.271  11.415  0.00  0.00    +0.011 C 
ATOM     16  C   UNL     1       4.763   4.377  10.161  0.00  0.00    +0.011 C 
ATOM     17  N   UNL     1       0.022   4.121   8.896  0.00  0.00    -0.287 N 
ATOM     18  C   UNL     1      -1.144   3.388   9.043  0.00  0.00    +0.218 A 
ATOM     19  N   UNL     1      -1.137   2.035   9.005  0.00  0.00    -0.221 N 
ATOM     20  N   UNL     1      -2.458   1.630   9.190  0.00  0.00    -0.156 NA
ATOM     21  C   UNL     1      -3.173   2.720   9.320  0.00  0.00    +0.247 A 
ATOM     22  N   UNL     1      -2.374   3.781   9.229  0.00  0.00    -0.201 NA
ATOM     23  H   UNL     1      -0.006   5.074   8.718  0.00  0.00    +0.155 HD
ENDBRANCH   4   7
BRANCH   6  24
ATOM     24  O   UNL     1       0.092  -2.576   5.763  0.00  0.00    -0.491 OA
ATOM     25  C   UNL     1       0.114  -3.389   6.937  0.00  0.00    +0.277 C 
ENDBRANCH   6  24
BRANCH   1  26
ATOM     26  O   UNL     1       0.048  -0.889   3.585  0.00  0.00    -0.484 OA
BRANCH  26  27
ATOM     27  C   UNL     1       0.025   0.045   2.504  0.00  0.00    +0.265 C 
BRANCH  27  34
ATOM     28  C   UNL     1      -0.018   1.503   0.010  0.00  0.00    +0.044 C 
ATOM     29  C   UNL     1       0.002  -0.004   0.002  0.00  0.00    -0.044 A 
ATOM     30  C   UNL     1       0.006  -0.689  -1.199  0.00  0.00    +0.004 A 
ATOM     31  C   UNL     1       0.025  -2.071  -1.207  0.00  0.00    +0.000 A 
ATOM     32  C   UNL     1       0.040  -2.768  -0.013  0.00  0.00    +0.000 A 
ATOM     33  C   UNL     1       0.037  -2.084   1.188  0.00  0.00    +0.007 A 
ATOM     34  C   UNL     1       0.023  -0.702   1.195  0.00  0.00    -0.007 A 
ENDBRANCH  27  34
ENDBRANCH  26  27
ENDBRANCH   1  26
TORSDOF 5
