REMARK  Name = ZINC05491207
REMARK  3 active torsions:
REMARK  status: ('A' for Active; 'I' for Inactive)
REMARK    1  A    between atoms: C_6  and  C_7
REMARK    2  A    between atoms: C_19  and  N_23
REMARK    3  A    between atoms: C_20  and  C_21
REMARK                            x       y       z     vdW  Elec       q    Type
REMARK                         _______ _______ _______ _____ _____    ______ ____
ROOT
ATOM      1  C   UNL     1       1.213   2.206   0.002  0.00  0.00    +0.099 C 
ATOM      2  C   UNL     1      -0.016   1.352   0.009  0.00  0.00    +0.062 A 
ATOM      3  C   UNL     1      -1.267   2.010   0.031  0.00  0.00    +0.259 A 
ATOM      4  O   UNL     1      -1.313   3.229   0.030  0.00  0.00    -0.267 OA
ATOM      5  N   UNL     1      -2.407   1.298   0.045  0.00  0.00    -0.273 N 
ATOM      6  H   UNL     1      -3.378   1.815   0.054  0.00  0.00    +0.173 HD
ATOM      7  C   UNL     1      -2.368  -0.046   0.046  0.00  0.00    +0.350 A 
ATOM      8  O   UNL     1      -3.406  -0.679   0.067  0.00  0.00    -0.245 OA
ATOM      9  N   UNL     1      -1.194  -0.697   0.025  0.00  0.00    -0.186 NA
ATOM     10  C   UNL     1       0.002  -0.004   0.002  0.00  0.00    +0.117 A 
ATOM     11  S   UNL     1       1.496  -0.930  -0.037  0.00  0.00    -0.055 S 
ATOM     12  C   UNL     1       2.608   0.244  -0.713  0.00  0.00    +0.064 C 
ATOM     13  C   UNL     1       2.389   1.570  -0.650  0.00  0.00    +0.067 C 
ENDROOT
BRANCH   1  19
ATOM     14  C   UNL     1       1.857   1.522   2.323  0.00  0.00    +0.005 A 
ATOM     15  C   UNL     1       2.195   1.826   3.628  0.00  0.00    +0.015 A 
ATOM     16  C   UNL     1       2.240   3.146   4.041  0.00  0.00    +0.018 A 
ATOM     17  C   UNL     1       1.954   4.160   3.146  0.00  0.00    +0.015 A 
ATOM     18  C   UNL     1       1.621   3.856   1.839  0.00  0.00    +0.005 A 
ATOM     19  C   UNL     1       1.576   2.537   1.427  0.00  0.00    -0.035 A 
ATOM     20 BR   UNL     1       2.694   3.562   5.829  0.00  0.00    -0.050 Br
ENDBRANCH   1  19
BRANCH  12  21
ATOM     21  N   UNL     1       3.749  -0.207  -1.332  0.00  0.00    -0.410 NA
ATOM     22  H   UNL     1       4.332   0.651  -1.698  0.00  0.00    +0.121 HD
ATOM     23  H   UNL     1       3.476  -0.852  -2.180  0.00  0.00    +0.121 HD
ATOM     24  H   UNL     1       4.353  -0.781  -0.615  0.00  0.00    +0.121 HD
ENDBRANCH  12  21
BRANCH  13  25
ATOM     25  C   UNL     1       3.360   2.432  -1.254  0.00  0.00    +0.098 C 
ATOM     26  N   UNL     1       4.129   3.116  -1.734  0.00  0.00    -0.191 NA
ENDBRANCH  13  25
TORSDOF 3
