REMARK  Name = ZINC62804019
REMARK  5 active torsions:
REMARK  status: ('A' for Active; 'I' for Inactive)
REMARK    1  A    between atoms: C_1  and  N_2
REMARK    2  A    between atoms: N_2  and  C_3
REMARK    3  A    between atoms: C_11  and  O_13
REMARK    4  A    between atoms: O_13  and  C_14
REMARK    5  A    between atoms: C_14  and  C_15
REMARK                            x       y       z     vdW  Elec       q    Type
REMARK                         _______ _______ _______ _____ _____    ______ ____
ROOT
ATOM      1  C   UNL     1       0.690  -0.478  -1.207  0.00  0.00    +0.000 C 
ATOM      2  C   UNL     1      -0.152  -0.188  -2.471  0.00  0.00    +0.218 C 
ATOM      3  O   UNL     1      -0.905  -1.401  -2.639  0.00  0.00    -0.493 OA
ATOM      4  C   UNL     1      -0.205  -2.441  -2.107  0.00  0.00    +0.126 A 
ATOM      5  C   UNL     1       0.772  -1.992  -1.225  0.00  0.00    -0.016 A 
ATOM      6  C   UNL     1       1.591  -2.881  -0.563  0.00  0.00    +0.009 A 
ATOM      7  C   UNL     1       1.452  -4.240  -0.776  0.00  0.00    +0.046 A 
ATOM      8  C   UNL     1       0.487  -4.703  -1.659  0.00  0.00    +0.124 A 
ATOM      9  C   UNL     1      -0.340  -3.809  -2.322  0.00  0.00    +0.091 A 
ENDROOT
BRANCH   1  11
ATOM     10  C   UNL     1      -0.018   1.465   0.010  0.00  0.00    -0.099 C 
ATOM     11  N   UNL     1       0.002  -0.004   0.002  0.00  0.00    +0.384 N 
ATOM     12  H   UNL     1       0.490  -0.338   0.820  0.00  0.00    -0.085 HD
ATOM     13  H   UNL     1      -0.945  -0.353   0.009  0.00  0.00    -0.085 HD
ENDBRANCH   1  11
BRANCH   8  14
ATOM     14  O   UNL     1       0.350  -6.038  -1.873  0.00  0.00    -0.487 OA
BRANCH  14  15
ATOM     15  C   UNL     1       1.234  -6.904  -1.158  0.00  0.00    +0.264 C 
BRANCH  15  16
ATOM     16  C   UNL     1       0.936  -8.336  -1.521  0.00  0.00    -0.009 A 
ATOM     17  C   UNL     1       0.006  -9.055  -0.793  0.00  0.00    +0.010 A 
ATOM     18  C   UNL     1      -0.268 -10.368  -1.125  0.00  0.00    +0.040 A 
ATOM     19  C   UNL     1       0.390 -10.965  -2.187  0.00  0.00    +0.137 A 
ATOM     20  C   UNL     1       1.322 -10.244  -2.916  0.00  0.00    +0.053 A 
ATOM     21  C   UNL     1       1.590  -8.929  -2.585  0.00  0.00    +0.025 A 
ATOM     22 BR   UNL     1       2.221 -11.057  -4.367  0.00  0.00    -0.047 Br
ATOM     23  F   UNL     1       0.123 -12.248  -2.512  0.00  0.00    -0.204 F 
ENDBRANCH  15  16
ENDBRANCH  14  15
ENDBRANCH   8  14
TORSDOF 4
