REMARK  Name = ZINC21185093
REMARK  13 active torsions:
REMARK  status: ('A' for Active; 'I' for Inactive)
REMARK    1  A    between atoms: C_1  and  C_2
REMARK    2  A    between atoms: C_2  and  C_3
REMARK    3  A    between atoms: C_2  and  N_4
REMARK    4  A    between atoms: N_4  and  C_5
REMARK    5  A    between atoms: N_4  and  C_32
REMARK    6  A    between atoms: C_5  and  C_6
REMARK    7  A    between atoms: C_6  and  N_7
REMARK    8  A    between atoms: C_17  and  S_18
REMARK    9  A    between atoms: S_18  and  C_19
REMARK   10  A    between atoms: C_19  and  C_20
REMARK   11  A    between atoms: C_29  and  O_31
REMARK   12  A    between atoms: C_32  and  C_33
REMARK   13  A    between atoms: C_32  and  C_34
REMARK                            x       y       z     vdW  Elec       q    Type
REMARK                         _______ _______ _______ _____ _____    ______ ____
ROOT
ATOM      1  N   UNL     1      -0.073   0.047   1.986  0.00  0.00    -0.289 N 
ATOM      2  C   UNL     1       0.099  -1.294   2.029  0.00  0.00    +0.262 A 
ATOM      3  O   UNL     1      -0.399  -2.023   1.191  0.00  0.00    -0.267 OA
ATOM      4  C   UNL     1       0.914  -1.839   3.124  0.00  0.00    +0.065 A 
ATOM      5  C   UNL     1       1.154  -3.206   3.254  0.00  0.00    +0.015 A 
ATOM      6  C   UNL     1       1.916  -3.660   4.295  0.00  0.00    +0.001 A 
ATOM      7  C   UNL     1       2.451  -2.775   5.222  0.00  0.00    +0.002 A 
ATOM      8  C   UNL     1       2.231  -1.430   5.119  0.00  0.00    +0.028 A 
ATOM      9  C   UNL     1       1.456  -0.935   4.066  0.00  0.00    +0.079 A 
ATOM     10  N   UNL     1       1.215   0.384   3.926  0.00  0.00    -0.223 NA
ATOM     11  C   UNL     1       0.489   0.848   2.939  0.00  0.00    +0.172 A 
ENDROOT
BRANCH   1  12
ATOM     12  C   UNL     1      -0.872   0.644   0.912  0.00  0.00    +0.109 C 
BRANCH  12  13
ATOM     13  C   UNL     1       0.009   0.858  -0.320  0.00  0.00    -0.056 C 
BRANCH  13  14
ATOM     14  N   UNL     1      -0.822   1.316  -1.442  0.00  0.00    +0.384 N 
ATOM     15  H   UNL     1      -1.738   0.708  -1.455  0.00  0.00    -0.081 HD
BRANCH  14  17
ATOM     16  C   UNL     1      -2.546   2.788  -0.514  0.00  0.00    -0.014 C 
ATOM     17  C   UNL     1      -1.215   2.721  -1.266  0.00  0.00    -0.074 C 
ATOM     18  C   UNL     1      -0.138   3.455  -0.463  0.00  0.00    -0.014 C 
ENDBRANCH  14  17
BRANCH  14  19
ATOM     19  C   UNL     1      -0.131   1.120  -2.723  0.00  0.00    -0.074 C 
ATOM     20  C   UNL     1      -1.112   1.360  -3.873  0.00  0.00    -0.014 C 
ATOM     21  C   UNL     1       1.034   2.106  -2.832  0.00  0.00    -0.014 C 
ENDBRANCH  14  19
ENDBRANCH  13  14
ENDBRANCH  12  13
ENDBRANCH   1  12
BRANCH  11  22
ATOM     22  S   UNL     1       0.225   2.587   2.836  0.00  0.00    -0.083 S 
BRANCH  22  23
ATOM     23  C   UNL     1       1.157   3.133   4.288  0.00  0.00    +0.113 C 
BRANCH  23  24
ATOM     24  C   UNL     1       1.070   4.633   4.406  0.00  0.00    -0.020 A 
ATOM     25  C   UNL     1       0.072   5.221   5.116  0.00  0.00    +0.097 A 
ATOM     26  C   UNL     1       0.013   6.626   5.212  0.00  0.00    +0.338 A 
ATOM     27  O   UNL     1      -0.888   7.140   5.851  0.00  0.00    -0.245 OA
ATOM     28  O   UNL     1       0.923   7.412   4.616  0.00  0.00    -0.422 OA
ATOM     29  C   UNL     1       1.941   6.893   3.897  0.00  0.00    +0.143 A 
ATOM     30  C   UNL     1       2.064   5.497   3.764  0.00  0.00    +0.022 A 
ATOM     31  C   UNL     1       3.113   4.954   3.015  0.00  0.00    +0.015 A 
ATOM     32  C   UNL     1       4.022   5.782   2.422  0.00  0.00    +0.046 A 
ATOM     33  C   UNL     1       3.909   7.164   2.554  0.00  0.00    +0.120 A 
ATOM     34  C   UNL     1       2.873   7.719   3.288  0.00  0.00    +0.092 A 
BRANCH  33  35
ATOM     35  O   UNL     1       4.821   7.974   1.959  0.00  0.00    -0.507 OA
ATOM     36  H   UNL     1       4.736   9.066   2.060  0.00  0.00    +0.292 HD
ENDBRANCH  33  35
ENDBRANCH  23  24
ENDBRANCH  22  23
ENDBRANCH  11  22
TORSDOF 9
