REMARK  Name = ZINC06415025
REMARK  7 active torsions:
REMARK  status: ('A' for Active; 'I' for Inactive)
REMARK    1  A    between atoms: C_1  and  C_2
REMARK    2  A    between atoms: C_4  and  C_26
REMARK    3  A    between atoms: C_8  and  C_25
REMARK    4  A    between atoms: C_10  and  S_12
REMARK    5  A    between atoms: S_12  and  C_13
REMARK    6  A    between atoms: C_13  and  C_14
REMARK    7  A    between atoms: N_16  and  C_17
REMARK                            x       y       z     vdW  Elec       q    Type
REMARK                         _______ _______ _______ _____ _____    ______ ____
ROOT
ATOM      1  S   UNL     1       2.224   3.862   2.566  0.00  0.00    -0.097 S 
ENDROOT
BRANCH   1  11
ATOM      2  C   UNL     1      -4.289  -0.101  -0.266  0.00  0.00    +0.044 C 
ATOM      3  C   UNL     1      -3.075   0.717   0.092  0.00  0.00    -0.050 A 
ATOM      4  C   UNL     1      -2.534   1.591  -0.847  0.00  0.00    +0.008 A 
ATOM      5  C   UNL     1      -1.441   2.349  -0.554  0.00  0.00    -0.024 A 
ATOM      6  C   UNL     1      -0.838   2.242   0.711  0.00  0.00    +0.075 A 
ATOM      7  C   UNL     1      -1.389   1.351   1.664  0.00  0.00    +0.004 A 
ATOM      8  C   UNL     1      -2.520   0.591   1.330  0.00  0.00    +0.013 A 
ATOM      9  C   UNL     1      -0.788   1.248   2.936  0.00  0.00    -0.039 A 
ATOM     10  C   UNL     1       0.307   2.014   3.196  0.00  0.00    +0.038 A 
ATOM     11  C   UNL     1       0.807   2.878   2.210  0.00  0.00    +0.098 A 
ATOM     12  N   UNL     1       0.240   2.970   1.024  0.00  0.00    -0.240 NA
ATOM     13  C   UNL     1      -1.342   0.312   3.979  0.00  0.00    +0.044 C 
ATOM     14  C   UNL     1      -0.874   3.289  -1.585  0.00  0.00    +0.046 C 
ENDBRANCH   1  11
BRANCH   1  15
ATOM     15  C   UNL     1       2.401   4.738   0.992  0.00  0.00    +0.171 C 
BRANCH  15  16
ATOM     16  C   UNL     1       3.587   5.666   1.063  0.00  0.00    +0.228 C 
ATOM     17  O   UNL     1       4.247   5.729   2.079  0.00  0.00    -0.275 OA
ATOM     18  N   UNL     1       3.914   6.426  -0.001  0.00  0.00    -0.280 N 
ATOM     19  H   UNL     1       3.432   6.322  -0.836  0.00  0.00    +0.155 HD
BRANCH  18  20
ATOM     20  C   UNL     1       4.949   7.365   0.100  0.00  0.00    +0.105 A 
ATOM     21  C   UNL     1       4.675   8.662   0.518  0.00  0.00    +0.147 A 
ATOM     22  C   UNL     1       5.700   9.585   0.621  0.00  0.00    +0.040 A 
ATOM     23  C   UNL     1       6.995   9.221   0.300  0.00  0.00    +0.006 A 
ATOM     24  C   UNL     1       7.271   7.933  -0.121  0.00  0.00    +0.040 A 
ATOM     25  C   UNL     1       6.252   7.003  -0.222  0.00  0.00    +0.147 A 
ATOM     26  F   UNL     1       6.522   5.745  -0.634  0.00  0.00    -0.203 F 
ATOM     27  F   UNL     1       3.409   9.020   0.827  0.00  0.00    -0.203 F 
ENDBRANCH  18  20
ENDBRANCH  15  16
ENDBRANCH   1  15
TORSDOF 4
