REMARK  Name = ZINC10694847
REMARK  4 active torsions:
REMARK  status: ('A' for Active; 'I' for Inactive)
REMARK    1  A    between atoms: N_9  and  C_12
REMARK    2  A    between atoms: C_12  and  C_13
REMARK    3  A    between atoms: N_15  and  C_16
REMARK    4  A    between atoms: C_17  and  C_21
REMARK                            x       y       z     vdW  Elec       q    Type
REMARK                         _______ _______ _______ _____ _____    ______ ____
ROOT
ATOM      1  C   UNL     1       6.144  -0.514  -0.076  0.00  0.00    +0.235 C 
ATOM      2  O   UNL     1       6.600  -1.638  -0.085  0.00  0.00    -0.274 OA
ATOM      3  N   UNL     1       4.809  -0.328  -0.058  0.00  0.00    -0.278 N 
ATOM      4  H   UNL     1       4.445   0.570  -0.050  0.00  0.00    +0.155 HD
ENDROOT
BRANCH   3   5
ATOM      5  C   UNL     1       3.955  -1.425  -0.049  0.00  0.00    +0.081 A 
ATOM      6  C   UNL     1       2.567  -1.448  -0.031  0.00  0.00    +0.036 A 
ATOM      7  C   UNL     1       1.934  -2.741  -0.033  0.00  0.00    +0.020 A 
ATOM      8  C   UNL     1       2.716  -3.838  -0.046  0.00  0.00    +0.048 A 
ATOM      9  S   UNL     1       4.364  -3.161  -0.057  0.00  0.00    -0.081 S 
BRANCH   6  10
ATOM     10  C   UNL     1       1.778  -0.205  -0.016  0.00  0.00    +0.112 A 
ATOM     11  N   UNL     1       2.201   1.043  -0.013  0.00  0.00    -0.239 NA
ATOM     12  C   UNL     1       1.355   2.094   0.000  0.00  0.00    +0.079 A 
ATOM     13  C   UNL     1       1.675   3.472   0.005  0.00  0.00    +0.029 A 
ATOM     14  C   UNL     1       0.686   4.420   0.021  0.00  0.00    +0.002 A 
ATOM     15  C   UNL     1      -0.656   4.068   0.032  0.00  0.00    +0.001 A 
ATOM     16  C   UNL     1      -1.006   2.730   0.031  0.00  0.00    +0.017 A 
ATOM     17  C   UNL     1      -0.022   1.772   0.012  0.00  0.00    +0.040 A 
ATOM     18  S   UNL     1       0.002  -0.004   0.002  0.00  0.00    -0.067 S 
ENDBRANCH   6  10
ENDBRANCH   3   5
BRANCH   1  19
ATOM     19  C   UNL     1       7.070   0.675  -0.085  0.00  0.00    +0.213 C 
BRANCH  19  28
ATOM     20  C   UNL     1      12.796  -1.232  -0.857  0.00  0.00    +0.001 A 
ATOM     21  C   UNL     1      12.814  -1.235   0.525  0.00  0.00    +0.001 A 
ATOM     22  C   UNL     1      11.690  -0.860   1.244  0.00  0.00    +0.014 A 
ATOM     23  C   UNL     1      10.540  -0.479   0.571  0.00  0.00    +0.049 A 
ATOM     24  C   UNL     1      10.521  -0.475  -0.839  0.00  0.00    +0.049 A 
ATOM     25  C   UNL     1      11.653  -0.853  -1.544  0.00  0.00    +0.014 A 
ATOM     26  C   UNL     1       9.167  -0.026  -1.224  0.00  0.00    +0.254 C 
ATOM     27  O   UNL     1       8.761   0.107  -2.361  0.00  0.00    -0.270 OA
ATOM     28  N   UNL     1       8.460   0.212  -0.104  0.00  0.00    -0.225 N 
ATOM     29  C   UNL     1       9.198  -0.026   0.994  0.00  0.00    +0.254 C 
ATOM     30  O   UNL     1       8.824   0.106   2.142  0.00  0.00    -0.270 OA
ENDBRANCH  19  28
ENDBRANCH   1  19
TORSDOF 4
