REMARK  Name = ZINC63624941
REMARK  6 active torsions:
REMARK  status: ('A' for Active; 'I' for Inactive)
REMARK    1  A    between atoms: C_1  and  C_2
REMARK    2  A    between atoms: C_4  and  C_34
REMARK    3  A    between atoms: C_5  and  S_9
REMARK    4  A    between atoms: C_7  and  C_8
REMARK    5  A    between atoms: S_9  and  N_12
REMARK    6  A    between atoms: C_25  and  C_27
REMARK                            x       y       z     vdW  Elec       q    Type
REMARK                         _______ _______ _______ _____ _____    ______ ____
ROOT
ATOM      1  N   UNL     1      -1.333  -4.905  -0.858  0.00  0.00    -0.167 NA
ATOM      2  C   UNL     1      -2.571  -5.015  -0.079  0.00  0.00    +0.114 C 
ATOM      3  C   UNL     1      -3.637  -4.077  -0.676  0.00  0.00    +0.050 C 
ATOM      4  C   UNL     1      -3.600  -4.276  -2.171  0.00  0.00    -0.035 C 
ATOM      5  C   UNL     1      -4.562  -4.547  -3.045  0.00  0.00    -0.001 A 
ATOM      6  C   UNL     1      -6.023  -4.643  -2.894  0.00  0.00    +0.010 A 
ATOM      7  C   UNL     1      -6.721  -4.964  -4.016  0.00  0.00    +0.001 A 
ATOM      8  C   UNL     1      -6.119  -5.197  -5.256  0.00  0.00    +0.002 A 
ATOM      9  C   UNL     1      -4.784  -5.122  -5.487  0.00  0.00    +0.026 A 
ATOM     10  C   UNL     1      -3.945  -4.784  -4.386  0.00  0.00    +0.043 A 
ATOM     11  N   UNL     1      -2.656  -4.622  -4.328  0.00  0.00    -0.376 N 
ATOM     12  C   UNL     1      -2.304  -4.206  -2.970  0.00  0.00    +0.129 C 
ATOM     13  C   UNL     1      -1.329  -5.176  -2.304  0.00  0.00    +0.136 C 
ATOM     14  H   UNL     1      -2.034  -4.755  -5.060  0.00  0.00    +0.160 HD
ENDROOT
BRANCH  13  15
ATOM     15  C   UNL     1      -1.772  -6.594  -2.559  0.00  0.00    -0.026 A 
ATOM     16  C   UNL     1      -0.946  -7.463  -3.248  0.00  0.00    +0.007 A 
ATOM     17  C   UNL     1      -1.352  -8.763  -3.482  0.00  0.00    +0.020 A 
ATOM     18  C   UNL     1      -2.585  -9.195  -3.027  0.00  0.00    +0.041 A 
ATOM     19  C   UNL     1      -3.411  -8.325  -2.338  0.00  0.00    +0.020 A 
ATOM     20  C   UNL     1      -3.002  -7.027  -2.100  0.00  0.00    +0.007 A 
ATOM     21 CL   UNL     1      -3.096 -10.828  -3.321  0.00  0.00    -0.084 Cl
ENDBRANCH  13  15
BRANCH   1  22
ATOM     22  S   UNL     1       0.073  -4.466  -0.103  0.00  0.00    +0.062 S 
ATOM     23  O   UNL     1       1.133  -4.822  -0.980  0.00  0.00    -0.153 OA
ATOM     24  O   UNL     1      -0.011  -4.954   1.228  0.00  0.00    -0.153 OA
BRANCH  22  29
ATOM     25  C   UNL     1       0.096   1.557   0.263  0.00  0.00    +0.044 C 
ATOM     26  C   UNL     1       0.090   0.053   0.172  0.00  0.00    -0.047 A 
ATOM     27  C   UNL     1       0.984  -0.689   0.922  0.00  0.00    +0.009 A 
ATOM     28  C   UNL     1       0.979  -2.068   0.838  0.00  0.00    -0.024 A 
ATOM     29  C   UNL     1       0.079  -2.707   0.004  0.00  0.00    +0.109 A 
ATOM     30  C   UNL     1      -0.815  -1.966  -0.745  0.00  0.00    +0.032 A 
ATOM     31  C   UNL     1      -0.813  -0.586  -0.657  0.00  0.00    -0.046 A 
ATOM     32  C   UNL     1      -1.792   0.222  -1.470  0.00  0.00    +0.044 C 
ATOM     33  C   UNL     1       1.954  -2.877   1.654  0.00  0.00    +0.046 C 
ENDBRANCH  22  29
ENDBRANCH   1  22
TORSDOF 3
