REMARK  Name = ZINC09127205
REMARK  8 active torsions:
REMARK  status: ('A' for Active; 'I' for Inactive)
REMARK    1  A    between atoms: C_1  and  C_2
REMARK    2  A    between atoms: C_2  and  O_3
REMARK    3  A    between atoms: O_3  and  C_4
REMARK    4  A    between atoms: C_9  and  N_10
REMARK    5  A    between atoms: C_15  and  C_16
REMARK    6  A    between atoms: C_15  and  N_61
REMARK    7  A    between atoms: N_18  and  C_19
REMARK    8  A    between atoms: C_20  and  C_28
REMARK                            x       y       z     vdW  Elec       q    Type
REMARK                         _______ _______ _______ _____ _____    ______ ____
ROOT
ATOM      1  C   UNL     1      -0.014   1.209   0.009  0.00  0.00    +0.201 C 
ATOM      2  O   UNL     1       0.002  -0.004   0.002  0.00  0.00    -0.278 OA
ATOM      3  N   UNL     1      -1.191   1.867   0.018  0.00  0.00    -0.281 N 
ATOM      4  H   UNL     1      -1.204   2.836   0.023  0.00  0.00    +0.155 HD
ENDROOT
BRANCH   3   5
ATOM      5  C   UNL     1      -2.382   1.157   0.020  0.00  0.00    +0.084 A 
ATOM      6  C   UNL     1      -3.679   1.650   0.034  0.00  0.00    +0.068 A 
ATOM      7  C   UNL     1      -4.764   0.684   0.029  0.00  0.00    -0.023 A 
ATOM      8  C   UNL     1      -4.382  -0.611   0.021  0.00  0.00    -0.004 A 
ATOM      9  S   UNL     1      -2.612  -0.560   0.012  0.00  0.00    -0.077 S 
ATOM     10  C   UNL     1      -5.272  -1.816   0.019  0.00  0.00    +0.043 C 
ATOM     11  C   UNL     1      -6.689  -1.371   0.407  0.00  0.00    +0.005 C 
ATOM     12  C   UNL     1      -7.063  -0.138  -0.422  0.00  0.00    +0.005 C 
ATOM     13  C   UNL     1      -6.239   1.066   0.037  0.00  0.00    +0.037 C 
BRANCH   6  14
ATOM     14  C   UNL     1      -3.944   3.092   0.051  0.00  0.00    +0.244 C 
ATOM     15  O   UNL     1      -4.063   3.701  -0.997  0.00  0.00    -0.270 OA
ATOM     16  N   UNL     1      -4.057   3.743   1.225  0.00  0.00    -0.325 N 
ATOM     17  H   UNL     1      -3.963   3.257   2.060  0.00  0.00    +0.145 HD
ATOM     18  H   UNL     1      -4.233   4.697   1.236  0.00  0.00    +0.145 HD
ENDBRANCH   6  14
ENDBRANCH   3   5
BRANCH   1  19
ATOM     19  C   UNL     1       1.280   1.980   0.001  0.00  0.00    +0.019 C 
BRANCH  19  25
ATOM     20  N   UNL     1       4.877  -0.045   0.901  0.00  0.00    -0.331 N 
ATOM     21  C   UNL     1       4.814   0.724  -0.350  0.00  0.00    +0.086 C 
ATOM     22  C   UNL     1       3.676   1.744  -0.262  0.00  0.00    -0.059 C 
ATOM     23  C   UNL     1       2.473   0.271   1.235  0.00  0.00    -0.059 C 
ATOM     24  C   UNL     1       3.611  -0.748   1.147  0.00  0.00    +0.086 C 
ATOM     25  N   UNL     1       2.406   1.022  -0.036  0.00  0.00    +0.387 N 
ATOM     26  H   UNL     1       2.256   0.361  -0.807  0.00  0.00    -0.081 HD
BRANCH  20  32
ATOM     27  C   UNL     1       6.955  -0.844   1.849  0.00  0.00    +0.141 A 
ATOM     28  C   UNL     1       8.017  -1.733   1.830  0.00  0.00    +0.047 A 
ATOM     29  C   UNL     1       8.082  -2.712   0.855  0.00  0.00    +0.004 A 
ATOM     30  C   UNL     1       7.088  -2.808  -0.101  0.00  0.00    +0.002 A 
ATOM     31  C   UNL     1       6.022  -1.928  -0.086  0.00  0.00    +0.027 A 
ATOM     32  C   UNL     1       5.953  -0.940   0.886  0.00  0.00    +0.072 A 
BRANCH  27  33
ATOM     33  O   UNL     1       6.889   0.118   2.808  0.00  0.00    -0.490 OA
BRANCH  33  35
ATOM     34  C   UNL     1       7.705   1.297   4.753  0.00  0.00    +0.048 C 
ATOM     35  C   UNL     1       7.951   0.157   3.763  0.00  0.00    +0.226 C 
ENDBRANCH  33  35
ENDBRANCH  27  33
ENDBRANCH  20  32
ENDBRANCH  19  25
ENDBRANCH   1  19
TORSDOF 7
