REMARK  Name = ZINC17163301
REMARK  8 active torsions:
REMARK  status: ('A' for Active; 'I' for Inactive)
REMARK    1  A    between atoms: C_1  and  C_2
REMARK    2  A    between atoms: C_2  and  C_3
REMARK    3  A    between atoms: C_2  and  C_4
REMARK    4  A    between atoms: C_4  and  C_5
REMARK    5  A    between atoms: C_17  and  C_19
REMARK    6  A    between atoms: C_23  and  N_25
REMARK    7  A    between atoms: C_31  and  C_33
REMARK    8  A    between atoms: C_31  and  C_34
REMARK                            x       y       z     vdW  Elec       q    Type
REMARK                         _______ _______ _______ _____ _____    ______ ____
ROOT
ATOM      1  C   UNL     1      -1.704   2.755   1.203  0.00  0.00    +0.221 C 
ATOM      2  O   UNL     1      -2.157   3.106   0.134  0.00  0.00    -0.275 OA
ATOM      3  N   UNL     1      -0.627   1.946   1.246  0.00  0.00    -0.258 N 
ATOM      4  C   UNL     1      -0.116   1.549   2.482  0.00  0.00    +0.058 A 
ATOM      5  C   UNL     1      -0.824   0.702   3.319  0.00  0.00    +0.025 A 
ATOM      6  C   UNL     1      -0.231   0.243   4.482  0.00  0.00    +0.002 A 
ATOM      7  C   UNL     1       1.057   0.625   4.809  0.00  0.00    +0.002 A 
ATOM      8  C   UNL     1       1.760   1.489   3.986  0.00  0.00    +0.025 A 
ATOM      9  C   UNL     1       1.161   1.963   2.831  0.00  0.00    +0.053 A 
ATOM     10  N   UNL     1       1.789   2.868   1.985  0.00  0.00    -0.316 N 
ATOM     11  C   UNL     1       2.165   2.605   0.707  0.00  0.00    +0.017 C 
ATOM     12  C   UNL     1       1.389   2.001  -0.210  0.00  0.00    +0.037 C 
ATOM     13  C   UNL     1      -0.018   1.503   0.010  0.00  0.00    +0.147 C 
ATOM     14  C   UNL     1       1.877   1.780  -1.520  0.00  0.00    +0.163 C 
ATOM     15  O   UNL     1       1.147   1.250  -2.335  0.00  0.00    -0.292 OA
ATOM     16  C   UNL     1       3.261   2.175  -1.937  0.00  0.00    +0.086 C 
ATOM     17  C   UNL     1       4.171   2.136  -0.703  0.00  0.00    -0.023 C 
ATOM     18  C   UNL     1       3.568   3.066   0.348  0.00  0.00    +0.058 C 
ATOM     19  C   UNL     1       4.240   0.710  -0.155  0.00  0.00    +0.011 C 
ATOM     20  C   UNL     1       5.574   2.618  -1.077  0.00  0.00    +0.011 C 
ATOM     21  H   UNL     1       2.017   3.884   2.338  0.00  0.00    +0.152 HD
ENDROOT
BRANCH  13  22
ATOM     22  C   UNL     1       0.002  -0.004   0.002  0.00  0.00    -0.020 A 
ATOM     23  C   UNL     1      -0.685  -0.699  -0.976  0.00  0.00    +0.006 A 
ATOM     24  C   UNL     1      -0.665  -2.081  -0.984  0.00  0.00    +0.003 A 
ATOM     25  C   UNL     1       0.040  -2.768  -0.014  0.00  0.00    +0.033 A 
ATOM     26  C   UNL     1       0.727  -2.073   0.964  0.00  0.00    +0.127 A 
ATOM     27  C   UNL     1       0.712  -0.691   0.969  0.00  0.00    +0.038 A 
BRANCH  26  28
ATOM     28  N   UNL     1       1.483  -2.809   2.002  0.00  0.00    +0.056 N 
ATOM     29  O   UNL     1       1.500  -4.027   1.995  0.00  0.00    -0.126 OA
ATOM     30  O   UNL     1       2.087  -2.196   2.864  0.00  0.00    -0.126 OA
ENDBRANCH  26  28
ENDBRANCH  13  22
BRANCH   1  31
ATOM     31  C   UNL     1      -2.347   3.223   2.483  0.00  0.00    +0.099 C 
BRANCH  31  33
ATOM     32  C   UNL     1      -4.615   3.303   1.439  0.00  0.00    +0.008 C 
ATOM     33  C   UNL     1      -3.541   4.123   2.155  0.00  0.00    -0.008 C 
ATOM     34  C   UNL     1      -4.117   4.698   3.451  0.00  0.00    +0.008 C 
ENDBRANCH  31  33
ENDBRANCH   1  31
TORSDOF 4
