REMARK  Name = ZINC10104101
REMARK  7 active torsions:
REMARK  status: ('A' for Active; 'I' for Inactive)
REMARK    1  A    between atoms: C_1  and  C_2
REMARK    2  A    between atoms: C_3  and  C_32
REMARK    3  A    between atoms: N_9  and  C_10
REMARK    4  A    between atoms: C_15  and  N_16
REMARK    5  A    between atoms: N_17  and  C_31
REMARK    6  A    between atoms: N_20  and  C_23
REMARK    7  A    between atoms: C_23  and  C_24
REMARK                            x       y       z     vdW  Elec       q    Type
REMARK                         _______ _______ _______ _____ _____    ______ ____
ROOT
ATOM      1  C   UNL     1      -1.687   8.373   2.891  0.00  0.00    +0.066 C 
ATOM      2  C   UNL     1      -1.471   6.927   2.526  0.00  0.00    +0.043 A 
ATOM      3  C   UNL     1      -1.868   5.876   3.238  0.00  0.00    +0.044 A 
ATOM      4  N   UNL     1      -1.495   4.726   2.565  0.00  0.00    -0.274 N 
ATOM      5  C   UNL     1      -1.498   3.340   2.597  0.00  0.00    +0.157 A 
ATOM      6  C   UNL     1      -0.836   2.919   1.444  0.00  0.00    +0.170 A 
ATOM      7  N   UNL     1      -0.463   4.007   0.775  0.00  0.00    -0.193 NA
ATOM      8  C   UNL     1      -0.841   5.094   1.432  0.00  0.00    +0.223 A 
ATOM      9  N   UNL     1      -0.827   6.465   1.393  0.00  0.00    -0.281 N 
ATOM     10  N   UNL     1      -0.698   1.558   1.213  0.00  0.00    -0.279 N 
ATOM     11  C   UNL     1      -1.190   0.672   2.099  0.00  0.00    +0.334 A 
ATOM     12  O   UNL     1      -1.056  -0.518   1.884  0.00  0.00    -0.246 OA
ATOM     13  N   UNL     1      -1.824   1.068   3.216  0.00  0.00    -0.255 N 
ATOM     14  C   UNL     1      -1.993   2.378   3.493  0.00  0.00    +0.283 A 
ATOM     15  O   UNL     1      -2.570   2.722   4.509  0.00  0.00    -0.265 OA
ATOM     16  C   UNL     1      -0.013   1.086   0.008  0.00  0.00    +0.155 C 
ATOM     17  C   UNL     1      -2.612   5.929   4.548  0.00  0.00    +0.066 C 
ENDROOT
BRANCH   9  18
ATOM     18  C   UNL     1      -0.260   7.257   0.384  0.00  0.00    +0.070 A 
ATOM     19  C   UNL     1      -1.022   7.644  -0.707  0.00  0.00    +0.028 A 
ATOM     20  C   UNL     1      -0.462   8.425  -1.700  0.00  0.00    +0.002 A 
ATOM     21  C   UNL     1       0.859   8.823  -1.609  0.00  0.00    +0.002 A 
ATOM     22  C   UNL     1       1.627   8.441  -0.525  0.00  0.00    +0.025 A 
ATOM     23  C   UNL     1       1.071   7.662   0.479  0.00  0.00    +0.049 A 
BRANCH  23  24
ATOM     24  N   UNL     1       1.845   7.279   1.579  0.00  0.00    -0.356 N 
ATOM     25  H   UNL     1       1.456   6.731   2.279  0.00  0.00    +0.142 HD
ATOM     26  H   UNL     1       2.771   7.562   1.643  0.00  0.00    +0.142 HD
ENDBRANCH  23  24
ENDBRANCH   9  18
BRANCH  13  27
ATOM     27  C   UNL     1      -2.339   0.062   4.148  0.00  0.00    +0.165 C 
BRANCH  27  28
ATOM     28  C   UNL     1      -1.278  -0.270   5.166  0.00  0.00    -0.027 A 
ATOM     29  C   UNL     1      -0.385  -1.296   4.923  0.00  0.00    +0.006 A 
ATOM     30  C   UNL     1       0.591  -1.598   5.854  0.00  0.00    +0.015 A 
ATOM     31  C   UNL     1       0.668  -0.880   7.033  0.00  0.00    +0.018 A 
ATOM     32  C   UNL     1      -0.230   0.143   7.279  0.00  0.00    +0.015 A 
ATOM     33  C   UNL     1      -1.202   0.448   6.345  0.00  0.00    +0.006 A 
ATOM     34 BR   UNL     1       1.999  -1.297   8.310  0.00  0.00    -0.050 Br
ENDBRANCH  27  28
ENDBRANCH  13  27
TORSDOF 4
