REMARK  Name = ZINC40815108
REMARK  6 active torsions:
REMARK  status: ('A' for Active; 'I' for Inactive)
REMARK    1  A    between atoms: C_1  and  C_2
REMARK    2  A    between atoms: C_6  and  C_7
REMARK    3  A    between atoms: N_9  and  C_10
REMARK    4  A    between atoms: N_24  and  N_25
REMARK    5  A    between atoms: N_25  and  S_26
REMARK    6  A    between atoms: S_26  and  C_29
REMARK                            x       y       z     vdW  Elec       q    Type
REMARK                         _______ _______ _______ _____ _____    ______ ____
ROOT
ATOM      1  C   UNL     1      -0.007   1.502   0.010  0.00  0.00    +0.048 C 
ATOM      2  C   UNL     1       0.020  -0.004   0.002  0.00  0.00    +0.009 A 
ATOM      3  C   UNL     1       0.038  -0.838  -1.123  0.00  0.00    +0.042 A 
ATOM      4  C   UNL     1       0.059  -2.137  -0.673  0.00  0.00    +0.115 A 
ATOM      5  O   UNL     1       0.057  -2.112   0.658  0.00  0.00    -0.454 OA
ATOM      6  C   UNL     1       0.038  -0.831   1.091  0.00  0.00    +0.193 A 
ATOM      7  C   UNL     1       0.077  -3.325  -1.601  0.00  0.00    +0.075 C 
ATOM      8  C   UNL     1      -0.440  -2.904  -2.978  0.00  0.00    +0.014 C 
ATOM      9  C   UNL     1       0.329  -1.683  -3.494  0.00  0.00    +0.058 C 
ATOM     10  C   UNL     1       0.039  -0.511  -2.567  0.00  0.00    +0.071 C 
ATOM     11  N   UNL     1      -0.191   0.686  -3.010  0.00  0.00    -0.170 NA
ENDROOT
BRANCH   6  12
ATOM     12  C   UNL     1       0.035  -0.400   2.493  0.00  0.00    +0.284 C 
ATOM     13  O   UNL     1       0.014   0.786   2.766  0.00  0.00    -0.266 OA
ATOM     14  N   UNL     1       0.055  -1.318   3.480  0.00  0.00    -0.277 N 
ATOM     15  H   UNL     1      -0.010  -2.262   3.266  0.00  0.00    +0.155 HD
BRANCH  14  16
ATOM     16  C   UNL     1       0.168  -0.910   4.810  0.00  0.00    +0.060 A 
ATOM     17  C   UNL     1       0.755   0.297   5.119  0.00  0.00    +0.025 A 
ATOM     18  C   UNL     1       0.875   0.716   6.440  0.00  0.00    +0.003 A 
ATOM     19  C   UNL     1       0.415  -0.056   7.464  0.00  0.00    +0.010 A 
ATOM     20  C   UNL     1      -0.190  -1.294   7.191  0.00  0.00    +0.002 A 
ATOM     21  C   UNL     1      -0.324  -1.730   5.850  0.00  0.00    +0.092 A 
ATOM     22  N   UNL     1      -0.903  -2.904   5.586  0.00  0.00    -0.253 NA
ATOM     23  C   UNL     1      -1.361  -3.669   6.547  0.00  0.00    +0.111 A 
ATOM     24  C   UNL     1      -1.268  -3.298   7.887  0.00  0.00    +0.020 A 
ATOM     25  C   UNL     1      -0.675  -2.115   8.226  0.00  0.00    +0.011 A 
ENDBRANCH  14  16
ENDBRANCH   6  12
BRANCH  11  26
ATOM     26  N   UNL     1      -0.177   0.938  -4.388  0.00  0.00    -0.136 N 
ATOM     27  H   UNL     1       0.004   0.217  -5.011  0.00  0.00    +0.197 HD
BRANCH  26  28
ATOM     28  S   UNL     1      -0.470   2.466  -4.953  0.00  0.00    +0.086 S 
ATOM     29  O   UNL     1      -0.247   2.431  -6.356  0.00  0.00    -0.149 OA
ATOM     30  O   UNL     1      -1.708   2.877  -4.389  0.00  0.00    -0.149 OA
BRANCH  28  31
ATOM     31  C   UNL     1       0.767   3.520  -4.272  0.00  0.00    +0.110 A 
ATOM     32  C   UNL     1       0.552   4.143  -3.057  0.00  0.00    +0.029 A 
ATOM     33  C   UNL     1       1.524   4.969  -2.523  0.00  0.00    +0.002 A 
ATOM     34  C   UNL     1       2.709   5.172  -3.204  0.00  0.00    +0.000 A 
ATOM     35  C   UNL     1       2.925   4.548  -4.418  0.00  0.00    +0.002 A 
ATOM     36  C   UNL     1       1.955   3.718  -4.950  0.00  0.00    +0.029 A 
ENDBRANCH  28  31
ENDBRANCH  26  28
ENDBRANCH  11  26
TORSDOF 5
