REMARK  Name = ZINC19632842
REMARK  7 active torsions:
REMARK  status: ('A' for Active; 'I' for Inactive)
REMARK    1  A    between atoms: C_1  and  N_2
REMARK    2  A    between atoms: N_5  and  C_8
REMARK    3  A    between atoms: C_8  and  C_9
REMARK    4  A    between atoms: C_10  and  C_11
REMARK    5  A    between atoms: C_14  and  N_17
REMARK    6  A    between atoms: N_17  and  C_18
REMARK    7  A    between atoms: N_17  and  C_19
REMARK                            x       y       z     vdW  Elec       q    Type
REMARK                         _______ _______ _______ _____ _____    ______ ____
ROOT
ATOM      1  C   UNL     1      -0.631   1.724   3.640  0.00  0.00    -0.011 C 
ATOM      2  C   UNL     1      -1.157   1.010   4.626  0.00  0.00    +0.005 C 
ENDROOT
BRANCH   2   3
ATOM      3  C   UNL     1      -1.715   1.690   5.814  0.00  0.00    -0.025 A 
ATOM      4  C   UNL     1      -1.684   3.083   5.902  0.00  0.00    +0.010 A 
ATOM      5  C   UNL     1      -2.209   3.713   7.008  0.00  0.00    +0.023 A 
ATOM      6  C   UNL     1      -2.760   2.964   8.042  0.00  0.00    +0.029 A 
ATOM      7  C   UNL     1      -2.788   1.576   7.959  0.00  0.00    +0.023 A 
ATOM      8  C   UNL     1      -2.269   0.940   6.853  0.00  0.00    +0.010 A 
BRANCH   6   9
ATOM      9  N   UNL     1      -3.286   3.606   9.164  0.00  0.00    -0.336 N 
ATOM     10  C   UNL     1      -3.867   2.817  10.253  0.00  0.00    +0.129 C 
ATOM     11  C   UNL     1      -3.257   5.068   9.252  0.00  0.00    +0.129 C 
ENDBRANCH   6   9
ENDBRANCH   2   3
BRANCH   1  12
ATOM     12  C   UNL     1      -0.062   1.031   2.429  0.00  0.00    +0.111 C 
BRANCH  12  17
ATOM     13  C   UNL     1      -1.445   3.591  -2.413  0.00  0.00    -0.096 C 
ATOM     14  N   UNL     1      -0.806   3.062  -1.200  0.00  0.00    +0.379 N 
ATOM     15  C   UNL     1      -0.754   1.593  -1.231  0.00  0.00    -0.064 C 
ATOM     16  C   UNL     1      -0.013   1.086   0.008  0.00  0.00    +0.066 C 
ATOM     17  N   UNL     1      -0.701   1.560   1.216  0.00  0.00    -0.302 NA
ATOM     18  C   UNL     1      -0.754   3.029   1.247  0.00  0.00    +0.066 C 
ATOM     19  C   UNL     1      -1.495   3.536   0.008  0.00  0.00    -0.064 C 
ATOM     20  H   UNL     1       0.227   3.438  -1.172  0.00  0.00    -0.082 HD
ENDBRANCH  12  17
ENDBRANCH   1  12
TORSDOF 4
