REMARK  Name = ZINC51751236
REMARK  4 active torsions:
REMARK  status: ('A' for Active; 'I' for Inactive)
REMARK    1  A    between atoms: C_1  and  C_2
REMARK    2  A    between atoms: N_6  and  S_11
REMARK    3  A    between atoms: C_7  and  C_10
REMARK    4  A    between atoms: S_11  and  C_14
REMARK                            x       y       z     vdW  Elec       q    Type
REMARK                         _______ _______ _______ _____ _____    ______ ____
ROOT
ATOM      1  S   UNL     1       2.539  -3.606  -0.041  0.00  0.00    +0.061 S 
ATOM      2  O   UNL     1       2.498  -4.295   1.201  0.00  0.00    -0.153 OA
ATOM      3  O   UNL     1       2.475  -4.282  -1.290  0.00  0.00    -0.153 OA
ENDROOT
BRANCH   1   8
ATOM      4  C   UNL     1      -0.019   1.526   0.010  0.00  0.00    +0.007 C 
ATOM      5  C   UNL     1       0.002  -0.004   0.002  0.00  0.00    -0.011 C 
ATOM      6  C   UNL     1       0.718  -0.497  -1.258  0.00  0.00    +0.020 C 
ATOM      7  C   UNL     1       0.706  -2.029  -1.280  0.00  0.00    +0.110 C 
ATOM      8  N   UNL     1       1.285  -2.525  -0.024  0.00  0.00    -0.174 NA
ATOM      9  C   UNL     1       0.730  -2.043   1.248  0.00  0.00    +0.077 C 
ATOM     10  C   UNL     1       0.742  -0.511   1.242  0.00  0.00    +0.023 C 
ATOM     11  C   UNL     1      -0.706  -2.547   1.406  0.00  0.00    +0.026 C 
ENDBRANCH   1   8
BRANCH   1  12
ATOM     12  C   UNL     1       4.033  -2.672  -0.051  0.00  0.00    +0.107 A 
ATOM     13  C   UNL     1       4.604  -2.295  -1.252  0.00  0.00    +0.028 A 
ATOM     14  C   UNL     1       5.776  -1.562  -1.260  0.00  0.00    +0.003 A 
ATOM     15  C   UNL     1       6.378  -1.206  -0.067  0.00  0.00    +0.015 A 
ATOM     16  C   UNL     1       5.806  -1.583   1.135  0.00  0.00    +0.020 A 
ATOM     17  C   UNL     1       4.630  -2.312   1.143  0.00  0.00    +0.043 A 
ATOM     18 BR   UNL     1       6.628  -1.098   2.767  0.00  0.00    -0.050 Br
ENDBRANCH   1  12
TORSDOF 2
