REMARK  Name = ZINC22195928
REMARK  6 active torsions:
REMARK  status: ('A' for Active; 'I' for Inactive)
REMARK    1  A    between atoms: C_1  and  C_2
REMARK    2  A    between atoms: C_11  and  N_15
REMARK    3  A    between atoms: N_18  and  C_21
REMARK    4  A    between atoms: C_21  and  C_23
REMARK    5  A    between atoms: C_21  and  C_24
REMARK    6  A    between atoms: N_26  and  C_27
REMARK                            x       y       z     vdW  Elec       q    Type
REMARK                         _______ _______ _______ _____ _____    ______ ____
ROOT
ATOM      1  N   UNL     1       0.704   4.003  -1.373  0.00  0.00    -0.318 N 
ATOM      2  C   UNL     1       1.450   4.067  -0.108  0.00  0.00    +0.088 C 
ATOM      3  C   UNL     1       1.533   5.521   0.360  0.00  0.00    -0.059 C 
ATOM      4  N   UNL     1       0.174   6.058   0.526  0.00  0.00    +0.389 N 
ATOM      5  C   UNL     1      -0.572   5.994  -0.738  0.00  0.00    -0.059 C 
ATOM      6  C   UNL     1      -0.654   4.539  -1.206  0.00  0.00    +0.088 C 
ATOM      7  H   UNL     1      -0.350   5.431   1.262  0.00  0.00    -0.081 HD
ENDROOT
BRANCH   1  17
ATOM      8  C   UNL     1       4.281   5.618  -6.859  0.00  0.00    +0.008 C 
ATOM      9  C   UNL     1       3.764   4.769  -5.696  0.00  0.00    -0.009 C 
ATOM     10  C   UNL     1       2.578   5.475  -5.033  0.00  0.00    +0.008 C 
ATOM     11  C   UNL     1       2.215   4.764  -3.728  0.00  0.00    +0.037 C 
ATOM     12  C   UNL     1       2.019   3.278  -4.016  0.00  0.00    -0.025 A 
ATOM     13  C   UNL     1       2.519   2.721  -5.138  0.00  0.00    -0.004 A 
ATOM     14  S   UNL     1       2.060   1.011  -5.050  0.00  0.00    -0.073 S 
ATOM     15  C   UNL     1       1.194   1.046  -3.502  0.00  0.00    +0.114 A 
ATOM     16  C   UNL     1       1.293   2.394  -3.103  0.00  0.00    +0.051 A 
ATOM     17  C   UNL     1       0.670   2.711  -1.864  0.00  0.00    +0.133 A 
ATOM     18  N   UNL     1       0.057   1.752  -1.188  0.00  0.00    -0.220 NA
ATOM     19  C   UNL     1       0.004   0.506  -1.624  0.00  0.00    +0.224 A 
ATOM     20  N   UNL     1       0.564   0.152  -2.765  0.00  0.00    -0.228 NA
ATOM     21  C   UNL     1       3.294   3.406  -6.222  0.00  0.00    +0.046 C 
ENDBRANCH   1  17
BRANCH   4  22
ATOM     22  C   UNL     1       0.210   7.430   1.048  0.00  0.00    +0.016 C 
ATOM     23  C   UNL     1       1.093   7.478   2.297  0.00  0.00    -0.004 C 
BRANCH  22  24
ATOM     24  C   UNL     1      -1.187   7.870   1.403  0.00  0.00    +0.199 C 
ATOM     25  O   UNL     1      -2.021   7.046   1.715  0.00  0.00    -0.278 OA
ATOM     26  N   UNL     1      -1.510   9.178   1.373  0.00  0.00    -0.314 N 
ATOM     27  H   UNL     1      -0.753   9.925   1.091  0.00  0.00    +0.149 HD
BRANCH  26  28
ATOM     28  C   UNL     1      -2.868   9.605   1.718  0.00  0.00    +0.073 C 
ATOM     29  C   UNL     1      -3.524  10.662   0.828  0.00  0.00    +0.024 C 
ATOM     30  C   UNL     1      -3.050  11.034   2.235  0.00  0.00    +0.024 C 
ENDBRANCH  26  28
ENDBRANCH  22  24
ENDBRANCH   4  22
TORSDOF 4
