REMARK  Name = ZINC02119028
REMARK  9 active torsions:
REMARK  status: ('A' for Active; 'I' for Inactive)
REMARK    1  A    between atoms: C_1  and  C_2
REMARK    2  A    between atoms: C_4  and  C_32
REMARK    3  A    between atoms: N_5  and  C_7
REMARK    4  A    between atoms: C_7  and  C_8
REMARK    5  A    between atoms: C_10  and  C_16
REMARK    6  A    between atoms: C_13  and  O_14
REMARK    7  A    between atoms: O_14  and  C_15
REMARK    8  A    between atoms: C_22  and  O_28
REMARK    9  A    between atoms: O_28  and  C_29
REMARK                            x       y       z     vdW  Elec       q    Type
REMARK                         _______ _______ _______ _____ _____    ______ ____
ROOT
ATOM      1  C   UNL     1       5.297   3.258  -3.971  0.00  0.00    +0.007 C 
ATOM      2  C   UNL     1       6.805   3.353  -3.956  0.00  0.00    +0.010 A 
ATOM      3  C   UNL     1       7.524   3.783  -5.022  0.00  0.00    -0.022 A 
ATOM      4  C   UNL     1       8.918   3.731  -4.644  0.00  0.00    +0.006 A 
ATOM      5  C   UNL     1      10.100   4.050  -5.322  0.00  0.00    +0.056 A 
ATOM      6  C   UNL     1      11.287   3.871  -4.628  0.00  0.00    +0.121 A 
ATOM      7  C   UNL     1      11.307   3.397  -3.322  0.00  0.00    +0.047 A 
ATOM      8  C   UNL     1      10.150   3.076  -2.636  0.00  0.00    +0.030 A 
ATOM      9  C   UNL     1       8.943   3.248  -3.310  0.00  0.00    +0.047 A 
ATOM     10  N   UNL     1       7.647   3.030  -2.932  0.00  0.00    -0.359 N 
ATOM     11  H   UNL     1       7.367   2.699  -2.064  0.00  0.00    +0.166 HD
ATOM     12  C   UNL     1       6.903   4.220  -6.325  0.00  0.00    +0.018 C 
ATOM     13  C   UNL     1       5.406   4.459  -6.081  0.00  0.00    -0.076 C 
ATOM     14  N   UNL     1       4.828   3.298  -5.374  0.00  0.00    +0.387 N 
ATOM     15  H   UNL     1       3.804   3.371  -5.385  0.00  0.00    -0.084 HD
ATOM     16  H   UNL     1       5.115   2.435  -5.850  0.00  0.00    -0.084 HD
ENDROOT
BRANCH   1  19
ATOM     17  C   UNL     1       4.021   0.753  -1.453  0.00  0.00    +0.016 A 
ATOM     18  C   UNL     1       4.412   1.943  -2.035  0.00  0.00    +0.011 A 
ATOM     19  C   UNL     1       4.866   1.959  -3.341  0.00  0.00    -0.055 A 
ATOM     20  C   UNL     1       4.919   0.786  -4.071  0.00  0.00    +0.006 A 
ATOM     21  C   UNL     1       4.524  -0.406  -3.495  0.00  0.00    +0.046 A 
ATOM     22  C   UNL     1       4.073  -0.425  -2.183  0.00  0.00    +0.125 A 
BRANCH  22  23
ATOM     23  O   UNL     1       3.684  -1.597  -1.615  0.00  0.00    -0.495 OA
ATOM     24  C   UNL     1       3.764  -2.770  -2.426  0.00  0.00    +0.277 C 
ENDBRANCH  22  23
BRANCH  17  25
ATOM     25  C   UNL     1       3.532   0.735  -0.027  0.00  0.00    +0.182 C 
BRANCH  25  30
ATOM     26  C   UNL     1      -1.250   2.262   0.021  0.00  0.00    +0.068 C 
ATOM     27  C   UNL     1      -0.017   1.395   0.010  0.00  0.00    +0.074 A 
ATOM     28  C   UNL     1       0.002  -0.004   0.002  0.00  0.00    +0.061 A 
ATOM     29  C   UNL     1       1.296  -0.403  -0.013  0.00  0.00    +0.051 A 
ATOM     30  N   UNL     1       2.067   0.705  -0.014  0.00  0.00    -0.263 N 
ATOM     31  N   UNL     1       1.220   1.821   0.000  0.00  0.00    -0.175 NA
ATOM     32  C   UNL     1       1.786  -1.828  -0.024  0.00  0.00    +0.066 C 
ATOM     33 BR   UNL     1      -1.512  -1.137   0.011  0.00  0.00    -0.047 Br
ENDBRANCH  25  30
ENDBRANCH  17  25
ENDBRANCH   1  19
BRANCH   6  34
ATOM     34  O   UNL     1      12.463   4.166  -5.243  0.00  0.00    -0.495 OA
ATOM     35  C   UNL     1      13.659   3.964  -4.487  0.00  0.00    +0.277 C 
ENDBRANCH   6  34
TORSDOF 5
