REMARK  Name = ZINC00866950
REMARK  9 active torsions:
REMARK  status: ('A' for Active; 'I' for Inactive)
REMARK    1  A    between atoms: C_1  and  C_2
REMARK    2  A    between atoms: C_2  and  C_3
REMARK    3  A    between atoms: C_3  and  C_5
REMARK    4  A    between atoms: C_3  and  N_6
REMARK    5  A    between atoms: C_7  and  C_9
REMARK    6  A    between atoms: C_13  and  C_24
REMARK    7  A    between atoms: C_16  and  C_20
REMARK    8  A    between atoms: C_27  and  O_30
REMARK    9  A    between atoms: O_30  and  C_31
REMARK                            x       y       z     vdW  Elec       q    Type
REMARK                         _______ _______ _______ _____ _____    ______ ____
ROOT
ATOM      1  C   UNL     1      -0.199   0.521  -4.798  0.00  0.00    +0.128 C 
ATOM      2  C   UNL     1      -1.511   0.867  -4.792  0.00  0.00    +0.109 C 
ATOM      3  C   UNL     1      -1.851   1.298  -6.149  0.00  0.00    +0.154 C 
ATOM      4  N   UNL     1      -2.982   1.729  -6.630  0.00  0.00    -0.259 NA
ATOM      5  C   UNL     1      -3.050   2.139  -8.037  0.00  0.00    +0.139 C 
ATOM      6  C   UNL     1      -2.084   1.309  -8.885  0.00  0.00    +0.065 C 
ATOM      7  C   UNL     1      -0.654   1.465  -8.345  0.00  0.00    +0.202 C 
ATOM      8  N   UNL     1      -0.697   1.161  -6.911  0.00  0.00    -0.224 N 
ATOM      9  N   UNL     1       0.317   0.710  -6.072  0.00  0.00    -0.256 N 
ATOM     10 CL   UNL     1      -2.586   0.810  -3.430  0.00  0.00    -0.078 Cl
ATOM     11  H   UNL     1       1.236   0.551  -6.336  0.00  0.00    +0.170 HD
ENDROOT
BRANCH   5  12
ATOM     12  C   UNL     1      -4.454   1.940  -8.546  0.00  0.00    -0.023 A 
ATOM     13  C   UNL     1      -5.173   0.821  -8.168  0.00  0.00    +0.009 A 
ATOM     14  C   UNL     1      -6.461   0.636  -8.633  0.00  0.00    +0.046 A 
ATOM     15  C   UNL     1      -7.032   1.574  -9.481  0.00  0.00    +0.120 A 
ATOM     16  C   UNL     1      -6.309   2.696  -9.859  0.00  0.00    +0.046 A 
ATOM     17  C   UNL     1      -5.023   2.879  -9.386  0.00  0.00    +0.009 A 
BRANCH  15  18
ATOM     18  O   UNL     1      -8.298   1.394  -9.941  0.00  0.00    -0.495 OA
ATOM     19  C   UNL     1      -8.822   2.400 -10.809  0.00  0.00    +0.277 C 
ENDBRANCH  15  18
ENDBRANCH   5  12
BRANCH   1  21
ATOM     20  N   UNL     1       1.887  -0.188  -3.733  0.00  0.00    -0.308 N 
ATOM     21  C   UNL     1       0.561   0.028  -3.631  0.00  0.00    +0.261 C 
ATOM     22  O   UNL     1      -0.010  -0.183  -2.579  0.00  0.00    -0.269 OA
ATOM     23  H   UNL     1       2.330  -0.090  -4.591  0.00  0.00    +0.149 HD
BRANCH  20  24
ATOM     24  C   UNL     1       2.661  -0.571  -2.549  0.00  0.00    +0.070 C 
ATOM     25  C   UNL     1       3.073   0.686  -1.781  0.00  0.00    +0.028 C 
BRANCH  24  27
ATOM     26  C   UNL     1       3.500  -2.656  -3.641  0.00  0.00    +0.005 C 
ATOM     27  C   UNL     1       3.912  -1.337  -2.983  0.00  0.00    +0.018 C 
ENDBRANCH  24  27
ENDBRANCH  20  24
ENDBRANCH   1  21
BRANCH   7  28
ATOM     28  C   UNL     1       0.282   0.487  -9.059  0.00  0.00    +0.410 C 
ATOM     29  F   UNL     1       0.276   0.754 -10.432  0.00  0.00    -0.169 F 
ATOM     30  F   UNL     1       1.580   0.637  -8.560  0.00  0.00    -0.169 F 
ATOM     31  F   UNL     1      -0.155  -0.823  -8.836  0.00  0.00    -0.169 F 
ENDBRANCH   7  28
TORSDOF 6
