REMARK  Name = ZINC25424438
REMARK  6 active torsions:
REMARK  status: ('A' for Active; 'I' for Inactive)
REMARK    1  A    between atoms: C_1  and  N_2
REMARK    2  A    between atoms: N_2  and  C_3
REMARK    3  A    between atoms: N_2  and  C_24
REMARK    4  A    between atoms: C_3  and  C_4
REMARK    5  A    between atoms: N_6  and  C_7
REMARK    6  A    between atoms: C_9  and  C_14
REMARK                            x       y       z     vdW  Elec       q    Type
REMARK                         _______ _______ _______ _____ _____    ______ ____
ROOT
ATOM      1  C   UNL     1      -3.685   4.615  -0.358  0.00  0.00    +0.070 A 
ATOM      2  C   UNL     1      -3.197   3.318  -0.358  0.00  0.00    +0.037 A 
ATOM      3  C   UNL     1      -1.876   3.075   0.016  0.00  0.00    +0.021 A 
ATOM      4  C   UNL     1      -1.054   4.138   0.393  0.00  0.00    +0.014 A 
ATOM      5  C   UNL     1      -1.546   5.427   0.386  0.00  0.00    +0.041 A 
ATOM      6  C   UNL     1      -2.857   5.670   0.014  0.00  0.00    +0.145 A 
ATOM      7  F   UNL     1      -3.335   6.933   0.014  0.00  0.00    -0.204 F 
ENDROOT
BRANCH   3   8
ATOM      8  C   UNL     1      -1.349   1.693   0.019  0.00  0.00    +0.164 A 
ATOM      9  N   UNL     1      -2.056   0.583   0.044  0.00  0.00    -0.129 NA
ATOM     10  N   UNL     1      -1.268  -0.435   0.033  0.00  0.00    -0.134 NA
ATOM     11  C   UNL     1      -0.027  -0.037  -0.005  0.00  0.00    +0.134 A 
ATOM     12  N   UNL     1      -0.035   1.323  -0.003  0.00  0.00    -0.311 N 
ATOM     13  C   UNL     1       1.135   2.201  -0.012  0.00  0.00    +0.125 C 
ATOM     14  C   UNL     1       2.299   1.487  -0.705  0.00  0.00    +0.022 C 
ATOM     15  C   UNL     1       3.097   0.686   0.323  0.00  0.00    +0.002 C 
ATOM     16  C   UNL     1       2.221  -0.382   0.970  0.00  0.00    +0.008 C 
ATOM     17  C   UNL     1       1.206  -0.902  -0.052  0.00  0.00    +0.076 C 
ENDBRANCH   3   8
BRANCH   1  20
ATOM     18  C   UNL     1      -5.974   3.965  -0.445  0.00  0.00    +0.235 C 
ATOM     19  O   UNL     1      -5.712   2.992   0.229  0.00  0.00    -0.274 OA
ATOM     20  N   UNL     1      -5.011   4.864  -0.734  0.00  0.00    -0.282 N 
ATOM     21  H   UNL     1      -5.268   5.793  -1.264  0.00  0.00    +0.155 HD
BRANCH  18  22
ATOM     22  C   UNL     1      -7.375   4.170  -0.960  0.00  0.00    +0.200 C 
BRANCH  22  24
ATOM     23  C   UNL     1      -8.361   1.863  -1.339  0.00  0.00    +0.130 C 
ATOM     24  N   UNL     1      -8.226   3.065  -0.513  0.00  0.00    -0.324 N 
BRANCH  24  25
ATOM     25  C   UNL     1      -8.910   3.157   0.702  0.00  0.00    +0.030 A 
ATOM     26  C   UNL     1      -8.779   4.294   1.489  0.00  0.00    +0.023 A 
ATOM     27  C   UNL     1      -9.460   4.384   2.688  0.00  0.00    +0.002 A 
ATOM     28  C   UNL     1     -10.263   3.340   3.108  0.00  0.00    +0.000 A 
ATOM     29  C   UNL     1     -10.391   2.205   2.329  0.00  0.00    +0.002 A 
ATOM     30  C   UNL     1      -9.717   2.110   1.127  0.00  0.00    +0.023 A 
ENDBRANCH  24  25
ENDBRANCH  22  24
ENDBRANCH  18  22
ENDBRANCH   1  20
TORSDOF 5
