REMARK  Name = ZINC04763672
REMARK  5 active torsions:
REMARK  status: ('A' for Active; 'I' for Inactive)
REMARK    1  A    between atoms: C_4  and  C_7
REMARK    2  A    between atoms: C_7  and  N_8
REMARK    3  A    between atoms: C_9  and  C_24
REMARK    4  A    between atoms: C_12  and  C_13
REMARK    5  A    between atoms: C_17  and  N_19
REMARK                            x       y       z     vdW  Elec       q    Type
REMARK                         _______ _______ _______ _____ _____    ______ ____
ROOT
ATOM      1  N   UNL     1       4.281   5.531  -0.763  0.00  0.00    -0.246 N 
ATOM      2  C   UNL     1       2.979   5.368  -0.349  0.00  0.00    +0.136 C 
ATOM      3  N   UNL     1       2.805   4.195   0.199  0.00  0.00    -0.226 NA
ATOM      4  C   UNL     1       3.983   3.510   0.181  0.00  0.00    +0.129 C 
ATOM      5  C   UNL     1       4.210   2.240   0.665  0.00  0.00    +0.041 C 
ATOM      6  C   UNL     1       4.966   4.407  -0.457  0.00  0.00    +0.271 C 
ATOM      7  O   UNL     1       6.144   4.182  -0.665  0.00  0.00    -0.268 OA
ENDROOT
BRANCH   5   8
ATOM      8  C   UNL     1       3.157   1.537   1.404  0.00  0.00    -0.021 A 
ATOM      9  C   UNL     1       1.972   2.202   1.746  0.00  0.00    +0.008 A 
ATOM     10  C   UNL     1       0.987   1.534   2.440  0.00  0.00    +0.003 A 
ATOM     11  C   UNL     1       1.166   0.209   2.801  0.00  0.00    +0.033 A 
ATOM     12  C   UNL     1       2.334  -0.456   2.468  0.00  0.00    +0.127 A 
ATOM     13  C   UNL     1       3.329   0.197   1.773  0.00  0.00    +0.040 A 
BRANCH  12  14
ATOM     14  N   UNL     1       2.514  -1.872   2.858  0.00  0.00    +0.056 N 
ATOM     15  O   UNL     1       1.635  -2.451   3.472  0.00  0.00    -0.126 OA
ATOM     16  O   UNL     1       3.540  -2.459   2.566  0.00  0.00    -0.126 OA
ENDBRANCH  12  14
ENDBRANCH   5   8
BRANCH   2  17
ATOM     17  C   UNL     1       1.919   6.385  -0.504  0.00  0.00    +0.015 A 
ATOM     18  C   UNL     1       1.007   6.610   0.529  0.00  0.00    +0.011 A 
ATOM     19  C   UNL     1       0.022   7.565   0.380  0.00  0.00    +0.001 A 
ATOM     20  C   UNL     1      -0.070   8.291  -0.794  0.00  0.00    +0.000 A 
ATOM     21  C   UNL     1       0.828   8.070  -1.824  0.00  0.00    +0.001 A 
ATOM     22  C   UNL     1       1.821   7.122  -1.686  0.00  0.00    +0.011 A 
ENDBRANCH   2  17
BRANCH   1  23
ATOM     23  C   UNL     1       4.831   6.721  -1.417  0.00  0.00    +0.150 C 
BRANCH  23  27
ATOM     24  C   UNL     1       6.643   9.247   1.512  0.00  0.00    +0.000 A 
ATOM     25  C   UNL     1       7.394   8.278   0.876  0.00  0.00    +0.000 A 
ATOM     26  C   UNL     1       6.809   7.460  -0.072  0.00  0.00    +0.005 A 
ATOM     27  C   UNL     1       5.470   7.612  -0.383  0.00  0.00    -0.030 A 
ATOM     28  C   UNL     1       4.719   8.585   0.250  0.00  0.00    +0.005 A 
ATOM     29  C   UNL     1       5.304   9.399   1.201  0.00  0.00    +0.000 A 
ENDBRANCH  23  27
ENDBRANCH   1  23
TORSDOF 5
