REMARK  Name = ZINC41186847
REMARK  7 active torsions:
REMARK  status: ('A' for Active; 'I' for Inactive)
REMARK    1  A    between atoms: C_1  and  C_2
REMARK    2  A    between atoms: C_7  and  N_8
REMARK    3  A    between atoms: C_9  and  C_11
REMARK    4  A    between atoms: C_11  and  C_12
REMARK    5  A    between atoms: C_12  and  C_13
REMARK    6  A    between atoms: C_18  and  O_25
REMARK    7  A    between atoms: O_25  and  C_26
REMARK                            x       y       z     vdW  Elec       q    Type
REMARK                         _______ _______ _______ _____ _____    ______ ____
ROOT
ATOM      1  C   UNL     1      -0.245  -0.946   6.038  0.00  0.00    +0.050 C 
ENDROOT
BRANCH   1   2
ATOM      2  C   UNL     1      -0.357  -0.199   7.342  0.00  0.00    +0.018 A 
ATOM      3  C   UNL     1      -1.579   0.027   7.889  0.00  0.00    +0.019 A 
ATOM      4  C   UNL     1      -1.654   0.754   9.155  0.00  0.00    -0.001 A 
ATOM      5  C   UNL     1      -2.886   1.016   9.767  0.00  0.00    +0.013 A 
ATOM      6  C   UNL     1      -2.925   1.697  10.949  0.00  0.00    +0.046 A 
ATOM      7  C   UNL     1      -1.747   2.135  11.553  0.00  0.00    +0.122 A 
ATOM      8  C   UNL     1      -0.520   1.887  10.964  0.00  0.00    +0.072 A 
ATOM      9  C   UNL     1      -0.460   1.195   9.761  0.00  0.00    +0.053 A 
ATOM     10  N   UNL     1       0.749   0.933   9.153  0.00  0.00    -0.322 N 
ATOM     11  H   UNL     1       1.570   1.236   9.572  0.00  0.00    +0.169 HD
ATOM     12  C   UNL     1       0.807   0.259   7.991  0.00  0.00    +0.252 A 
ATOM     13  O   UNL     1       1.895   0.041   7.485  0.00  0.00    -0.268 OA
BRANCH   7  14
ATOM     14  O   UNL     1      -1.805   2.812  12.728  0.00  0.00    -0.495 OA
ATOM     15  C   UNL     1      -3.103   3.037  13.284  0.00  0.00    +0.277 C 
ENDBRANCH   7  14
ENDBRANCH   1   2
BRANCH   1  16
ATOM     16  C   UNL     1      -0.169   0.054   4.882  0.00  0.00    +0.101 C 
BRANCH  16  18
ATOM     17  N   UNL     1       0.025  -0.014   2.417  0.00  0.00    -0.285 N 
ATOM     18  C   UNL     1      -0.057  -0.693   3.578  0.00  0.00    +0.218 C 
ATOM     19  O   UNL     1      -0.040  -1.906   3.574  0.00  0.00    -0.275 OA
ATOM     20  H   UNL     1       0.077   0.955   2.425  0.00  0.00    +0.155 HD
BRANCH  17  27
ATOM     21  C   UNL     1      -1.265   1.183   0.181  0.00  0.00    +0.046 C 
ATOM     22  C   UNL     1      -0.584  -0.158   0.084  0.00  0.00    -0.028 A 
ATOM     23  C   UNL     1      -0.569  -0.841  -1.116  0.00  0.00    +0.025 A 
ATOM     24  C   UNL     1       0.056  -2.072  -1.206  0.00  0.00    +0.041 A 
ATOM     25  C   UNL     1       0.668  -2.623  -0.093  0.00  0.00    +0.022 A 
ATOM     26  C   UNL     1       0.656  -1.944   1.109  0.00  0.00    +0.025 A 
ATOM     27  C   UNL     1       0.034  -0.706   1.201  0.00  0.00    +0.036 A 
ATOM     28 CL   UNL     1       0.072  -2.928  -2.716  0.00  0.00    -0.084 Cl
ENDBRANCH  17  27
ENDBRANCH  16  18
ENDBRANCH   1  16
TORSDOF 5
