REMARK  Name = ZINC31808495
REMARK  9 active torsions:
REMARK  status: ('A' for Active; 'I' for Inactive)
REMARK    1  A    between atoms: C_1  and  O_2
REMARK    2  A    between atoms: O_2  and  C_3
REMARK    3  A    between atoms: C_3  and  C_5
REMARK    4  A    between atoms: C_5  and  C_6
REMARK    5  A    between atoms: C_6  and  C_8
REMARK    6  A    between atoms: C_6  and  N_12
REMARK    7  A    between atoms: C_8  and  O_10
REMARK    8  A    between atoms: O_10  and  C_11
REMARK    9  A    between atoms: C_24  and  C_26
REMARK                            x       y       z     vdW  Elec       q    Type
REMARK                         _______ _______ _______ _____ _____    ______ ____
ROOT
ATOM      1  N   UNL     1      -5.438  -2.201   0.230  0.00  0.00    -0.286 N 
ATOM      2  C   UNL     1      -4.675  -2.007   1.324  0.00  0.00    +0.304 C 
ATOM      3  O   UNL     1      -3.486  -2.259   1.288  0.00  0.00    -0.253 OA
ATOM      4  N   UNL     1      -5.229  -1.536   2.458  0.00  0.00    -0.273 N 
ATOM      5  C   UNL     1      -4.397  -1.206   3.624  0.00  0.00    +0.116 C 
ATOM      6  C   UNL     1      -4.761  -2.141   4.784  0.00  0.00    +0.076 C 
ATOM      7  C   UNL     1      -6.263  -2.225   4.889  0.00  0.00    +0.066 A 
ATOM      8  C   UNL     1      -7.117  -1.873   3.904  0.00  0.00    +0.064 A 
ATOM      9  N   UNL     1      -8.377  -2.092   4.366  0.00  0.00    -0.346 N 
ATOM     10  H   UNL     1      -9.204  -1.935   3.883  0.00  0.00    +0.167 HD
ATOM     11  C   UNL     1      -8.259  -2.570   5.626  0.00  0.00    +0.197 A 
ATOM     12  N   UNL     1      -6.989  -2.645   5.930  0.00  0.00    -0.240 NA
ATOM     13  C   UNL     1      -6.686  -1.331   2.559  0.00  0.00    +0.158 C 
ATOM     14  H   UNL     1      -6.398  -2.069   0.280  0.00  0.00    +0.151 HD
ENDROOT
BRANCH  13  15
ATOM     15  C   UNL     1      -7.006   0.139   2.468  0.00  0.00    -0.003 A 
ATOM     16  C   UNL     1      -6.002   1.076   2.631  0.00  0.00    +0.009 A 
ATOM     17  C   UNL     1      -6.294   2.424   2.548  0.00  0.00    +0.020 A 
ATOM     18  C   UNL     1      -7.591   2.837   2.300  0.00  0.00    +0.042 A 
ATOM     19  C   UNL     1      -8.596   1.900   2.136  0.00  0.00    +0.040 A 
ATOM     20  C   UNL     1      -8.302   0.550   2.215  0.00  0.00    +0.048 A 
ATOM     21 CL   UNL     1      -9.561  -0.626   2.003  0.00  0.00    -0.083 Cl
ATOM     22 CL   UNL     1      -7.958   4.530   2.195  0.00  0.00    -0.083 Cl
ENDBRANCH  13  15
BRANCH   1  23
ATOM     23  C   UNL     1      -4.818  -2.609  -1.033  0.00  0.00    +0.194 C 
BRANCH  23  24
ATOM     24  C   UNL     1      -4.327  -1.389  -1.769  0.00  0.00    +0.328 C 
ATOM     25  O   UNL     1      -4.479  -0.291  -1.287  0.00  0.00    -0.249 OA
BRANCH  24  26
ATOM     26  O   UNL     1      -3.721  -1.522  -2.959  0.00  0.00    -0.467 OA
ATOM     27  C   UNL     1      -3.280  -0.323  -3.600  0.00  0.00    +0.280 C 
ENDBRANCH  24  26
ENDBRANCH  23  24
BRANCH  23  28
ATOM     28  C   UNL     1      -5.849  -3.343  -1.893  0.00  0.00    +0.154 C 
BRANCH  28  29
ATOM     29  C   UNL     1      -6.249  -4.626  -1.212  0.00  0.00    +0.309 C 
ATOM     30  O   UNL     1      -5.760  -4.923  -0.148  0.00  0.00    -0.251 OA
BRANCH  29  32
ATOM     31  C   UNL     1      -7.481  -6.639  -1.087  0.00  0.00    +0.280 C 
ATOM     32  O   UNL     1      -7.149  -5.439  -1.788  0.00  0.00    -0.468 OA
ENDBRANCH  29  32
ENDBRANCH  28  29
ENDBRANCH  23  28
ENDBRANCH   1  23
TORSDOF 7
