REMARK  Name = ZINC09777860
REMARK  7 active torsions:
REMARK  status: ('A' for Active; 'I' for Inactive)
REMARK    1  A    between atoms: C_1  and  C_2
REMARK    2  A    between atoms: C_2  and  C_26
REMARK    3  A    between atoms: N_5  and  C_9
REMARK    4  A    between atoms: C_9  and  N_62
REMARK    5  A    between atoms: N_12  and  S_15
REMARK    6  A    between atoms: S_15  and  C_18
REMARK    7  A    between atoms: C_21  and  C_24
REMARK                            x       y       z     vdW  Elec       q    Type
REMARK                         _______ _______ _______ _____ _____    ______ ____
ROOT
ATOM      1  C   UNL     1      -4.968   1.299  -2.749  0.00  0.00    +0.043 C 
ENDROOT
BRANCH   1   6
ATOM      2  C   UNL     1      -2.958   0.677   1.452  0.00  0.00    +0.047 C 
ATOM      3  C   UNL     1      -2.513   0.975   0.019  0.00  0.00    +0.135 C 
ATOM      4  C   UNL     1      -3.591   1.737  -0.726  0.00  0.00    +0.249 C 
ATOM      5  O   UNL     1      -4.040   2.829  -0.450  0.00  0.00    -0.272 OA
ATOM      6  N   UNL     1      -3.946   0.948  -1.760  0.00  0.00    -0.241 N 
ATOM      7  C   UNL     1      -3.250  -0.194  -1.771  0.00  0.00    +0.308 C 
ATOM      8  O   UNL     1      -3.394  -1.065  -2.606  0.00  0.00    -0.252 OA
ATOM      9  N   UNL     1      -2.372  -0.274  -0.750  0.00  0.00    -0.281 N 
ATOM     10  H   UNL     1      -1.766  -1.006  -0.559  0.00  0.00    +0.152 HD
BRANCH   3  11
ATOM     11  C   UNL     1      -1.219   1.748   0.017  0.00  0.00    -0.015 A 
ATOM     12  C   UNL     1      -1.239   3.130   0.030  0.00  0.00    +0.006 A 
ATOM     13  C   UNL     1      -0.052   3.836   0.022  0.00  0.00    +0.004 A 
ATOM     14  C   UNL     1       1.159   3.164   0.008  0.00  0.00    -0.044 A 
ATOM     15  C   UNL     1       1.179   1.782   0.000  0.00  0.00    -0.044 A 
ATOM     16  C   UNL     1      -0.013   1.076   0.008  0.00  0.00    +0.010 A 
ATOM     17  C   UNL     1       2.610   1.291  -0.016  0.00  0.00    +0.036 C 
ATOM     18  C   UNL     1       3.450   2.509  -0.459  0.00  0.00    +0.009 C 
ATOM     19  C   UNL     1       2.576   3.696  -0.004  0.00  0.00    +0.036 C 
ENDBRANCH   3  11
ENDBRANCH   1   6
BRANCH   1  25
ATOM     20  C   UNL     1      -4.127   3.429  -3.537  0.00  0.00    -0.059 C 
ATOM     21  C   UNL     1      -3.312   4.094  -4.651  0.00  0.00    +0.091 C 
ATOM     22  N   UNL     1      -3.989   3.851  -5.934  0.00  0.00    -0.180 NA
ATOM     23  C   UNL     1      -4.358   2.468  -6.275  0.00  0.00    +0.091 C 
ATOM     24  C   UNL     1      -5.133   1.867  -5.097  0.00  0.00    -0.059 C 
ATOM     25  N   UNL     1      -4.313   2.000  -3.873  0.00  0.00    +0.392 N 
ATOM     26  H   UNL     1      -3.393   1.575  -4.040  0.00  0.00    -0.079 HD
BRANCH  22  27
ATOM     27  S   UNL     1      -4.325   5.100  -6.968  0.00  0.00    +0.061 S 
ATOM     28  O   UNL     1      -3.402   6.137  -6.665  0.00  0.00    -0.153 OA
ATOM     29  O   UNL     1      -4.434   4.534  -8.267  0.00  0.00    -0.153 OA
BRANCH  27  30
ATOM     30  C   UNL     1      -5.924   5.708  -6.548  0.00  0.00    +0.106 A 
ATOM     31  C   UNL     1      -7.045   5.178  -7.159  0.00  0.00    +0.030 A 
ATOM     32  C   UNL     1      -8.301   5.646  -6.831  0.00  0.00    +0.021 A 
ATOM     33  C   UNL     1      -8.437   6.666  -5.887  0.00  0.00    +0.052 A 
ATOM     34  C   UNL     1      -7.300   7.201  -5.277  0.00  0.00    +0.021 A 
ATOM     35  C   UNL     1      -6.051   6.719  -5.611  0.00  0.00    +0.030 A 
BRANCH  33  36
ATOM     36  C   UNL     1      -9.736   7.161  -5.545  0.00  0.00    +0.099 C 
ATOM     37  N   UNL     1     -10.767   7.553  -5.273  0.00  0.00    -0.191 NA
ENDBRANCH  33  36
ENDBRANCH  27  30
ENDBRANCH  22  27
ENDBRANCH   1  25
TORSDOF 6
