REMARK  Name = ZINC54200659
REMARK  10 active torsions:
REMARK  status: ('A' for Active; 'I' for Inactive)
REMARK    1  A    between atoms: C_1  and  O_2
REMARK    2  A    between atoms: O_2  and  C_3
REMARK    3  A    between atoms: C_6  and  N_32
REMARK    4  A    between atoms: C_8  and  N_9
REMARK    5  A    between atoms: C_10  and  C_12
REMARK    6  A    between atoms: C_12  and  C_14
REMARK    7  A    between atoms: C_12  and  N_21
REMARK    8  A    between atoms: C_14  and  C_15
REMARK    9  A    between atoms: N_21  and  S_22
REMARK   10  A    between atoms: S_22  and  C_25
REMARK                            x       y       z     vdW  Elec       q    Type
REMARK                         _______ _______ _______ _____ _____    ______ ____
ROOT
ATOM      1  C   UNL     1       1.166  -4.944   0.172  0.00  0.00    +0.167 C 
ENDROOT
BRANCH   1   3
ATOM      2  N   UNL     1       0.181  -2.688   0.410  0.00  0.00    -0.281 N 
ATOM      3  C   UNL     1      -0.015  -4.018   0.311  0.00  0.00    +0.236 C 
ATOM      4  O   UNL     1      -1.140  -4.469   0.332  0.00  0.00    -0.274 OA
ATOM      5  H   UNL     1       1.072  -2.320   0.309  0.00  0.00    +0.155 HD
BRANCH   2  11
ATOM      6  C   UNL     1      -0.805  -0.477   0.379  0.00  0.00    +0.141 A 
ATOM      7  C   UNL     1      -1.883   0.358   0.624  0.00  0.00    +0.050 A 
ATOM      8  C   UNL     1      -3.051  -0.157   1.152  0.00  0.00    +0.036 A 
ATOM      9  C   UNL     1      -3.149  -1.507   1.438  0.00  0.00    +0.128 A 
ATOM     10  C   UNL     1      -2.078  -2.347   1.196  0.00  0.00    +0.059 A 
ATOM     11  C   UNL     1      -0.904  -1.837   0.661  0.00  0.00    +0.078 A 
BRANCH   9  12
ATOM     12  N   UNL     1      -4.403  -2.053   2.004  0.00  0.00    +0.056 N 
ATOM     13  O   UNL     1      -5.340  -1.319   2.216  0.00  0.00    -0.126 OA
ATOM     14  O   UNL     1      -4.489  -3.232   2.254  0.00  0.00    -0.126 OA
ENDBRANCH   9  12
BRANCH   6  16
ATOM     15  C   UNL     1       0.376   1.433  -0.405  0.00  0.00    +0.277 C 
ATOM     16  O   UNL     1       0.345   0.029  -0.141  0.00  0.00    -0.493 OA
ENDBRANCH   6  16
ENDBRANCH   2  11
ENDBRANCH   1   3
BRANCH   1  17
ATOM     17  N   UNL     1       0.693  -6.328   0.083  0.00  0.00    -0.178 NA
ATOM     18  H   UNL     1       0.495  -6.827   0.891  0.00  0.00    +0.149 HD
BRANCH  17  19
ATOM     19  S   UNL     1       0.494  -7.041  -1.399  0.00  0.00    +0.059 S 
ATOM     20  O   UNL     1       0.077  -8.377  -1.154  0.00  0.00    -0.153 OA
ATOM     21  O   UNL     1      -0.269  -6.137  -2.186  0.00  0.00    -0.153 OA
BRANCH  19  22
ATOM     22  C   UNL     1       2.087  -7.140  -2.147  0.00  0.00    +0.105 A 
ATOM     23  C   UNL     1       2.583  -6.064  -2.859  0.00  0.00    +0.030 A 
ATOM     24  C   UNL     1       3.832  -6.141  -3.446  0.00  0.00    +0.022 A 
ATOM     25  C   UNL     1       4.585  -7.295  -3.320  0.00  0.00    +0.041 A 
ATOM     26  C   UNL     1       4.088  -8.371  -2.607  0.00  0.00    +0.022 A 
ATOM     27  C   UNL     1       2.841  -8.291  -2.016  0.00  0.00    +0.030 A 
ATOM     28 CL   UNL     1       6.154  -7.393  -4.058  0.00  0.00    -0.084 Cl
ENDBRANCH  19  22
ENDBRANCH  17  19
ENDBRANCH   1  17
BRANCH   1  29
ATOM     29  C   UNL     1       2.077  -4.795   1.392  0.00  0.00    +0.065 C 
BRANCH  29  30
ATOM     30  C   UNL     1       3.322  -5.621   1.194  0.00  0.00    -0.045 A 
ATOM     31  C   UNL     1       3.332  -6.955   1.556  0.00  0.00    +0.004 A 
ATOM     32  C   UNL     1       4.473  -7.712   1.374  0.00  0.00    +0.000 A 
ATOM     33  C   UNL     1       5.606  -7.136   0.829  0.00  0.00    +0.000 A 
ATOM     34  C   UNL     1       5.596  -5.802   0.465  0.00  0.00    +0.000 A 
ATOM     35  C   UNL     1       4.452  -5.046   0.644  0.00  0.00    +0.004 A 
ENDBRANCH  29  30
ENDBRANCH   1  29
TORSDOF 9
