REMARK  Name = ZINC07243292
REMARK  9 active torsions:
REMARK  status: ('A' for Active; 'I' for Inactive)
REMARK    1  A    between atoms: C_1  and  C_2
REMARK    2  A    between atoms: C_2  and  C_3
REMARK    3  A    between atoms: C_2  and  N_4
REMARK    4  A    between atoms: C_12  and  S_13
REMARK    5  A    between atoms: S_13  and  C_14
REMARK    6  A    between atoms: C_14  and  C_15
REMARK    7  A    between atoms: N_17  and  C_18
REMARK    8  A    between atoms: C_18  and  C_20
REMARK    9  A    between atoms: C_18  and  C_26
REMARK                            x       y       z     vdW  Elec       q    Type
REMARK                         _______ _______ _______ _____ _____    ______ ____
ROOT
ATOM      1  C   UNL     1      -0.718   1.572   1.248  0.00  0.00    +0.224 C 
ATOM      2  O   UNL     1      -1.714   2.256   1.150  0.00  0.00    -0.275 OA
ATOM      3  N   UNL     1      -0.242   1.246   2.466  0.00  0.00    -0.303 N 
ATOM      4  H   UNL     1       0.555   0.699   2.544  0.00  0.00    +0.150 HD
ENDROOT
BRANCH   1   5
ATOM      5  C   UNL     1      -0.013   1.086   0.008  0.00  0.00    +0.173 C 
BRANCH   5   6
ATOM      6  S   UNL     1      -0.888   1.685  -1.458  0.00  0.00    -0.078 S 
BRANCH   6  15
ATOM      7  N   UNL     1      -0.093   1.129  -4.066  0.00  0.00    -0.316 N 
ATOM      8  C   UNL     1       0.918   0.441  -4.717  0.00  0.00    +0.070 A 
ATOM      9  C   UNL     1       1.229   0.226  -6.051  0.00  0.00    +0.028 A 
ATOM     10  C   UNL     1       2.332  -0.532  -6.385  0.00  0.00    +0.002 A 
ATOM     11  C   UNL     1       3.133  -1.082  -5.395  0.00  0.00    +0.002 A 
ATOM     12  C   UNL     1       2.839  -0.878  -4.065  0.00  0.00    +0.030 A 
ATOM     13  C   UNL     1       1.725  -0.113  -3.710  0.00  0.00    +0.090 A 
ATOM     14  N   UNL     1       1.189   0.257  -2.518  0.00  0.00    -0.222 NA
ATOM     15  C   UNL     1       0.122   0.990  -2.724  0.00  0.00    +0.171 A 
BRANCH   7  17
ATOM     16  C   UNL     1      -2.526   1.276  -4.261  0.00  0.00    +0.030 C 
ATOM     17  C   UNL     1      -1.186   1.872  -4.698  0.00  0.00    +0.084 C 
ATOM     18  C   UNL     1      -1.119   3.340  -4.273  0.00  0.00    +0.030 C 
ENDBRANCH   7  17
ENDBRANCH   6  15
ENDBRANCH   5   6
ENDBRANCH   1   5
BRANCH   3  19
ATOM     19  C   UNL     1      -0.927   1.718   3.671  0.00  0.00    +0.140 C 
BRANCH  19  20
ATOM     20  C   UNL     1       0.051   1.776   4.816  0.00  0.00    -0.022 A 
ATOM     21  C   UNL     1       0.988   0.772   4.976  0.00  0.00    +0.006 A 
ATOM     22  C   UNL     1       1.888   0.827   6.023  0.00  0.00    +0.000 A 
ATOM     23  C   UNL     1       1.846   1.882   6.916  0.00  0.00    +0.000 A 
ATOM     24  C   UNL     1       0.906   2.883   6.759  0.00  0.00    +0.000 A 
ATOM     25  C   UNL     1       0.008   2.830   5.709  0.00  0.00    +0.006 A 
ENDBRANCH  19  20
BRANCH  19  26
ATOM     26  C   UNL     1      -2.048   0.771   4.015  0.00  0.00    +0.014 A 
ATOM     27  C   UNL     1      -3.293   1.052   4.471  0.00  0.00    +0.013 A 
ATOM     28  C   UNL     1      -4.167   0.010   4.719  0.00  0.00    +0.008 A 
ATOM     29  C   UNL     1      -3.749  -1.262   4.509  0.00  0.00    +0.045 A 
ATOM     30  S   UNL     1      -2.077  -1.012   3.936  0.00  0.00    -0.099 S 
ENDBRANCH  19  26
ENDBRANCH   3  19
TORSDOF 7
