REMARK  Name = ZINC05033827
REMARK  5 active torsions:
REMARK  status: ('A' for Active; 'I' for Inactive)
REMARK    1  A    between atoms: C_1  and  C_2
REMARK    2  A    between atoms: C_5  and  C_29
REMARK    3  A    between atoms: C_16  and  C_24
REMARK    4  A    between atoms: C_21  and  O_23
REMARK    5  A    between atoms: N_27  and  N_28
REMARK                            x       y       z     vdW  Elec       q    Type
REMARK                         _______ _______ _______ _____ _____    ______ ____
ROOT
ATOM      1  C   UNL     1      -2.609  -1.211   2.740  0.00  0.00    +0.014 C 
ATOM      2  C   UNL     1      -2.220  -0.266   1.599  0.00  0.00    +0.032 C 
ATOM      3  C   UNL     1      -1.164   0.698   2.082  0.00  0.00    +0.016 C 
ATOM      4  C   UNL     1      -1.167   2.071   1.447  0.00  0.00    -0.025 C 
ATOM      5  C   UNL     1      -1.949   2.270   0.188  0.00  0.00    +0.001 C 
ATOM      6  C   UNL     1      -1.204   2.173  -1.129  0.00  0.00    +0.005 C 
ATOM      7  C   UNL     1       0.211   2.743  -1.097  0.00  0.00    +0.004 C 
ATOM      8  C   UNL     1       0.930   2.066   0.068  0.00  0.00    -0.004 C 
ATOM      9  C   UNL     1       0.274   2.581   1.352  0.00  0.00    -0.001 C 
ATOM     10  C   UNL     1       1.122   2.187   2.550  0.00  0.00    +0.005 C 
ATOM     11  C   UNL     1       2.474   2.915   2.540  0.00  0.00    +0.010 C 
ATOM     12  C   UNL     1       2.862   3.328   1.134  0.00  0.00    -0.003 C 
ATOM     13  C   UNL     1       2.405   2.262   0.115  0.00  0.00    +0.001 C 
ATOM     14  C   UNL     1       3.136   2.677  -1.162  0.00  0.00    +0.007 C 
ATOM     15  C   UNL     1       4.529   3.124  -0.639  0.00  0.00    +0.032 C 
ATOM     16  C   UNL     1       4.397   3.277   0.895  0.00  0.00    +0.121 C 
ATOM     17  C   UNL     1       2.379   4.741   0.793  0.00  0.00    +0.014 C 
ATOM     18  C   UNL     1      -3.254   1.508   0.056  0.00  0.00    +0.056 C 
ATOM     19  C   UNL     1      -3.436   0.502   1.146  0.00  0.00    +0.039 C 
ATOM     20  N   UNL     1      -4.584   0.300   1.675  0.00  0.00    -0.199 NA
ATOM     21  C   UNL     1      -1.836   2.993   2.472  0.00  0.00    +0.012 C 
ENDROOT
BRANCH  20  22
ATOM     22  N   UNL     1      -5.718   0.935   1.152  0.00  0.00    -0.283 N 
ATOM     23  H   UNL     1      -5.650   1.451   0.334  0.00  0.00    +0.164 HD
ATOM     24  H   UNL     1      -6.570   0.858   1.608  0.00  0.00    +0.164 HD
ENDBRANCH  20  22
BRANCH  16  25
ATOM     25  O   UNL     1       4.965   2.149   1.556  0.00  0.00    -0.391 OA
ATOM     26  H   UNL     1       5.922   2.067   1.441  0.00  0.00    +0.210 HD
ENDBRANCH  16  25
TORSDOF 2
