REMARK  Name = ZINC44266320
REMARK  3 active torsions:
REMARK  status: ('A' for Active; 'I' for Inactive)
REMARK    1  A    between atoms: C_5  and  O_7
REMARK    2  A    between atoms: O_7  and  S_8
REMARK    3  A    between atoms: S_8  and  C_11
REMARK                            x       y       z     vdW  Elec       q    Type
REMARK                         _______ _______ _______ _____ _____    ______ ____
ROOT
ATOM      1  S   UNL     1       1.258  -2.666   1.366  0.00  0.00    +0.151 S 
ATOM      2  O   UNL     1       1.487  -4.056   1.179  0.00  0.00    -0.131 OA
ATOM      3  O   UNL     1       2.107  -1.854   2.164  0.00  0.00    -0.131 OA
ENDROOT
BRANCH   1   4
ATOM      4  C   UNL     1      -0.364  -2.509   2.036  0.00  0.00    +0.129 A 
ATOM      5  C   UNL     1      -0.700  -1.380   2.770  0.00  0.00    +0.034 A 
ATOM      6  C   UNL     1      -1.964  -1.237   3.303  0.00  0.00    +0.049 A 
ATOM      7  C   UNL     1      -2.913  -2.231   3.105  0.00  0.00    +0.139 A 
ATOM      8  C   UNL     1      -2.570  -3.374   2.361  0.00  0.00    +0.020 A 
ATOM      9  C   UNL     1      -1.284  -3.497   1.825  0.00  0.00    +0.042 A 
ATOM     10  C   UNL     1      -3.578  -4.419   2.158  0.00  0.00    +0.018 A 
ATOM     11  C   UNL     1      -4.808  -4.237   2.700  0.00  0.00    +0.092 A 
ATOM     12  C   UNL     1      -5.084  -3.064   3.436  0.00  0.00    +0.337 A 
ATOM     13  O   UNL     1      -6.192  -2.912   3.917  0.00  0.00    -0.245 OA
ATOM     14  O   UNL     1      -4.156  -2.112   3.618  0.00  0.00    -0.422 OA
ENDBRANCH   1   4
BRANCH   1  15
ATOM     15  O   UNL     1       1.234  -2.039  -0.021  0.00  0.00    -0.341 OA
BRANCH  15  20
ATOM     16  C   UNL     1      -0.017   1.377   0.010  0.00  0.00    +0.004 A 
ATOM     17  C   UNL     1       1.170   2.087   0.002  0.00  0.00    +0.002 A 
ATOM     18  C   UNL     1       2.379   1.416  -0.013  0.00  0.00    +0.024 A 
ATOM     19  C   UNL     1       2.404   0.034  -0.021  0.00  0.00    +0.085 A 
ATOM     20  C   UNL     1       1.213  -0.680  -0.013  0.00  0.00    +0.175 A 
ATOM     21  C   UNL     1       0.002  -0.004   0.002  0.00  0.00    +0.050 A 
ATOM     22 CL   UNL     1       3.922  -0.809  -0.041  0.00  0.00    -0.080 Cl
ENDBRANCH  15  20
ENDBRANCH   1  15
TORSDOF 3
