REMARK  Name = ZINC08430489
REMARK  4 active torsions:
REMARK  status: ('A' for Active; 'I' for Inactive)
REMARK    1  A    between atoms: C_1  and  C_2
REMARK    2  A    between atoms: C_5  and  C_8
REMARK    3  A    between atoms: C_13  and  C_23
REMARK    4  A    between atoms: C_29  and  C_34
REMARK                            x       y       z     vdW  Elec       q    Type
REMARK                         _______ _______ _______ _____ _____    ______ ____
ROOT
ATOM      1  C   UNL     1      -5.291  -0.178  -1.526  0.00  0.00    +0.032 C 
ATOM      2  C   UNL     1      -3.825  -0.259  -1.104  0.00  0.00    +0.059 C 
ATOM      3  C   UNL     1      -3.301   1.132  -0.789  0.00  0.00    +0.017 C 
ATOM      4  C   UNL     1      -3.760   2.201  -1.462  0.00  0.00    +0.037 C 
ATOM      5  C   UNL     1      -3.309   3.629  -1.272  0.00  0.00    +0.143 C 
ATOM      6  N   UNL     1      -2.496   3.851  -0.085  0.00  0.00    -0.331 N 
ATOM      7  C   UNL     1      -1.237   3.265   0.037  0.00  0.00    +0.049 A 
ATOM      8  C   UNL     1      -0.080   4.026   0.043  0.00  0.00    +0.025 A 
ATOM      9  C   UNL     1       1.150   3.393   0.080  0.00  0.00    +0.002 A 
ATOM     10  C   UNL     1       1.225   2.012   0.111  0.00  0.00    +0.002 A 
ATOM     11  C   UNL     1       0.070   1.249   0.121  0.00  0.00    +0.025 A 
ATOM     12  C   UNL     1      -1.161   1.881   0.096  0.00  0.00    +0.052 A 
ATOM     13  N   UNL     1      -2.357   1.179   0.185  0.00  0.00    -0.316 N 
ATOM     14  C   UNL     1      -4.763   2.044  -2.448  0.00  0.00    +0.163 C 
ATOM     15  O   UNL     1      -5.145   3.025  -3.056  0.00  0.00    -0.292 OA
ATOM     16  C   UNL     1      -5.370   0.712  -2.772  0.00  0.00    +0.088 C 
ATOM     17  H   UNL     1      -2.829   4.418   0.629  0.00  0.00    +0.147 HD
ATOM     18  H   UNL     1      -2.530   0.687   1.002  0.00  0.00    +0.152 HD
ENDROOT
BRANCH   5  19
ATOM     19  C   UNL     1      -2.518   4.046  -2.485  0.00  0.00    +0.059 A 
ATOM     20  C   UNL     1      -2.032   3.116  -3.328  0.00  0.00    +0.205 A 
ATOM     21  O   UNL     1      -1.324   3.426  -4.419  0.00  0.00    -0.462 OA
ATOM     22  C   UNL     1      -1.043   4.700  -4.761  0.00  0.00    +0.138 A 
ATOM     23  C   UNL     1      -0.305   4.989  -5.902  0.00  0.00    +0.047 A 
ATOM     24  C   UNL     1      -0.031   6.300  -6.230  0.00  0.00    +0.007 A 
ATOM     25  C   UNL     1      -0.484   7.340  -5.431  0.00  0.00    -0.050 A 
ATOM     26  C   UNL     1      -1.217   7.075  -4.295  0.00  0.00    +0.018 A 
ATOM     27  C   UNL     1      -1.501   5.754  -3.953  0.00  0.00    +0.065 A 
ATOM     28  C   UNL     1      -2.287   5.422  -2.750  0.00  0.00    +0.198 A 
ATOM     29  O   UNL     1      -2.717   6.291  -2.011  0.00  0.00    -0.287 OA
ATOM     30  C   UNL     1      -0.172   8.765  -5.808  0.00  0.00    +0.044 C 
ENDBRANCH   5  19
BRANCH   1  35
ATOM     31  C   UNL     1      -7.267  -5.466  -2.761  0.00  0.00    +0.044 C 
ATOM     32  C   UNL     1      -6.752  -4.087  -2.440  0.00  0.00    -0.050 A 
ATOM     33  C   UNL     1      -7.343  -3.346  -1.433  0.00  0.00    +0.003 A 
ATOM     34  C   UNL     1      -6.870  -2.081  -1.138  0.00  0.00    +0.004 A 
ATOM     35  C   UNL     1      -5.807  -1.557  -1.848  0.00  0.00    -0.043 A 
ATOM     36  C   UNL     1      -5.219  -2.296  -2.858  0.00  0.00    +0.004 A 
ATOM     37  C   UNL     1      -5.689  -3.562  -3.151  0.00  0.00    +0.003 A 
ENDBRANCH   1  35
TORSDOF 2
