REMARK  Name = ZINC02413535
REMARK  5 active torsions:
REMARK  status: ('A' for Active; 'I' for Inactive)
REMARK    1  A    between atoms: C_1  and  C_2
REMARK    2  A    between atoms: C_16  and  C_18
REMARK    3  A    between atoms: C_21  and  O_24
REMARK    4  A    between atoms: O_24  and  C_25
REMARK    5  A    between atoms: C_25  and  C_26
REMARK                            x       y       z     vdW  Elec       q    Type
REMARK                         _______ _______ _______ _____ _____    ______ ____
ROOT
ATOM      1  C   UNL     1       0.037  14.407   0.007  0.00  0.00    +0.044 C 
ATOM      2  C   UNL     1      -0.453  12.983   0.055  0.00  0.00    -0.050 A 
ATOM      3  C   UNL     1      -1.810  12.724   0.186  0.00  0.00    +0.007 A 
ATOM      4  C   UNL     1      -2.280  11.429   0.232  0.00  0.00    +0.047 A 
ATOM      5  C   UNL     1      -1.388  10.364   0.147  0.00  0.00    +0.139 A 
ATOM      6  C   UNL     1      -0.015  10.637   0.014  0.00  0.00    +0.065 A 
ATOM      7  C   UNL     1       0.442  11.953  -0.032  0.00  0.00    +0.018 A 
ATOM      8  C   UNL     1       0.915   9.494  -0.076  0.00  0.00    +0.199 A 
ATOM      9  O   UNL     1       2.117   9.655  -0.192  0.00  0.00    -0.287 OA
ATOM     10  C   UNL     1       0.320   8.156  -0.018  0.00  0.00    +0.072 A 
ATOM     11  C   UNL     1      -1.023   8.019   0.112  0.00  0.00    +0.199 A 
ATOM     12  O   UNL     1      -1.831   9.095   0.191  0.00  0.00    -0.450 OA
ATOM     13  C   UNL     1      -1.344   6.571   0.137  0.00  0.00    +0.288 C 
ATOM     14  O   UNL     1      -2.464   6.109   0.239  0.00  0.00    -0.266 OA
ATOM     15  N   UNL     1      -0.219   5.843   0.034  0.00  0.00    -0.238 N 
ATOM     16  C   UNL     1       0.912   6.772  -0.075  0.00  0.00    +0.151 C 
ATOM     17  C   UNL     1      -0.141   4.452   0.026  0.00  0.00    +0.129 A 
ATOM     18  C   UNL     1       1.104   3.832   0.012  0.00  0.00    +0.045 A 
ATOM     19  C   UNL     1       1.168   2.450   0.004  0.00  0.00    +0.025 A 
ATOM     20  C   UNL     1      -0.021   1.732   0.012  0.00  0.00    +0.059 A 
ATOM     21  C   UNL     1      -1.223   2.414   0.021  0.00  0.00    +0.132 A 
ATOM     22  N   UNL     1      -1.252   3.733   0.034  0.00  0.00    -0.238 NA
ATOM     23 CL   UNL     1       0.002  -0.004   0.002  0.00  0.00    -0.082 Cl
ENDROOT
BRANCH  16  24
ATOM     24  C   UNL     1       1.865   6.567   1.074  0.00  0.00    -0.022 A 
ATOM     25  C   UNL     1       1.374   6.305   2.340  0.00  0.00    +0.009 A 
ATOM     26  C   UNL     1       2.245   6.111   3.394  0.00  0.00    +0.046 A 
ATOM     27  C   UNL     1       3.614   6.191   3.184  0.00  0.00    +0.121 A 
ATOM     28  C   UNL     1       4.105   6.459   1.914  0.00  0.00    +0.046 A 
ATOM     29  C   UNL     1       3.229   6.646   0.862  0.00  0.00    +0.009 A 
BRANCH  27  30
ATOM     30  O   UNL     1       4.474   6.005   4.220  0.00  0.00    -0.483 OA
BRANCH  30  31
ATOM     31  C   UNL     1       3.898   5.733   5.500  0.00  0.00    +0.324 C 
BRANCH  31  32
ATOM     32  C   UNL     1       4.996   5.558   6.517  0.00  0.00    +0.248 C 
ATOM     33  O   UNL     1       6.157   5.657   6.180  0.00  0.00    -0.272 OA
ATOM     34  N   UNL     1       4.687   5.292   7.802  0.00  0.00    -0.327 N 
ATOM     35  H   UNL     1       5.488   5.164   8.545  0.00  0.00    +0.145 HD
ATOM     36  H   UNL     1       3.634   5.202   8.108  0.00  0.00    +0.145 HD
ENDBRANCH  31  32
ENDBRANCH  30  31
ENDBRANCH  27  30
ENDBRANCH  16  24
TORSDOF 4
