REMARK  Name = ZINC08443791
REMARK  4 active torsions:
REMARK  status: ('A' for Active; 'I' for Inactive)
REMARK    1  A    between atoms: C_1  and  C_2
REMARK    2  A    between atoms: C_3  and  C_12
REMARK    3  A    between atoms: C_16  and  N_33
REMARK    4  A    between atoms: C_21  and  N_62
REMARK                            x       y       z     vdW  Elec       q    Type
REMARK                         _______ _______ _______ _____ _____    ______ ____
ROOT
ATOM      1  C   UNL     1      -0.254   6.498  -0.039  0.00  0.00    +0.060 C 
ATOM      2  C   UNL     1       0.215   5.073  -0.181  0.00  0.00    +0.004 A 
ATOM      3  C   UNL     1       1.576   4.817  -0.211  0.00  0.00    +0.040 A 
ATOM      4  C   UNL     1       2.039   3.522  -0.330  0.00  0.00    +0.127 A 
ATOM      5  C   UNL     1       1.142   2.473  -0.418  0.00  0.00    +0.036 A 
ATOM      6  C   UNL     1      -0.214   2.722  -0.396  0.00  0.00    +0.048 A 
ATOM      7  C   UNL     1      -0.685   4.026  -0.274  0.00  0.00    +0.122 A 
ATOM      8  O   UNL     1      -2.026   4.232  -0.260  0.00  0.00    -0.503 OA
ATOM      9  C   UNL     1      -2.513   5.487   0.223  0.00  0.00    +0.087 C 
ATOM     10  C   UNL     1      -1.719   6.608  -0.460  0.00  0.00    +0.027 C 
ATOM     11  C   UNL     1      -1.846   6.460  -1.977  0.00  0.00    +0.006 C 
ATOM     12  C   UNL     1      -3.319   6.582  -2.375  0.00  0.00    +0.000 C 
ATOM     13  C   UNL     1      -4.132   5.490  -1.678  0.00  0.00    +0.002 C 
ATOM     14  C   UNL     1      -3.990   5.626  -0.168  0.00  0.00    +0.029 C 
ENDROOT
BRANCH   1  17
ATOM     15  C   UNL     1      -1.266   9.171   1.173  0.00  0.00    +0.063 C 
ATOM     16  C   UNL     1      -0.547   8.084   1.931  0.00  0.00    +0.018 A 
ATOM     17  C   UNL     1      -0.113   6.931   1.398  0.00  0.00    -0.012 A 
ATOM     18  C   UNL     1       0.519   6.171   2.479  0.00  0.00    +0.004 A 
ATOM     19  C   UNL     1       1.153   4.929   2.550  0.00  0.00    +0.010 A 
ATOM     20  C   UNL     1       1.659   4.493   3.742  0.00  0.00    +0.001 A 
ATOM     21  C   UNL     1       1.555   5.278   4.882  0.00  0.00    +0.002 A 
ATOM     22  C   UNL     1       0.939   6.510   4.833  0.00  0.00    +0.026 A 
ATOM     23  C   UNL     1       0.416   6.973   3.630  0.00  0.00    +0.047 A 
ATOM     24  N   UNL     1      -0.240   8.127   3.264  0.00  0.00    -0.358 N 
ATOM     25  H   UNL     1      -0.453   8.861   3.861  0.00  0.00    +0.166 HD
ENDBRANCH   1  17
BRANCH   9  31
ATOM     26  C   UNL     1      -2.705   4.291   2.321  0.00  0.00    -0.045 C 
ATOM     27  C   UNL     1      -2.463   4.399   3.829  0.00  0.00    +0.141 C 
ATOM     28  O   UNL     1      -3.217   5.496   4.351  0.00  0.00    -0.383 OA
ATOM     29  C   UNL     1      -2.895   6.753   3.750  0.00  0.00    +0.141 C 
ATOM     30  C   UNL     1      -3.142   6.670   2.241  0.00  0.00    -0.045 C 
ATOM     31  N   UNL     1      -2.323   5.571   1.687  0.00  0.00    +0.409 N 
ATOM     32  H   UNL     1      -1.333   5.760   1.885  0.00  0.00    -0.076 HD
ENDBRANCH   9  31
BRANCH   4  33
ATOM     33  N   UNL     1       3.495   3.256  -0.361  0.00  0.00    +0.056 N 
ATOM     34  O   UNL     1       3.903   2.113  -0.466  0.00  0.00    -0.126 OA
ATOM     35  O   UNL     1       4.285   4.180  -0.283  0.00  0.00    -0.126 OA
ENDBRANCH   4  33
TORSDOF 3
