REMARK  Name = ZINC03658195
REMARK  6 active torsions:
REMARK  status: ('A' for Active; 'I' for Inactive)
REMARK    1  A    between atoms: C_4  and  O_16
REMARK    2  A    between atoms: C_5  and  C_7
REMARK    3  A    between atoms: N_8  and  C_9
REMARK    4  A    between atoms: O_16  and  C_17
REMARK    5  A    between atoms: C_17  and  C_19
REMARK    6  A    between atoms: C_20  and  C_21
REMARK                            x       y       z     vdW  Elec       q    Type
REMARK                         _______ _______ _______ _____ _____    ______ ____
ROOT
ATOM      1  C   UNL     1       0.365   0.981  -1.987  0.00  0.00    +0.001 A 
ATOM      2  C   UNL     1       1.368   1.833  -1.554  0.00  0.00    +0.004 A 
ATOM      3  C   UNL     1       2.306   1.401  -0.636  0.00  0.00    +0.047 A 
ATOM      4  C   UNL     1       2.249   0.108  -0.140  0.00  0.00    +0.140 A 
ATOM      5  C   UNL     1       1.234  -0.759  -0.574  0.00  0.00    +0.035 A 
ATOM      6  C   UNL     1       0.292  -0.308  -1.504  0.00  0.00    +0.013 A 
ENDROOT
BRANCH   5   7
ATOM      7  C   UNL     1       1.163  -2.133  -0.055  0.00  0.00    +0.123 C 
ATOM      8  N   UNL     1       0.012  -2.738   0.033  0.00  0.00    -0.255 NA
BRANCH   8   9
ATOM      9  C   UNL     1      -1.145  -2.041  -0.185  0.00  0.00    +0.064 A 
ATOM     10  C   UNL     1      -1.435  -0.906   0.576  0.00  0.00    +0.029 A 
ATOM     11  C   UNL     1      -2.603  -0.208   0.351  0.00  0.00    +0.017 A 
ATOM     12  C   UNL     1      -3.487  -0.629  -0.628  0.00  0.00    +0.018 A 
ATOM     13  C   UNL     1      -3.207  -1.754  -1.386  0.00  0.00    +0.017 A 
ATOM     14  C   UNL     1      -2.039  -2.457  -1.175  0.00  0.00    +0.029 A 
ATOM     15 BR   UNL     1      -5.086   0.334  -0.930  0.00  0.00    -0.050 Br
ENDBRANCH   8   9
ENDBRANCH   5   7
BRANCH   4  16
ATOM     16  O   UNL     1       3.170  -0.317   0.762  0.00  0.00    -0.422 OA
BRANCH  16  17
ATOM     17  C   UNL     1       4.240  -0.997   0.301  0.00  0.00    +0.337 C 
ATOM     18  O   UNL     1       4.408  -1.128  -0.896  0.00  0.00    -0.245 OA
BRANCH  17  19
ATOM     19  C   UNL     1       5.199  -1.576   1.241  0.00  0.00    +0.092 C 
ATOM     20  C   UNL     1       6.322  -2.166   0.782  0.00  0.00    +0.015 C 
BRANCH  20  21
ATOM     21  C   UNL     1       7.231  -2.846   1.718  0.00  0.00    -0.025 A 
ATOM     22  C   UNL     1       6.890  -2.963   3.069  0.00  0.00    +0.009 A 
ATOM     23  C   UNL     1       7.747  -3.601   3.940  0.00  0.00    +0.016 A 
ATOM     24  C   UNL     1       8.944  -4.125   3.480  0.00  0.00    +0.018 A 
ATOM     25  C   UNL     1       9.289  -4.012   2.143  0.00  0.00    +0.016 A 
ATOM     26  C   UNL     1       8.439  -3.383   1.259  0.00  0.00    +0.009 A 
ATOM     27 BR   UNL     1      10.113  -4.998   4.683  0.00  0.00    -0.050 Br
ENDBRANCH  20  21
ENDBRANCH  17  19
ENDBRANCH  16  17
ENDBRANCH   4  16
TORSDOF 6
