REMARK  Name = ZINC59060765
REMARK  10 active torsions:
REMARK  status: ('A' for Active; 'I' for Inactive)
REMARK    1  A    between atoms: C_1  and  C_2
REMARK    2  A    between atoms: N_10  and  C_13
REMARK    3  A    between atoms: C_13  and  C_14
REMARK    4  A    between atoms: C_14  and  C_15
REMARK    5  A    between atoms: N_17  and  C_18
REMARK    6  A    between atoms: C_18  and  C_19
REMARK    7  A    between atoms: C_24  and  C_25
REMARK    8  A    between atoms: C_25  and  N_26
REMARK    9  A    between atoms: C_28  and  C_35
REMARK   10  A    between atoms: C_31  and  C_34
REMARK                            x       y       z     vdW  Elec       q    Type
REMARK                         _______ _______ _______ _____ _____    ______ ____
ROOT
ATOM      1  C   UNL     1      -0.997  -4.091   7.322  0.00  0.00    +0.215 C 
ATOM      2  O   UNL     1      -0.073  -4.589   7.930  0.00  0.00    -0.276 OA
ATOM      3  N   UNL     1      -2.249  -4.170   7.816  0.00  0.00    -0.311 N 
ATOM      4  H   UNL     1      -2.988  -3.772   7.329  0.00  0.00    +0.149 HD
ENDROOT
BRANCH   1   5
ATOM      5  C   UNL     1      -0.746  -3.384   6.016  0.00  0.00    +0.117 C 
BRANCH   5   6
ATOM      6  C   UNL     1       0.748  -3.438   5.686  0.00  0.00    +0.135 C 
BRANCH   6  16
ATOM      7  C   UNL     1       2.021   0.880   1.022  0.00  0.00    +0.046 C 
ATOM      8  C   UNL     1       1.720  -0.594   0.942  0.00  0.00    -0.024 A 
ATOM      9  C   UNL     1       1.691  -1.229  -0.280  0.00  0.00    +0.005 A 
ATOM     10  C   UNL     1       1.415  -2.587  -0.370  0.00  0.00    +0.001 A 
ATOM     11  C   UNL     1       1.164  -3.328   0.765  0.00  0.00    +0.015 A 
ATOM     12  C   UNL     1       1.189  -2.705   2.010  0.00  0.00    +0.065 A 
ATOM     13  C   UNL     1       1.474  -1.324   2.106  0.00  0.00    +0.081 A 
ATOM     14  N   UNL     1       1.498  -0.740   3.330  0.00  0.00    -0.237 NA
ATOM     15  C   UNL     1       1.269  -1.420   4.413  0.00  0.00    +0.202 A 
ATOM     16  N   UNL     1       0.992  -2.750   4.416  0.00  0.00    -0.298 N 
ATOM     17  C   UNL     1       0.929  -3.443   3.255  0.00  0.00    +0.262 A 
ATOM     18  O   UNL     1       0.680  -4.635   3.243  0.00  0.00    -0.267 OA
ENDBRANCH   6  16
ENDBRANCH   5   6
ENDBRANCH   1   5
BRANCH   3  19
ATOM     19  C   UNL     1      -2.494  -4.858   9.086  0.00  0.00    +0.139 C 
BRANCH  19  20
ATOM     20  C   UNL     1      -3.977  -4.927   9.342  0.00  0.00    -0.029 A 
ATOM     21  C   UNL     1      -4.579  -4.001  10.174  0.00  0.00    +0.005 A 
ATOM     22  C   UNL     1      -5.939  -4.064  10.409  0.00  0.00    +0.000 A 
ATOM     23  C   UNL     1      -6.699  -5.053   9.812  0.00  0.00    +0.000 A 
ATOM     24  C   UNL     1      -6.098  -5.978   8.979  0.00  0.00    +0.002 A 
ATOM     25  C   UNL     1      -4.737  -5.912   8.741  0.00  0.00    -0.059 A 
BRANCH  25  26
ATOM     26  C   UNL     1      -4.082  -6.918   7.829  0.00  0.00    -0.043 C 
BRANCH  26  27
ATOM     27  N   UNL     1      -3.935  -6.339   6.487  0.00  0.00    +0.383 N 
ATOM     28  C   UNL     1      -5.264  -6.111   5.906  0.00  0.00    -0.075 C 
ATOM     29  C   UNL     1      -5.118  -5.433   4.541  0.00  0.00    -0.031 C 
ATOM     30  C   UNL     1      -4.301  -6.337   3.613  0.00  0.00    +0.003 C 
ATOM     31  C   UNL     1      -2.946  -6.629   4.264  0.00  0.00    -0.031 C 
ATOM     32  C   UNL     1      -3.172  -7.262   5.639  0.00  0.00    -0.075 C 
ATOM     33  C   UNL     1      -2.152  -7.593   3.381  0.00  0.00    +0.005 C 
ATOM     34  C   UNL     1      -4.401  -4.092   4.711  0.00  0.00    +0.005 C 
ATOM     35  H   UNL     1      -3.444  -5.460   6.553  0.00  0.00    -0.081 HD
ENDBRANCH  26  27
ENDBRANCH  25  26
ENDBRANCH  19  20
ENDBRANCH   3  19
TORSDOF 7
