REMARK  Name = ZINC39328008
REMARK  15 active torsions:
REMARK  status: ('A' for Active; 'I' for Inactive)
REMARK    1  A    between atoms: C_1  and  C_2
REMARK    2  A    between atoms: C_2  and  N_3
REMARK    3  A    between atoms: C_9  and  C_37
REMARK    4  A    between atoms: C_10  and  S_12
REMARK    5  A    between atoms: S_12  and  C_13
REMARK    6  A    between atoms: C_13  and  C_14
REMARK    7  A    between atoms: C_15  and  C_33
REMARK    8  A    between atoms: C_16  and  C_24
REMARK    9  A    between atoms: C_18  and  C_22
REMARK   10  A    between atoms: C_19  and  N_21
REMARK   11  A    between atoms: C_27  and  C_30
REMARK   12  A    between atoms: C_30  and  C_31
REMARK   13  A    between atoms: C_30  and  C_32
REMARK   14  A    between atoms: C_33  and  O_35
REMARK   15  A    between atoms: O_35  and  C_36
REMARK                            x       y       z     vdW  Elec       q    Type
REMARK                         _______ _______ _______ _____ _____    ______ ____
ROOT
ATOM      1  C   UNL     1       4.250  -4.548  -7.722  0.00  0.00    +0.128 C 
ATOM      2  C   UNL     1       5.003  -5.638  -7.523  0.00  0.00    +0.088 C 
ATOM      3  C   UNL     1       5.779  -6.265  -8.648  0.00  0.00    +0.105 C 
ATOM      4  C   UNL     1       5.266  -5.760  -9.969  0.00  0.00    +0.098 C 
ATOM      5  C   UNL     1       4.489  -4.651 -10.034  0.00  0.00    +0.198 C 
ATOM      6  O   UNL     1       4.146  -3.968  -8.928  0.00  0.00    -0.444 OA
ENDROOT
BRANCH   3   7
ATOM      7  C   UNL     1       7.237  -5.908  -8.511  0.00  0.00    -0.034 A 
ATOM      8  C   UNL     1       7.628  -4.582  -8.525  0.00  0.00    +0.005 A 
ATOM      9  C   UNL     1       8.965  -4.254  -8.399  0.00  0.00    +0.004 A 
ATOM     10  C   UNL     1       9.911  -5.253  -8.258  0.00  0.00    -0.045 A 
ATOM     11  C   UNL     1       9.520  -6.578  -8.242  0.00  0.00    +0.004 A 
ATOM     12  C   UNL     1       8.182  -6.906  -8.364  0.00  0.00    +0.005 A 
BRANCH  10  13
ATOM     13  C   UNL     1      11.368  -4.896  -8.122  0.00  0.00    +0.013 C 
ATOM     14  C   UNL     1      11.900  -5.421  -6.787  0.00  0.00    +0.012 C 
ATOM     15  C   UNL     1      12.158  -5.528  -9.270  0.00  0.00    +0.012 C 
ENDBRANCH  10  13
ENDBRANCH   3   7
BRANCH   5  16
ATOM     16  N   UNL     1       4.039  -4.218 -11.256  0.00  0.00    -0.328 N 
ATOM     17  H   UNL     1       4.277  -4.704 -12.061  0.00  0.00    +0.145 HD
ATOM     18  H   UNL     1       3.482  -3.426 -11.315  0.00  0.00    +0.145 HD
ENDBRANCH   5  16
BRANCH   4  19
ATOM     19  C   UNL     1       5.602  -6.460 -11.173  0.00  0.00    +0.101 C 
ATOM     20  N   UNL     1       5.869  -7.014 -12.127  0.00  0.00    -0.191 NA
ENDBRANCH   4  19
BRANCH   2  21
ATOM     21  C   UNL     1       5.070  -6.210  -6.228  0.00  0.00    +0.339 C 
ATOM     22  O   UNL     1       4.411  -7.198  -5.965  0.00  0.00    -0.245 OA
BRANCH  21  23
ATOM     23  O   UNL     1       5.864  -5.658  -5.287  0.00  0.00    -0.465 OA
ATOM     24  C   UNL     1       5.883  -6.287  -4.004  0.00  0.00    +0.280 C 
ENDBRANCH  21  23
ENDBRANCH   2  21
BRANCH   1  25
ATOM     25  C   UNL     1       3.493  -3.959  -6.560  0.00  0.00    +0.150 C 
BRANCH  25  26
ATOM     26  S   UNL     1       4.331  -2.454  -5.992  0.00  0.00    -0.097 S 
BRANCH  26  34
ATOM     27  N   UNL     1      -0.404  -1.259  -1.469  0.00  0.00    -0.298 NA
ATOM     28  C   UNL     1      -0.248  -2.717  -1.583  0.00  0.00    +0.091 C 
ATOM     29  C   UNL     1       0.269  -3.043  -2.985  0.00  0.00    +0.071 C 
ATOM     30  C   UNL     1       1.478  -2.196  -3.297  0.00  0.00    +0.048 A 
ATOM     31  C   UNL     1       1.769  -1.062  -2.567  0.00  0.00    -0.011 A 
ATOM     32  C   UNL     1       2.887  -0.308  -2.891  0.00  0.00    +0.028 A 
ATOM     33  C   UNL     1       3.694  -0.725  -3.954  0.00  0.00    +0.084 A 
ATOM     34  C   UNL     1       3.338  -1.894  -4.649  0.00  0.00    +0.115 A 
ATOM     35  N   UNL     1       2.259  -2.573  -4.299  0.00  0.00    -0.244 NA
ATOM     36  C   UNL     1       0.911  -0.611  -1.415  0.00  0.00    +0.121 C 
BRANCH  27  38
ATOM     37  C   UNL     1      -1.541   0.588  -0.332  0.00  0.00    +0.020 C 
ATOM     38  C   UNL     1      -1.214  -0.906  -0.295  0.00  0.00    +0.081 C 
ENDBRANCH  27  38
BRANCH  33  39
ATOM     39  C   UNL     1       4.858   0.022  -4.325  0.00  0.00    +0.102 C 
ATOM     40  N   UNL     1       5.782   0.615  -4.620  0.00  0.00    -0.191 NA
ENDBRANCH  33  39
ENDBRANCH  26  34
ENDBRANCH  25  26
ENDBRANCH   1  25
TORSDOF 11
