REMARK  Name = ZINC02136165
REMARK  5 active torsions:
REMARK  status: ('A' for Active; 'I' for Inactive)
REMARK    1  A    between atoms: C_1  and  C_2
REMARK    2  A    between atoms: N_4  and  C_5
REMARK    3  A    between atoms: C_5  and  N_7
REMARK    4  A    between atoms: N_7  and  C_8
REMARK    5  A    between atoms: C_9  and  C_17
REMARK                            x       y       z     vdW  Elec       q    Type
REMARK                         _______ _______ _______ _____ _____    ______ ____
ROOT
ATOM      1  C   UNL     1      -1.620   5.653  -1.275  0.00  0.00    +0.089 A 
ATOM      2  C   UNL     1      -1.270   5.178  -0.019  0.00  0.00    +0.084 A 
ATOM      3  C   UNL     1      -0.951   3.765   0.100  0.00  0.00    -0.018 A 
ATOM      4  C   UNL     1      -1.032   3.059  -1.049  0.00  0.00    -0.004 A 
ATOM      5  S   UNL     1      -1.523   4.240  -2.273  0.00  0.00    -0.077 S 
ATOM      6  C   UNL     1      -0.761   1.597  -1.232  0.00  0.00    +0.043 C 
ATOM      7  C   UNL     1      -0.013   1.086   0.008  0.00  0.00    +0.005 C 
ATOM      8  C   UNL     1      -0.735   1.583   1.264  0.00  0.00    +0.005 C 
ATOM      9  C   UNL     1      -0.551   3.094   1.407  0.00  0.00    +0.037 C 
ENDROOT
BRANCH   1  10
ATOM     10  N   UNL     1      -1.963   6.946  -1.642  0.00  0.00    -0.290 N 
ATOM     11  H   UNL     1      -1.978   7.651  -0.976  0.00  0.00    +0.154 HD
BRANCH  10  12
ATOM     12  C   UNL     1      -2.277   7.222  -2.923  0.00  0.00    +0.141 C 
ATOM     13  S   UNL     1      -2.251   5.976  -4.098  0.00  0.00    -0.018 S 
BRANCH  12  17
ATOM     14  C   UNL     1      -3.296  10.158  -4.960  0.00  0.00    +0.109 C 
ATOM     15  C   UNL     1      -2.923   8.754  -4.561  0.00  0.00    +0.215 C 
ATOM     16  O   UNL     1      -2.905   7.872  -5.393  0.00  0.00    -0.276 OA
ATOM     17  N   UNL     1      -2.610   8.478  -3.280  0.00  0.00    -0.268 N 
ATOM     18  H   UNL     1      -2.624   9.183  -2.615  0.00  0.00    +0.156 HD
ENDBRANCH  12  17
ENDBRANCH  10  12
ENDBRANCH   1  10
BRANCH   2  19
ATOM     19  C   UNL     1      -1.226   6.047   1.118  0.00  0.00    +0.102 C 
ATOM     20  N   UNL     1      -1.191   6.737   2.020  0.00  0.00    -0.191 NA
ENDBRANCH   2  19
TORSDOF 4
