REMARK  Name = ZINC20813818
REMARK  6 active torsions:
REMARK  status: ('A' for Active; 'I' for Inactive)
REMARK    1  A    between atoms: C_1  and  N_2
REMARK    2  A    between atoms: N_2  and  C_3
REMARK    3  A    between atoms: N_2  and  C_4
REMARK    4  A    between atoms: C_13  and  S_17
REMARK    5  A    between atoms: S_17  and  C_18
REMARK    6  A    between atoms: C_18  and  C_19
REMARK                            x       y       z     vdW  Elec       q    Type
REMARK                         _______ _______ _______ _____ _____    ______ ____
ROOT
ATOM      1  C   UNL     1       0.000  -0.692  -1.204  0.00  0.00    +0.043 A 
ATOM      2  C   UNL     1       1.193  -1.030  -1.826  0.00  0.00    +0.043 A 
ATOM      3  C   UNL     1       1.181  -1.715  -3.025  0.00  0.00    +0.114 A 
ATOM      4  N   UNL     1       0.037  -2.053  -3.592  0.00  0.00    -0.248 NA
ATOM      5  C   UNL     1      -1.122  -1.754  -3.041  0.00  0.00    +0.113 A 
ATOM      6  C   UNL     1      -1.224  -1.066  -1.821  0.00  0.00    +0.055 A 
ATOM      7  C   UNL     1      -2.591  -0.814  -1.333  0.00  0.00    +0.093 A 
ATOM      8  C   UNL     1      -3.628  -1.295  -2.143  0.00  0.00    +0.072 A 
ATOM      9  S   UNL     1      -2.807  -2.050  -3.519  0.00  0.00    -0.064 S 
ATOM     10  C   UNL     1      -4.956  -1.114  -1.783  0.00  0.00    +0.115 A 
ATOM     11  N   UNL     1      -5.221  -0.469  -0.646  0.00  0.00    -0.228 NA
ATOM     12  C   UNL     1      -4.232  -0.022   0.105  0.00  0.00    +0.223 A 
ATOM     13  N   UNL     1      -2.969  -0.175  -0.202  0.00  0.00    -0.234 NA
ENDROOT
BRANCH   1  15
ATOM     14  C   UNL     1      -0.018   1.461   0.010  0.00  0.00    +0.129 C 
ATOM     15  N   UNL     1       0.002  -0.004   0.002  0.00  0.00    -0.335 N 
ATOM     16  C   UNL     1       0.024  -0.743   1.267  0.00  0.00    +0.129 C 
ENDBRANCH   1  15
BRANCH  10  17
ATOM     17  S   UNL     1      -6.259  -1.719  -2.804  0.00  0.00    -0.100 S 
BRANCH  17  18
ATOM     18  C   UNL     1      -7.768  -1.241  -1.918  0.00  0.00    +0.111 C 
BRANCH  18  19
ATOM     19  C   UNL     1      -8.974  -1.705  -2.693  0.00  0.00    -0.037 A 
ATOM     20  C   UNL     1      -9.543  -0.880  -3.646  0.00  0.00    +0.006 A 
ATOM     21  C   UNL     1     -10.649  -1.305  -4.357  0.00  0.00    +0.020 A 
ATOM     22  C   UNL     1     -11.187  -2.556  -4.116  0.00  0.00    +0.041 A 
ATOM     23  C   UNL     1     -10.618  -3.381  -3.162  0.00  0.00    +0.020 A 
ATOM     24  C   UNL     1      -9.508  -2.958  -2.455  0.00  0.00    +0.006 A 
ATOM     25 CL   UNL     1     -12.577  -3.091  -5.009  0.00  0.00    -0.084 Cl
ENDBRANCH  18  19
ENDBRANCH  17  18
ENDBRANCH  10  17
TORSDOF 4
