REMARK  Name = ZINC36579821
REMARK  9 active torsions:
REMARK  status: ('A' for Active; 'I' for Inactive)
REMARK    1  A    between atoms: C_1  and  C_2
REMARK    2  A    between atoms: C_2  and  C_3
REMARK    3  A    between atoms: C_3  and  C_5
REMARK    4  A    between atoms: C_3  and  C_6
REMARK    5  A    between atoms: C_6  and  C_8
REMARK    6  A    between atoms: C_6  and  N_12
REMARK    7  A    between atoms: C_8  and  O_10
REMARK    8  A    between atoms: O_10  and  C_11
REMARK    9  A    between atoms: C_24  and  C_26
REMARK                            x       y       z     vdW  Elec       q    Type
REMARK                         _______ _______ _______ _____ _____    ______ ____
ROOT
ATOM      1  N   UNL     1       2.218  -4.166   1.337  0.00  0.00    -0.286 N 
ATOM      2  C   UNL     1       2.222  -3.580   2.550  0.00  0.00    +0.304 C 
ATOM      3  O   UNL     1       1.693  -2.497   2.704  0.00  0.00    -0.253 OA
ATOM      4  N   UNL     1       2.812  -4.196   3.594  0.00  0.00    -0.273 N 
ATOM      5  C   UNL     1       2.727  -3.630   4.948  0.00  0.00    +0.116 C 
ATOM      6  C   UNL     1       1.948  -4.598   5.848  0.00  0.00    +0.074 C 
ATOM      7  C   UNL     1       2.449  -5.997   5.604  0.00  0.00    +0.040 A 
ATOM      8  C   UNL     1       3.159  -6.385   4.523  0.00  0.00    +0.062 A 
ATOM      9  N   UNL     1       3.423  -7.688   4.646  0.00  0.00    -0.348 N 
ATOM     10  C   UNL     1       2.906  -8.126   5.764  0.00  0.00    +0.171 A 
ATOM     11  N   UNL     1       2.290  -7.098   6.391  0.00  0.00    -0.349 N 
ATOM     12  H   UNL     1       1.824  -7.137   7.241  0.00  0.00    +0.166 HD
ATOM     13  C   UNL     1       3.554  -5.456   3.406  0.00  0.00    +0.159 C 
ATOM     14  H   UNL     1       2.704  -4.994   1.196  0.00  0.00    +0.151 HD
ATOM     15  H   UNL     1       3.918  -8.223   4.007  0.00  0.00    +0.167 HD
ENDROOT
BRANCH  13  16
ATOM     16  C   UNL     1       5.037  -5.192   3.465  0.00  0.00    +0.017 A 
ATOM     17  C   UNL     1       5.752  -5.517   4.603  0.00  0.00    +0.009 A 
ATOM     18  C   UNL     1       7.112  -5.276   4.658  0.00  0.00    +0.003 A 
ATOM     19  C   UNL     1       7.760  -4.709   3.577  0.00  0.00    +0.041 A 
ATOM     20  C   UNL     1       7.047  -4.382   2.437  0.00  0.00    +0.159 A 
ATOM     21  C   UNL     1       5.683  -4.629   2.379  0.00  0.00    +0.164 A 
ATOM     22  F   UNL     1       4.986  -4.315   1.265  0.00  0.00    -0.202 F 
ATOM     23  F   UNL     1       7.679  -3.826   1.380  0.00  0.00    -0.202 F 
ENDBRANCH  13  16
BRANCH   1  24
ATOM     24  C   UNL     1       1.481  -3.553   0.229  0.00  0.00    +0.186 C 
BRANCH  24  25
ATOM     25  C   UNL     1       1.103  -4.629  -0.790  0.00  0.00    +0.017 C 
ATOM     26  C   UNL     1       2.374  -5.290  -1.328  0.00  0.00    +0.010 C 
BRANCH  25  28
ATOM     27  C   UNL     1      -0.152  -5.080  -2.903  0.00  0.00    +0.004 C 
ATOM     28  C   UNL     1       0.333  -3.989  -1.947  0.00  0.00    +0.002 C 
ENDBRANCH  25  28
ENDBRANCH  24  25
BRANCH  24  29
ATOM     29  C   UNL     1       2.346  -2.513  -0.435  0.00  0.00    +0.328 C 
ATOM     30  O   UNL     1       3.463  -2.305  -0.026  0.00  0.00    -0.249 OA
BRANCH  29  31
ATOM     31  O   UNL     1       1.874  -1.817  -1.482  0.00  0.00    -0.467 OA
ATOM     32  C   UNL     1       2.748  -0.847  -2.063  0.00  0.00    +0.280 C 
ENDBRANCH  29  31
ENDBRANCH  24  29
ENDBRANCH   1  24
TORSDOF 6
