REMARK  Name = ZINC24359322
REMARK  12 active torsions:
REMARK  status: ('A' for Active; 'I' for Inactive)
REMARK    1  A    between atoms: C_1  and  C_2
REMARK    2  A    between atoms: C_2  and  C_3
REMARK    3  A    between atoms: C_2  and  C_4
REMARK    4  A    between atoms: C_9  and  N_10
REMARK    5  A    between atoms: C_11  and  C_13
REMARK    6  A    between atoms: C_13  and  N_14
REMARK    7  A    between atoms: N_14  and  C_15
REMARK    8  A    between atoms: C_19  and  N_21
REMARK    9  A    between atoms: C_22  and  C_24
REMARK   10  A    between atoms: C_24  and  C_25
REMARK   11  A    between atoms: C_24  and  C_26
REMARK   12  A    between atoms: C_24  and  C_27
REMARK                            x       y       z     vdW  Elec       q    Type
REMARK                         _______ _______ _______ _____ _____    ______ ____
ROOT
ATOM      1  N   UNL     1       5.236  -3.286   1.605  0.00  0.00    -0.335 N 
ATOM      2  H   UNL     1       5.597  -3.518   0.735  0.00  0.00    +0.147 HD
ENDROOT
BRANCH   1   3
ATOM      3  C   UNL     1       5.975  -3.547   2.761  0.00  0.00    +0.029 A 
ATOM      4  C   UNL     1       5.456  -3.220   4.008  0.00  0.00    +0.023 A 
ATOM      5  C   UNL     1       6.186  -3.478   5.151  0.00  0.00    +0.004 A 
ATOM      6  C   UNL     1       7.436  -4.060   5.059  0.00  0.00    +0.023 A 
ATOM      7  C   UNL     1       7.961  -4.389   3.816  0.00  0.00    +0.035 A 
ATOM      8  C   UNL     1       7.227  -4.138   2.666  0.00  0.00    +0.046 A 
BRANCH   7   9
ATOM      9  N   UNL     1       9.226  -4.979   3.724  0.00  0.00    -0.285 N 
ATOM     10  C   UNL     1       9.652  -5.815   4.692  0.00  0.00    +0.223 C 
ATOM     11  O   UNL     1       8.905  -6.128   5.595  0.00  0.00    -0.275 OA
ATOM     12  H   UNL     1       9.797  -4.787   2.964  0.00  0.00    +0.155 HD
BRANCH  10  13
ATOM     13  C   UNL     1      11.056  -6.361   4.652  0.00  0.00    +0.039 C 
ATOM     14  C   UNL     1      11.282  -7.277   5.857  0.00  0.00    +0.020 C 
ATOM     15  C   UNL     1      11.258  -7.157   3.361  0.00  0.00    +0.020 C 
ATOM     16  C   UNL     1      12.055  -5.203   4.698  0.00  0.00    +0.020 C 
ENDBRANCH  10  13
ENDBRANCH   7   9
ENDBRANCH   1   3
BRANCH   1  17
ATOM     17  C   UNL     1       3.914  -2.662   1.706  0.00  0.00    +0.198 C 
BRANCH  17  19
ATOM     18  N   UNL     1       2.114  -1.934   0.173  0.00  0.00    -0.284 N 
ATOM     19  C   UNL     1       3.332  -2.491   0.327  0.00  0.00    +0.234 C 
ATOM     20  O   UNL     1       3.959  -2.855  -0.645  0.00  0.00    -0.274 OA
ATOM     21  H   UNL     1       1.639  -1.586   0.944  0.00  0.00    +0.155 HD
BRANCH  18  27
ATOM     22  C   UNL     1       0.154  -1.890  -1.237  0.00  0.00    -0.024 A 
ATOM     23  C   UNL     1      -0.415  -1.808  -2.493  0.00  0.00    +0.006 A 
ATOM     24  C   UNL     1       0.390  -1.701  -3.612  0.00  0.00    +0.000 A 
ATOM     25  C   UNL     1       1.766  -1.674  -3.478  0.00  0.00    +0.002 A 
ATOM     26  C   UNL     1       2.341  -1.754  -2.225  0.00  0.00    +0.023 A 
ATOM     27  C   UNL     1       1.535  -1.858  -1.098  0.00  0.00    +0.037 A 
BRANCH  22  29
ATOM     28  C   UNL     1      -1.550  -0.730   0.141  0.00  0.00    +0.012 C 
ATOM     29  C   UNL     1      -0.724  -2.007  -0.017  0.00  0.00    +0.015 C 
ATOM     30  C   UNL     1      -1.662  -3.205  -0.178  0.00  0.00    +0.012 C 
ENDBRANCH  22  29
ENDBRANCH  18  27
ENDBRANCH  17  19
ENDBRANCH   1  17
TORSDOF 7
