REMARK  Name = ZINC14608129
REMARK  6 active torsions:
REMARK  status: ('A' for Active; 'I' for Inactive)
REMARK    1  A    between atoms: C_1  and  C_2
REMARK    2  A    between atoms: C_7  and  C_19
REMARK    3  A    between atoms: C_13  and  C_18
REMARK    4  A    between atoms: C_22  and  C_25
REMARK    5  A    between atoms: C_25  and  C_26
REMARK    6  A    between atoms: C_25  and  C_27
REMARK                            x       y       z     vdW  Elec       q    Type
REMARK                         _______ _______ _______ _____ _____    ______ ____
ROOT
ATOM      1  C   UNL     1      -3.567   0.548   0.023  0.00  0.00    +0.090 C 
ATOM      2  C   UNL     1      -2.062   0.625   0.016  0.00  0.00    +0.150 A 
ATOM      3  N   UNL     1      -1.233  -0.424   0.003  0.00  0.00    -0.198 NA
ATOM      4  C   UNL     1       0.002  -0.004   0.002  0.00  0.00    +0.219 A 
ATOM      5  N   UNL     1      -0.016   1.352   0.009  0.00  0.00    -0.221 N 
ATOM      6  N   UNL     1      -1.358   1.730   0.018  0.00  0.00    -0.153 NA
ATOM      7  C   UNL     1       1.189   2.171   0.002  0.00  0.00    +0.175 C 
ATOM      8  C   UNL     1       2.396   1.318   0.327  0.00  0.00    +0.041 C 
ATOM      9  C   UNL     1       2.348  -0.031   0.309  0.00  0.00    +0.020 C 
ATOM     10  N   UNL     1       1.194  -0.711  -0.001  0.00  0.00    -0.287 N 
ATOM     11  C   UNL     1       3.569  -0.856   0.638  0.00  0.00    +0.055 C 
ATOM     12  C   UNL     1       4.830  -0.099   0.218  0.00  0.00    -0.001 C 
ATOM     13  C   UNL     1       4.854   1.244   0.957  0.00  0.00    +0.083 C 
ATOM     14  C   UNL     1       3.588   1.993   0.648  0.00  0.00    +0.163 C 
ATOM     15  O   UNL     1       3.594   3.208   0.677  0.00  0.00    -0.292 OA
ATOM     16  C   UNL     1       6.070  -0.914   0.591  0.00  0.00    +0.008 C 
ATOM     17  H   UNL     1       1.213  -1.657  -0.215  0.00  0.00    +0.155 HD
ENDROOT
BRANCH   7  18
ATOM     18  C   UNL     1       1.366   2.789  -1.361  0.00  0.00    -0.018 A 
ATOM     19  C   UNL     1       1.508   1.980  -2.473  0.00  0.00    +0.006 A 
ATOM     20  C   UNL     1       1.666   2.548  -3.724  0.00  0.00    +0.004 A 
ATOM     21  C   UNL     1       1.691   3.923  -3.861  0.00  0.00    -0.045 A 
ATOM     22  C   UNL     1       1.554   4.731  -2.748  0.00  0.00    +0.004 A 
ATOM     23  C   UNL     1       1.391   4.164  -1.498  0.00  0.00    +0.006 A 
BRANCH  21  24
ATOM     24  C   UNL     1       1.868   4.541  -5.224  0.00  0.00    +0.013 C 
ATOM     25  C   UNL     1       3.201   4.085  -5.821  0.00  0.00    +0.012 C 
ATOM     26  C   UNL     1       0.723   4.100  -6.137  0.00  0.00    +0.012 C 
ENDBRANCH  21  24
ENDBRANCH   7  18
TORSDOF 2
