REMARK  Name = ZINC05256163
REMARK  2 active torsions:
REMARK  status: ('A' for Active; 'I' for Inactive)
REMARK    1  A    between atoms: C_9  and  C_11
REMARK    2  A    between atoms: N_21  and  C_22
REMARK                            x       y       z     vdW  Elec       q    Type
REMARK                         _______ _______ _______ _____ _____    ______ ____
ROOT
ATOM      1  C   UNL     1       2.455  -1.539   2.346  0.00  0.00    +0.019 A 
ATOM      2  C   UNL     1       1.348  -1.650   1.479  0.00  0.00    +0.025 A 
ATOM      3  C   UNL     1       1.093  -0.422   0.999  0.00  0.00    +0.044 A 
ATOM      4  N   UNL     1       1.996   0.452   1.540  0.00  0.00    -0.347 N 
ATOM      5  C   UNL     1       2.830  -0.243   2.361  0.00  0.00    +0.086 A 
ATOM      6  C   UNL     1       2.030   1.893   1.264  0.00  0.00    +0.140 C 
ATOM      7  C   UNL     1       1.252   2.178  -0.025  0.00  0.00    +0.132 C 
ATOM      8  N   UNL     1      -0.028   1.455   0.010  0.00  0.00    -0.271 N 
ATOM      9  C   UNL     1       0.009  -0.019   0.027  0.00  0.00    +0.156 C 
ATOM     10  C   UNL     1      -1.200   2.120   0.021  0.00  0.00    +0.308 C 
ATOM     11  O   UNL     1      -2.247   1.509  -0.067  0.00  0.00    -0.252 OA
ATOM     12  N   UNL     1      -1.212   3.464   0.131  0.00  0.00    -0.264 N 
ATOM     13  H   UNL     1      -0.377   3.958   0.128  0.00  0.00    +0.157 HD
ENDROOT
BRANCH   9  14
ATOM     14  C   UNL     1      -1.321  -0.561   0.483  0.00  0.00    -0.003 A 
ATOM     15  C   UNL     1      -1.857  -0.152   1.690  0.00  0.00    +0.009 A 
ATOM     16  C   UNL     1      -3.076  -0.649   2.110  0.00  0.00    +0.020 A 
ATOM     17  C   UNL     1      -3.762  -1.557   1.321  0.00  0.00    +0.042 A 
ATOM     18  C   UNL     1      -3.227  -1.966   0.114  0.00  0.00    +0.040 A 
ATOM     19  C   UNL     1      -2.009  -1.464  -0.308  0.00  0.00    +0.048 A 
ATOM     20 CL   UNL     1      -1.339  -1.971  -1.828  0.00  0.00    -0.083 Cl
ATOM     21 CL   UNL     1      -5.294  -2.181   1.848  0.00  0.00    -0.083 Cl
ENDBRANCH   9  14
BRANCH  12  22
ATOM     22  C   UNL     1      -2.427   4.145   0.248  0.00  0.00    +0.073 A 
ATOM     23  C   UNL     1      -2.652   5.483   0.374  0.00  0.00    +0.031 A 
ATOM     24  C   UNL     1      -3.956   5.933   0.472  0.00  0.00    +0.009 A 
ATOM     25  C   UNL     1      -4.967   5.031   0.451  0.00  0.00    +0.047 A 
ATOM     26  S   UNL     1      -4.086   3.488   0.280  0.00  0.00    -0.082 S 
ENDBRANCH  12  22
TORSDOF 2
