REMARK  Name = ZINC59250221
REMARK  11 active torsions:
REMARK  status: ('A' for Active; 'I' for Inactive)
REMARK    1  A    between atoms: C_1  and  C_2
REMARK    2  A    between atoms: C_4  and  C_18
REMARK    3  A    between atoms: C_6  and  C_15
REMARK    4  A    between atoms: N_9  and  C_11
REMARK    5  A    between atoms: C_11  and  C_12
REMARK    6  A    between atoms: C_11  and  C_13
REMARK    7  A    between atoms: C_11  and  C_14
REMARK    8  A    between atoms: N_20  and  N_21
REMARK    9  A    between atoms: C_28  and  C_32
REMARK   10  A    between atoms: C_29  and  C_30
REMARK   11  A    between atoms: C_29  and  C_31
REMARK                            x       y       z     vdW  Elec       q    Type
REMARK                         _______ _______ _______ _____ _____    ______ ____
ROOT
ATOM      1  C   UNL     1      -2.580   1.705   0.403  0.00  0.00    +0.068 C 
ATOM      2  C   UNL     1      -1.972   0.327   0.464  0.00  0.00    +0.070 A 
ATOM      3  C   UNL     1      -1.230  -0.292  -0.564  0.00  0.00    +0.054 A 
ATOM      4  C   UNL     1      -0.837   0.103  -1.862  0.00  0.00    +0.052 A 
ATOM      5  C   UNL     1      -0.087  -0.798  -2.616  0.00  0.00    +0.037 A 
ATOM      6  C   UNL     1       0.242  -2.031  -2.074  0.00  0.00    +0.047 A 
ATOM      7  N   UNL     1      -0.137  -2.375  -0.863  0.00  0.00    -0.232 NA
ATOM      8  C   UNL     1      -0.852  -1.565  -0.094  0.00  0.00    +0.160 A 
ATOM      9  N   UNL     1      -1.363  -1.676   1.173  0.00  0.00    -0.241 N 
ATOM     10  N   UNL     1      -2.039  -0.489   1.477  0.00  0.00    -0.173 NA
ENDROOT
BRANCH   9  11
ATOM     11  C   UNL     1      -1.221  -2.835   2.058  0.00  0.00    +0.058 C 
ATOM     12  C   UNL     1       0.263  -3.095   2.325  0.00  0.00    +0.036 C 
ATOM     13  C   UNL     1      -1.937  -2.557   3.381  0.00  0.00    +0.036 C 
ATOM     14  C   UNL     1      -1.842  -4.065   1.392  0.00  0.00    +0.036 C 
ENDBRANCH   9  11
BRANCH   4  15
ATOM     15  C   UNL     1      -1.208   1.427  -2.403  0.00  0.00    +0.264 C 
ATOM     16  O   UNL     1      -1.095   2.420  -1.711  0.00  0.00    -0.268 OA
ATOM     17  N   UNL     1      -1.672   1.534  -3.664  0.00  0.00    -0.203 N 
ATOM     18  H   UNL     1      -1.762   0.742  -4.216  0.00  0.00    +0.178 HD
BRANCH  17  19
ATOM     19  N   UNL     1      -2.025   2.789  -4.176  0.00  0.00    -0.188 NA
ATOM     20  C   UNL     1      -2.462   2.892  -5.375  0.00  0.00    +0.044 C 
ATOM     21  C   UNL     1      -2.722   4.171  -6.157  0.00  0.00    +0.057 C 
ATOM     22  C   UNL     1      -3.249   3.692  -7.545  0.00  0.00    +0.001 C 
ATOM     23  C   UNL     1      -1.995   3.079  -8.242  0.00  0.00    +0.005 C 
ATOM     24  C   UNL     1      -1.698   1.792  -7.439  0.00  0.00    +0.013 C 
ATOM     25  C   UNL     1      -2.830   1.749  -6.332  0.00  0.00    +0.013 C 
ATOM     26  C   UNL     1      -4.029   2.399  -7.116  0.00  0.00    -0.021 C 
ATOM     27  C   UNL     1      -4.451   1.556  -8.321  0.00  0.00    +0.012 C 
ATOM     28  C   UNL     1      -5.213   2.718  -6.202  0.00  0.00    +0.012 C 
ATOM     29  C   UNL     1      -3.088   0.389  -5.680  0.00  0.00    +0.018 C 
ENDBRANCH  17  19
ENDBRANCH   4  15
BRANCH   6  30
ATOM     30  C   UNL     1       1.053  -3.001  -2.893  0.00  0.00    +0.038 C 
ATOM     31  C   UNL     1       1.149  -2.747  -4.398  0.00  0.00    +0.010 C 
ATOM     32  C   UNL     1       0.298  -3.904  -3.871  0.00  0.00    +0.010 C 
ENDBRANCH   6  30
TORSDOF 4
