REMARK  Name = ZINC62587409
REMARK  10 active torsions:
REMARK  status: ('A' for Active; 'I' for Inactive)
REMARK    1  A    between atoms: C_1  and  C_2
REMARK    2  A    between atoms: C_2  and  C_3
REMARK    3  A    between atoms: C_3  and  C_5
REMARK    4  A    between atoms: C_3  and  N_15
REMARK    5  A    between atoms: N_15  and  C_16
REMARK    6  A    between atoms: C_16  and  C_17
REMARK    7  A    between atoms: N_19  and  C_20
REMARK    8  A    between atoms: C_20  and  C_21
REMARK    9  A    between atoms: C_24  and  S_27
REMARK   10  A    between atoms: S_27  and  N_30
REMARK                            x       y       z     vdW  Elec       q    Type
REMARK                         _______ _______ _______ _____ _____    ______ ____
ROOT
ATOM      1  C   UNL     1      -0.768   1.917  -3.801  0.00  0.00    +0.196 C 
ATOM      2  O   UNL     1      -1.375   1.127  -4.493  0.00  0.00    -0.278 OA
ATOM      3  N   UNL     1      -0.750   3.224  -4.130  0.00  0.00    -0.313 N 
ATOM      4  H   UNL     1      -0.265   3.857  -3.577  0.00  0.00    +0.149 HD
ENDROOT
BRANCH   1   5
ATOM      5  C   UNL     1      -0.034   1.439  -2.576  0.00  0.00    +0.015 C 
BRANCH   5   6
ATOM      6  N   UNL     1      -0.206  -0.014  -2.438  0.00  0.00    +0.387 N 
ATOM      7  H   UNL     1       0.212  -0.478  -3.230  0.00  0.00    -0.085 HD
ATOM      8  H   UNL     1      -1.190  -0.234  -2.400  0.00  0.00    -0.085 HD
BRANCH   6   9
ATOM      9  C   UNL     1       0.446  -0.469  -1.203  0.00  0.00    -0.065 C 
BRANCH   9  10
ATOM     10  C   UNL     1       0.799  -1.953  -1.330  0.00  0.00    -0.041 C 
ATOM     11  C   UNL     1       1.750  -2.151  -2.512  0.00  0.00    +0.009 C 
ATOM     12  C   UNL     1       2.103  -3.635  -2.639  0.00  0.00    -0.010 C 
ATOM     13  C   UNL     1       2.782  -4.109  -1.352  0.00  0.00    +0.007 C 
ATOM     14  C   UNL     1       1.831  -3.910  -0.170  0.00  0.00    -0.010 C 
ATOM     15  C   UNL     1       1.478  -2.427  -0.044  0.00  0.00    +0.009 C 
ATOM     16  C   UNL     1       0.554  -4.721  -0.401  0.00  0.00    +0.007 C 
ATOM     17  C   UNL     1      -0.125  -4.246  -1.688  0.00  0.00    -0.010 C 
ATOM     18  C   UNL     1       0.826  -4.445  -2.870  0.00  0.00    +0.007 C 
ATOM     19  C   UNL     1      -0.478  -2.763  -1.561  0.00  0.00    +0.009 C 
ENDBRANCH   9  10
BRANCH   9  21
ATOM     20  C   UNL     1      -0.734   1.226   0.203  0.00  0.00    +0.002 C 
ATOM     21  C   UNL     1      -0.504  -0.271  -0.021  0.00  0.00    -0.019 C 
ENDBRANCH   9  21
ENDBRANCH   6   9
ENDBRANCH   5   6
ENDBRANCH   1   5
BRANCH   3  22
ATOM     22  C   UNL     1      -1.464   3.690  -5.322  0.00  0.00    +0.139 C 
BRANCH  22  23
ATOM     23  C   UNL     1      -1.287   5.180  -5.463  0.00  0.00    -0.030 A 
ATOM     24  C   UNL     1      -2.187   6.042  -4.864  0.00  0.00    +0.007 A 
ATOM     25  C   UNL     1      -2.025   7.409  -4.994  0.00  0.00    +0.029 A 
ATOM     26  C   UNL     1      -0.964   7.913  -5.721  0.00  0.00    +0.105 A 
ATOM     27  C   UNL     1      -0.064   7.051  -6.319  0.00  0.00    +0.029 A 
ATOM     28  C   UNL     1      -0.223   5.685  -6.186  0.00  0.00    +0.007 A 
BRANCH  26  29
ATOM     29  S   UNL     1      -0.758   9.656  -5.887  0.00  0.00    +0.061 S 
ATOM     30  O   UNL     1       0.001   9.864  -7.071  0.00  0.00    -0.153 OA
ATOM     31  O   UNL     1      -2.040  10.236  -5.692  0.00  0.00    -0.153 OA
BRANCH  29  32
ATOM     32  N   UNL     1       0.187  10.159  -4.624  0.00  0.00    -0.172 NA
ATOM     33  C   UNL     1      -0.414  10.573  -3.346  0.00  0.00    +0.137 C 
ATOM     34  C   UNL     1       0.297   9.823  -2.213  0.00  0.00    +0.177 C 
ATOM     35  O   UNL     1       1.709  10.007  -2.340  0.00  0.00    -0.377 OA
ATOM     36  C   UNL     1       2.262   9.475  -3.546  0.00  0.00    +0.177 C 
ATOM     37  C   UNL     1       1.653  10.202  -4.745  0.00  0.00    +0.137 C 
ENDBRANCH  29  32
ENDBRANCH  26  29
ENDBRANCH  22  23
ENDBRANCH   3  22
TORSDOF 9
