REMARK  Name = ZINC39940635
REMARK  13 active torsions:
REMARK  status: ('A' for Active; 'I' for Inactive)
REMARK    1  A    between atoms: C_1  and  C_2
REMARK    2  A    between atoms: C_2  and  O_3
REMARK    3  A    between atoms: O_3  and  C_4
REMARK    4  A    between atoms: C_6  and  C_18
REMARK    5  A    between atoms: C_9  and  O_10
REMARK    6  A    between atoms: O_10  and  C_11
REMARK    7  A    between atoms: C_11  and  C_12
REMARK    8  A    between atoms: C_12  and  O_14
REMARK    9  A    between atoms: O_14  and  C_15
REMARK   10  A    between atoms: C_15  and  C_16
REMARK   11  A    between atoms: C_19  and  C_20
REMARK   12  A    between atoms: C_19  and  C_22
REMARK   13  A    between atoms: C_28  and  C_32
REMARK                            x       y       z     vdW  Elec       q    Type
REMARK                         _______ _______ _______ _____ _____    ______ ____
ROOT
ATOM      1  C   UNL     1       0.042  -2.631   2.443  0.00  0.00    +0.164 A 
ATOM      2  C   UNL     1      -0.186  -3.159   1.187  0.00  0.00    +0.057 A 
ATOM      3  C   UNL     1      -0.109  -4.542   0.989  0.00  0.00    -0.019 A 
ATOM      4  C   UNL     1       0.200  -5.383   2.064  0.00  0.00    +0.032 A 
ATOM      5  C   UNL     1       0.427  -4.847   3.314  0.00  0.00    +0.087 A 
ATOM      6  C   UNL     1       0.355  -3.473   3.508  0.00  0.00    +0.181 A 
ATOM      7 CL   UNL     1       0.810  -5.891   4.647  0.00  0.00    -0.080 Cl
ENDROOT
BRANCH   3   8
ATOM      8  C   UNL     1      -0.352  -5.111  -0.345  0.00  0.00    +0.026 C 
ATOM      9  C   UNL     1       0.423  -6.117  -0.801  0.00  0.00    +0.072 C 
BRANCH   9  10
ATOM     10  C   UNL     1       1.642  -6.541  -0.023  0.00  0.00    +0.216 C 
ATOM     11  N   UNL     1       1.462  -7.904   0.492  0.00  0.00    -0.359 N 
ATOM     12  C   UNL     1       2.403  -8.643  -0.022  0.00  0.00    +0.060 A 
ATOM     13  C   UNL     1       2.741 -10.067   0.115  0.00  0.00    +0.027 A 
ATOM     14  C   UNL     1       3.799 -10.566  -0.555  0.00  0.00    +0.005 A 
ATOM     15  C   UNL     1       4.607  -9.776  -1.392  0.00  0.00    -0.048 A 
ATOM     16  C   UNL     1       4.385  -8.461  -1.588  0.00  0.00    +0.030 A 
ATOM     17  C   UNL     1       3.258  -7.808  -0.908  0.00  0.00    +0.061 A 
ATOM     18  N   UNL     1       2.814  -6.583  -0.907  0.00  0.00    -0.359 N 
ATOM     19  C   UNL     1       5.769 -10.426  -2.100  0.00  0.00    +0.044 C 
ATOM     20  H   UNL     1       0.770  -8.200   1.104  0.00  0.00    +0.162 HD
ATOM     21  H   UNL     1       3.188  -5.835  -1.400  0.00  0.00    +0.162 HD
ENDBRANCH   9  10
BRANCH   9  22
ATOM     22  C   UNL     1       0.087  -6.782  -2.024  0.00  0.00    +0.099 C 
ATOM     23  N   UNL     1      -0.180  -7.310  -2.994  0.00  0.00    -0.191 NA
ENDBRANCH   9  22
ENDBRANCH   3   8
BRANCH   1  24
ATOM     24  O   UNL     1      -0.032  -1.287   2.639  0.00  0.00    -0.489 OA
BRANCH  24  26
ATOM     25  C   UNL     1      -0.395   0.990   1.914  0.00  0.00    +0.048 C 
ATOM     26  C   UNL     1      -0.358  -0.483   1.503  0.00  0.00    +0.226 C 
ENDBRANCH  24  26
ENDBRANCH   1  24
BRANCH   6  27
ATOM     27  O   UNL     1       0.585  -2.950   4.741  0.00  0.00    -0.476 OA
BRANCH  27  28
ATOM     28  C   UNL     1      -0.543  -2.809   5.607  0.00  0.00    +0.349 C 
BRANCH  28  29
ATOM     29  C   UNL     1      -0.098  -2.217   6.919  0.00  0.00    +0.345 C 
ATOM     30  O   UNL     1       1.065  -1.943   7.095  0.00  0.00    -0.247 OA
BRANCH  29  31
ATOM     31  O   UNL     1      -0.995  -1.993   7.893  0.00  0.00    -0.463 OA
BRANCH  31  32
ATOM     32  C   UNL     1      -0.503  -1.430   9.110  0.00  0.00    +0.229 C 
ATOM     33  C   UNL     1      -1.662  -1.249  10.093  0.00  0.00    +0.048 C 
ENDBRANCH  31  32
ENDBRANCH  29  31
ENDBRANCH  28  29
ENDBRANCH  27  28
ENDBRANCH   6  27
TORSDOF 10
