REMARK  Name = ZINC35703716
REMARK  10 active torsions:
REMARK  status: ('A' for Active; 'I' for Inactive)
REMARK    1  A    between atoms: C_1  and  C_2
REMARK    2  A    between atoms: C_3  and  C_30
REMARK    3  A    between atoms: C_4  and  C_23
REMARK    4  A    between atoms: C_7  and  C_12
REMARK    5  A    between atoms: C_13  and  N_15
REMARK    6  A    between atoms: N_15  and  C_16
REMARK    7  A    between atoms: C_16  and  C_17
REMARK    8  A    between atoms: C_30  and  O_32
REMARK    9  A    between atoms: O_32  and  C_33
REMARK   10  A    between atoms: C_33  and  C_34
REMARK                            x       y       z     vdW  Elec       q    Type
REMARK                         _______ _______ _______ _____ _____    ______ ____
ROOT
ATOM      1  C   UNL     1       0.468   1.312   0.359  0.00  0.00    +0.066 C 
ATOM      2  C   UNL     1       0.286  -0.176   0.203  0.00  0.00    +0.053 C 
ATOM      3  C   UNL     1      -0.973  -0.692  -0.038  0.00  0.00    +0.083 C 
ATOM      4  C   UNL     1      -1.103  -2.191  -0.188  0.00  0.00    +0.152 C 
ATOM      5  N   UNL     1       0.141  -2.995  -0.064  0.00  0.00    -0.267 N 
ATOM      6  C   UNL     1       0.259  -4.367  -0.165  0.00  0.00    +0.048 C 
ATOM      7  C   UNL     1       1.490  -4.904  -0.019  0.00  0.00    +0.072 C 
ATOM      8  S   UNL     1       2.491  -3.457   0.263  0.00  0.00    -0.060 S 
ATOM      9  C   UNL     1       1.288  -2.291   0.176  0.00  0.00    +0.166 C 
ATOM     10  N   UNL     1       1.334  -0.979   0.292  0.00  0.00    -0.230 NA
ENDROOT
BRANCH   4  11
ATOM     11  C   UNL     1      -1.702  -2.471  -1.543  0.00  0.00    +0.013 A 
ATOM     12  C   UNL     1      -3.022  -2.870  -1.647  0.00  0.00    +0.008 A 
ATOM     13  C   UNL     1      -3.571  -3.127  -2.889  0.00  0.00    +0.001 A 
ATOM     14  C   UNL     1      -2.801  -2.986  -4.029  0.00  0.00    +0.003 A 
ATOM     15  C   UNL     1      -1.482  -2.587  -3.927  0.00  0.00    +0.039 A 
ATOM     16  C   UNL     1      -0.932  -2.325  -2.684  0.00  0.00    +0.129 A 
ATOM     17  F   UNL     1       0.356  -1.931  -2.584  0.00  0.00    -0.205 F 
ENDBRANCH   4  11
BRANCH   6  18
ATOM     18  C   UNL     1      -0.915  -5.214  -0.421  0.00  0.00    +0.091 C 
ATOM     19  C   UNL     1      -0.798  -6.556  -0.387  0.00  0.00    +0.239 C 
ATOM     20  O   UNL     1       0.421  -7.125  -0.223  0.00  0.00    -0.271 OA
BRANCH  19  21
ATOM     21  N   UNL     1      -1.922  -7.353  -0.521  0.00  0.00    -0.309 N 
ATOM     22  H   UNL     1      -2.795  -6.945  -0.639  0.00  0.00    +0.149 HD
BRANCH  21  23
ATOM     23  C   UNL     1      -1.795  -8.812  -0.485  0.00  0.00    +0.136 C 
BRANCH  23  24
ATOM     24  C   UNL     1      -3.175  -9.449  -0.654  0.00  0.00    +0.135 C 
ATOM     25  C   UNL     1      -3.067 -10.993  -0.583  0.00  0.00    +0.035 C 
ATOM     26  C   UNL     1      -4.504 -11.368  -0.127  0.00  0.00    +0.031 C 
ATOM     27  C   UNL     1      -4.875 -10.184   0.792  0.00  0.00    +0.160 C 
ATOM     28  O   UNL     1      -4.031  -9.080   0.439  0.00  0.00    -0.375 OA
ENDBRANCH  23  24
ENDBRANCH  21  23
ENDBRANCH  19  21
ENDBRANCH   6  18
BRANCH   3  29
ATOM     29  C   UNL     1      -2.090   0.145  -0.140  0.00  0.00    +0.339 C 
ATOM     30  O   UNL     1      -1.949   1.356  -0.119  0.00  0.00    -0.245 OA
BRANCH  29  31
ATOM     31  O   UNL     1      -3.326  -0.389  -0.260  0.00  0.00    -0.457 OA
BRANCH  31  32
ATOM     32  C   UNL     1      -4.420   0.525  -0.359  0.00  0.00    +0.268 C 
BRANCH  32  33
ATOM     33  C   UNL     1      -5.709  -0.247  -0.486  0.00  0.00    -0.010 A 
ATOM     34  C   UNL     1      -6.183  -0.599  -1.736  0.00  0.00    +0.007 A 
ATOM     35  C   UNL     1      -7.365  -1.306  -1.852  0.00  0.00    +0.000 A 
ATOM     36  C   UNL     1      -8.072  -1.663  -0.719  0.00  0.00    +0.000 A 
ATOM     37  C   UNL     1      -7.597  -1.311   0.531  0.00  0.00    +0.000 A 
ATOM     38  C   UNL     1      -6.413  -0.607   0.647  0.00  0.00    +0.007 A 
ENDBRANCH  32  33
ENDBRANCH  31  32
ENDBRANCH  29  31
ENDBRANCH   3  29
TORSDOF 9
