REMARK  Name = ZINC16463187
REMARK  7 active torsions:
REMARK  status: ('A' for Active; 'I' for Inactive)
REMARK    1  A    between atoms: C_1  and  C_2
REMARK    2  A    between atoms: C_4  and  C_29
REMARK    3  A    between atoms: C_5  and  N_9
REMARK    4  A    between atoms: C_10  and  C_12
REMARK    5  A    between atoms: C_12  and  N_13
REMARK    6  A    between atoms: C_16  and  C_20
REMARK    7  A    between atoms: C_16  and  C_21
REMARK                            x       y       z     vdW  Elec       q    Type
REMARK                         _______ _______ _______ _____ _____    ______ ____
ROOT
ATOM      1  N   UNL     1       1.061  -6.838   2.321  0.00  0.00    -0.215 N 
ATOM      2  C   UNL     1       2.358  -6.987   2.656  0.00  0.00    +0.251 C 
ATOM      3  O   UNL     1       3.325  -6.749   1.964  0.00  0.00    -0.272 OA
ATOM      4  C   UNL     1       2.357  -7.514   4.077  0.00  0.00    +0.135 C 
ATOM      5  N   UNL     1       0.925  -7.609   4.410  0.00  0.00    -0.281 N 
ATOM      6  C   UNL     1       0.249  -7.189   3.325  0.00  0.00    +0.310 C 
ATOM      7  O   UNL     1      -0.964  -7.137   3.263  0.00  0.00    -0.252 OA
ATOM      8  C   UNL     1       3.017  -8.892   4.141  0.00  0.00    +0.047 C 
ATOM      9  H   UNL     1       0.543  -7.913   5.248  0.00  0.00    +0.152 HD
ENDROOT
BRANCH   4  10
ATOM     10  C   UNL     1       3.052  -6.548   5.001  0.00  0.00    -0.013 A 
ATOM     11  C   UNL     1       4.069  -5.743   4.521  0.00  0.00    +0.009 A 
ATOM     12  C   UNL     1       4.708  -4.856   5.366  0.00  0.00    +0.041 A 
ATOM     13  C   UNL     1       4.331  -4.772   6.695  0.00  0.00    +0.158 A 
ATOM     14  C   UNL     1       3.311  -5.579   7.177  0.00  0.00    +0.159 A 
ATOM     15  C   UNL     1       2.669  -6.462   6.326  0.00  0.00    +0.047 A 
ATOM     16  F   UNL     1       2.941  -5.499   8.474  0.00  0.00    -0.202 F 
ATOM     17  F   UNL     1       4.955  -3.906   7.522  0.00  0.00    -0.202 F 
ENDBRANCH   4  10
BRANCH   1  18
ATOM     18  C   UNL     1       0.598  -6.347   1.021  0.00  0.00    +0.214 C 
BRANCH  18  20
ATOM     19  N   UNL     1       0.057  -4.171  -0.023  0.00  0.00    -0.283 N 
ATOM     20  C   UNL     1       0.471  -4.846   1.067  0.00  0.00    +0.235 C 
ATOM     21  O   UNL     1       0.741  -4.246   2.086  0.00  0.00    -0.274 OA
ATOM     22  H   UNL     1      -0.228  -4.655  -0.814  0.00  0.00    +0.155 HD
BRANCH  19  27
ATOM     23  C   UNL     1      -0.016   1.503   0.014  0.00  0.00    +0.044 C 
ATOM     24  C   UNL     1       0.004  -0.004   0.003  0.00  0.00    -0.049 A 
ATOM     25  C   UNL     1      -1.135  -0.711   0.340  0.00  0.00    +0.008 A 
ATOM     26  C   UNL     1      -1.121  -2.092   0.333  0.00  0.00    -0.028 A 
ATOM     27  C   UNL     1       0.039  -2.771  -0.015  0.00  0.00    +0.055 A 
ATOM     28  C   UNL     1       1.183  -2.058  -0.353  0.00  0.00    +0.063 A 
ATOM     29  C   UNL     1       1.160  -0.676  -0.348  0.00  0.00    +0.025 A 
ATOM     30 CL   UNL     1       2.636  -2.902  -0.788  0.00  0.00    -0.082 Cl
ATOM     31  C   UNL     1      -2.363  -2.862   0.701  0.00  0.00    +0.046 C 
ENDBRANCH  19  27
ENDBRANCH  18  20
ENDBRANCH   1  18
TORSDOF 4
