REMARK  Name = ZINC36378904
REMARK  5 active torsions:
REMARK  status: ('A' for Active; 'I' for Inactive)
REMARK    1  A    between atoms: C_1  and  C_2
REMARK    2  A    between atoms: C_2  and  O_4
REMARK    3  A    between atoms: O_4  and  C_5
REMARK    4  A    between atoms: C_11  and  C_29
REMARK    5  A    between atoms: C_20  and  C_28
REMARK                            x       y       z     vdW  Elec       q    Type
REMARK                         _______ _______ _______ _____ _____    ______ ____
ROOT
ATOM      1  C   UNL     1       1.374  -1.806  -1.207  0.00  0.00    +0.183 C 
ATOM      2  C   UNL     1      -0.099  -2.225  -0.961  0.00  0.00    +0.045 C 
ATOM      3  C   UNL     1      -0.578  -2.928  -2.264  0.00  0.00    +0.008 C 
ATOM      4  C   UNL     1       0.417  -2.398  -3.306  0.00  0.00    +0.002 C 
ATOM      5  C   UNL     1       1.750  -2.498  -2.524  0.00  0.00    +0.008 C 
ATOM      6  C   UNL     1       2.852  -1.855  -3.331  0.00  0.00    +0.011 C 
ATOM      7  C   UNL     1       2.961  -2.558  -4.694  0.00  0.00    +0.005 C 
ATOM      8  C   UNL     1       1.623  -2.530  -5.428  0.00  0.00    -0.000 C 
ATOM      9  C   UNL     1       0.523  -3.195  -4.594  0.00  0.00    -0.004 C 
ATOM     10  C   UNL     1      -0.802  -3.139  -5.346  0.00  0.00    +0.005 C 
ATOM     11  C   UNL     1      -0.716  -3.717  -6.750  0.00  0.00    +0.008 C 
ATOM     12  C   UNL     1       0.683  -4.173  -7.131  0.00  0.00    -0.019 C 
ATOM     13  C   UNL     1       1.720  -3.103  -6.819  0.00  0.00    +0.021 C 
ATOM     14  C   UNL     1       3.091  -3.586  -7.184  0.00  0.00    -0.019 C 
ATOM     15  C   UNL     1       3.271  -4.426  -8.205  0.00  0.00    +0.042 C 
ATOM     16  C   UNL     1       2.129  -4.904  -8.991  0.00  0.00    +0.156 C 
ATOM     17  O   UNL     1       2.299  -5.692  -9.902  0.00  0.00    -0.293 OA
ATOM     18  C   UNL     1       0.740  -4.402  -8.660  0.00  0.00    +0.086 C 
ATOM     19  C   UNL     1       1.021  -5.504  -6.462  0.00  0.00    +0.012 C 
ATOM     20  C   UNL     1       2.113  -3.951  -2.208  0.00  0.00    +0.015 C 
ENDROOT
BRANCH   1  21
ATOM     21  O   UNL     1       1.471  -0.390  -1.350  0.00  0.00    -0.461 OA
BRANCH  21  23
ATOM     22  C   UNL     1       1.873   1.817  -0.318  0.00  0.00    +0.136 C 
ATOM     23  C   UNL     1       1.755   0.316  -0.244  0.00  0.00    +0.304 C 
ATOM     24  O   UNL     1       1.917  -0.252   0.810  0.00  0.00    -0.251 OA
ENDBRANCH  21  23
ENDBRANCH   1  21
TORSDOF 2
