REMARK  Name = ZINC12346703
REMARK  7 active torsions:
REMARK  status: ('A' for Active; 'I' for Inactive)
REMARK    1  A    between atoms: C_4  and  C_7
REMARK    2  A    between atoms: C_7  and  C_8
REMARK    3  A    between atoms: C_9  and  C_28
REMARK    4  A    between atoms: C_9  and  C_30
REMARK    5  A    between atoms: C_10  and  C_24
REMARK    6  A    between atoms: C_10  and  C_26
REMARK    7  A    between atoms: C_11  and  C_18
REMARK                            x       y       z     vdW  Elec       q    Type
REMARK                         _______ _______ _______ _____ _____    ______ ____
ROOT
ATOM      1  C   UNL     1      -1.859   2.961   0.659  0.00  0.00    +0.100 C 
ATOM      2  C   UNL     1      -2.933   1.839   0.675  0.00  0.00    +0.198 C 
ATOM      3  C   UNL     1      -2.315   0.577   0.080  0.00  0.00    +0.184 C 
ATOM      4  C   UNL     1      -1.983   0.661  -1.421  0.00  0.00    +0.069 C 
ATOM      5  C   UNL     1      -0.887   1.727  -1.664  0.00  0.00    +0.068 C 
ATOM      6  S   UNL     1      -1.635   3.328  -1.144  0.00  0.00    -0.135 S 
ATOM      7  C   UNL     1       0.232   1.429  -0.639  0.00  0.00    +0.085 C 
ATOM      8  S   UNL     1      -0.263   2.101   0.984  0.00  0.00    -0.139 S 
ENDROOT
BRANCH   4   9
ATOM      9  C   UNL     1      -1.511  -0.669  -1.949  0.00  0.00    -0.041 A 
ATOM     10  C   UNL     1      -0.184  -0.845  -2.292  0.00  0.00    +0.004 A 
ATOM     11  C   UNL     1       0.250  -2.067  -2.771  0.00  0.00    +0.000 A 
ATOM     12  C   UNL     1      -0.646  -3.110  -2.917  0.00  0.00    +0.000 A 
ATOM     13  C   UNL     1      -1.974  -2.932  -2.579  0.00  0.00    +0.000 A 
ATOM     14  C   UNL     1      -2.407  -1.712  -2.095  0.00  0.00    +0.004 A 
ENDBRANCH   4   9
BRANCH   3  15
ATOM     15  C   UNL     1      -1.054   0.295   0.784  0.00  0.00    +0.088 C 
ATOM     16  N   UNL     1      -0.081   0.076   1.328  0.00  0.00    -0.195 NA
ENDBRANCH   3  15
BRANCH   3  17
ATOM     17  C   UNL     1      -3.239  -0.547   0.302  0.00  0.00    +0.088 C 
ATOM     18  N   UNL     1      -3.951  -1.415   0.473  0.00  0.00    -0.195 NA
ENDBRANCH   3  17
BRANCH   2  19
ATOM     19  C   UNL     1      -3.358   1.579   2.060  0.00  0.00    +0.089 C 
ATOM     20  N   UNL     1      -3.686   1.378   3.128  0.00  0.00    -0.195 NA
ENDBRANCH   2  19
BRANCH   2  21
ATOM     21  C   UNL     1      -4.093   2.252  -0.132  0.00  0.00    +0.089 C 
ATOM     22  N   UNL     1      -4.989   2.570  -0.754  0.00  0.00    -0.195 NA
ENDBRANCH   2  21
BRANCH   1  23
ATOM     23  C   UNL     1      -2.158   4.168   1.550  0.00  0.00    +0.066 C 
BRANCH  23  27
ATOM     24  C   UNL     1       1.039   6.985   1.253  0.00  0.00    +0.000 A 
ATOM     25  C   UNL     1      -0.035   7.066   0.387  0.00  0.00    +0.000 A 
ATOM     26  C   UNL     1      -1.070   6.154   0.484  0.00  0.00    +0.004 A 
ATOM     27  C   UNL     1      -1.030   5.162   1.445  0.00  0.00    -0.045 A 
ATOM     28  C   UNL     1       0.042   5.084   2.314  0.00  0.00    +0.004 A 
ATOM     29  C   UNL     1       1.079   5.993   2.215  0.00  0.00    +0.000 A 
ENDBRANCH  23  27
ENDBRANCH   1  23
TORSDOF 7
