REMARK  Name = ZINC15015820
REMARK  2 active torsions:
REMARK  status: ('A' for Active; 'I' for Inactive)
REMARK    1  A    between atoms: C_3  and  N_8
REMARK    2  A    between atoms: C_14  and  C_15
REMARK                            x       y       z     vdW  Elec       q    Type
REMARK                         _______ _______ _______ _____ _____    ______ ____
ROOT
ATOM      1  N   UNL     1       3.434   2.433   0.342  0.00  0.00    -0.226 NA
ATOM      2  C   UNL     1       4.462   1.958   1.010  0.00  0.00    +0.166 C 
ATOM      3  N   UNL     1       5.788   2.320   0.913  0.00  0.00    -0.260 N 
ATOM      4  C   UNL     1       6.702   1.734   1.668  0.00  0.00    +0.256 C 
ATOM      5  O   UNL     1       7.878   2.041   1.596  0.00  0.00    -0.269 OA
ATOM      6  C   UNL     1       6.236   0.696   2.601  0.00  0.00    +0.078 C 
ATOM      7  C   UNL     1       6.949  -0.056   3.481  0.00  0.00    +0.028 C 
ATOM      8  S   UNL     1       4.480   0.694   2.271  0.00  0.00    -0.049 S 
ATOM      9  H   UNL     1       6.053   3.010   0.285  0.00  0.00    +0.157 HD
ENDROOT
BRANCH   1  12
ATOM     10  C   UNL     1      -0.164   2.330   0.962  0.00  0.00    +0.003 A 
ATOM     11  C   UNL     1       1.100   2.826   0.719  0.00  0.00    +0.028 A 
ATOM     12  C   UNL     1       2.178   1.947   0.583  0.00  0.00    +0.068 A 
ATOM     13  C   UNL     1       1.967   0.571   0.695  0.00  0.00    +0.047 A 
ATOM     14  C   UNL     1       0.697   0.088   0.938  0.00  0.00    +0.043 A 
ATOM     15  C   UNL     1      -0.366   0.966   1.071  0.00  0.00    +0.020 A 
ATOM     16 CL   UNL     1       0.432  -1.622   1.077  0.00  0.00    -0.083 Cl
ENDBRANCH   1  12
BRANCH   7  17
ATOM     17  C   UNL     1       6.292  -1.141   4.219  0.00  0.00    -0.017 A 
ATOM     18  C   UNL     1       6.958  -1.834   5.296  0.00  0.00    +0.015 A 
ATOM     19  C   UNL     1       6.245  -2.810   5.893  0.00  0.00    +0.046 A 
ATOM     20  S   UNL     1       4.702  -2.784   5.008  0.00  0.00    -0.104 S 
ATOM     21  C   UNL     1       5.006  -1.543   3.921  0.00  0.00    +0.053 A 
ENDBRANCH   7  17
TORSDOF 2
