REMARK  Name = ZINC59292984
REMARK  8 active torsions:
REMARK  status: ('A' for Active; 'I' for Inactive)
REMARK    1  A    between atoms: C_1  and  C_2
REMARK    2  A    between atoms: C_2  and  O_3
REMARK    3  A    between atoms: O_3  and  C_4
REMARK    4  A    between atoms: C_4  and  C_6
REMARK    5  A    between atoms: C_7  and  N_32
REMARK    6  A    between atoms: C_21  and  O_23
REMARK    7  A    between atoms: O_23  and  C_24
REMARK    8  A    between atoms: C_24  and  C_25
REMARK                            x       y       z     vdW  Elec       q    Type
REMARK                         _______ _______ _______ _____ _____    ______ ____
ROOT
ATOM      1  C   UNL     1       1.425  -2.323  -2.465  0.00  0.00    +0.117 C 
ATOM      2  C   UNL     1       1.611  -3.665  -2.581  0.00  0.00    +0.195 C 
ATOM      3  O   UNL     1       2.224  -4.188  -3.655  0.00  0.00    -0.446 OA
ATOM      4  C   UNL     1       2.301  -3.494  -4.806  0.00  0.00    +0.115 C 
ATOM      5  C   UNL     1       2.161  -2.155  -4.824  0.00  0.00    +0.057 C 
ATOM      6  C   UNL     1       1.897  -1.399  -3.549  0.00  0.00    +0.142 C 
ATOM      7  C   UNL     1       3.122  -0.650  -3.123  0.00  0.00    -0.000 A 
ATOM      8  C   UNL     1       4.379  -1.087  -2.764  0.00  0.00    +0.022 A 
ATOM      9  C   UNL     1       5.310  -0.114  -2.415  0.00  0.00    +0.018 A 
ATOM     10  C   UNL     1       4.985   1.228  -2.429  0.00  0.00    +0.017 A 
ATOM     11  C   UNL     1       3.722   1.674  -2.788  0.00  0.00    +0.025 A 
ATOM     12  C   UNL     1       2.780   0.706  -3.140  0.00  0.00    +0.052 A 
ATOM     13  N   UNL     1       1.460   0.865  -3.536  0.00  0.00    -0.174 N 
ATOM     14  C   UNL     1       0.866  -0.318  -3.796  0.00  0.00    +0.249 C 
ATOM     15  O   UNL     1      -0.279  -0.484  -4.161  0.00  0.00    -0.273 OA
ATOM     16  C   UNL     1       0.845   2.059  -3.646  0.00  0.00    +0.414 C 
ATOM     17  O   UNL     1       1.451   3.081  -3.392  0.00  0.00    -0.225 OA
ATOM     18 BR   UNL     1       7.055  -0.639  -1.912  0.00  0.00    -0.050 Br
ATOM     19  C   UNL     1       2.255  -1.425  -6.024  0.00  0.00    +0.164 C 
ATOM     20  O   UNL     1       2.103  -0.220  -6.003  0.00  0.00    -0.292 OA
ATOM     21  C   UNL     1       2.540  -2.111  -7.333  0.00  0.00    +0.080 C 
ATOM     22  C   UNL     1       3.342  -3.388  -7.060  0.00  0.00    +0.016 C 
ATOM     23  C   UNL     1       2.548  -4.259  -6.085  0.00  0.00    +0.075 C 
ENDROOT
BRANCH   2  24
ATOM     24  N   UNL     1       1.166  -4.496  -1.588  0.00  0.00    -0.329 N 
ATOM     25  H   UNL     1       0.656  -4.135  -0.846  0.00  0.00    +0.145 HD
ATOM     26  H   UNL     1       1.361  -5.445  -1.626  0.00  0.00    +0.145 HD
ENDBRANCH   2  24
BRANCH   1  27
ATOM     27  C   UNL     1       0.784  -1.801  -1.331  0.00  0.00    +0.342 C 
ATOM     28  O   UNL     1       1.442  -1.300  -0.436  0.00  0.00    -0.245 OA
BRANCH  27  29
ATOM     29  O   UNL     1      -0.562  -1.854  -1.231  0.00  0.00    -0.462 OA
BRANCH  29  31
ATOM     30  C   UNL     1      -2.668  -1.454  -0.116  0.00  0.00    +0.048 C 
ATOM     31  C   UNL     1      -1.147  -1.304  -0.050  0.00  0.00    +0.229 C 
ENDBRANCH  29  31
ENDBRANCH  27  29
ENDBRANCH   1  27
BRANCH  16  32
ATOM     32  O   UNL     1      -0.441   2.119  -4.038  0.00  0.00    -0.450 OA
BRANCH  32  33
ATOM     33  C   UNL     1      -1.030   3.418  -4.133  0.00  0.00    +0.230 C 
ATOM     34  C   UNL     1      -2.485   3.286  -4.590  0.00  0.00    +0.048 C 
ENDBRANCH  32  33
ENDBRANCH  16  32
TORSDOF 6
