REMARK  Name = ZINC06894730
REMARK  6 active torsions:
REMARK  status: ('A' for Active; 'I' for Inactive)
REMARK    1  A    between atoms: C_1  and  C_2
REMARK    2  A    between atoms: C_2  and  O_3
REMARK    3  A    between atoms: O_3  and  C_4
REMARK    4  A    between atoms: C_7  and  C_10
REMARK    5  A    between atoms: C_10  and  N_11
REMARK    6  A    between atoms: C_12  and  C_14
REMARK                            x       y       z     vdW  Elec       q    Type
REMARK                         _______ _______ _______ _____ _____    ______ ____
ROOT
ATOM      1  C   UNL     1      -2.670   1.070  -2.610  0.00  0.00    +0.076 C 
ATOM      2  C   UNL     1      -1.405   0.451  -1.956  0.00  0.00    -0.003 C 
ATOM      3  C   UNL     1      -0.824   1.660  -1.185  0.00  0.00    -0.066 C 
ATOM      4  C   UNL     1      -0.043   1.154   0.037  0.00  0.00    -0.017 C 
ATOM      5  C   UNL     1      -0.833   1.664   1.265  0.00  0.00    -0.020 C 
ATOM      6  C   UNL     1      -2.257   1.878   0.692  0.00  0.00    -0.077 C 
ATOM      7  C   UNL     1      -3.152   2.067  -1.544  0.00  0.00    +0.052 C 
ATOM      8  C   UNL     1      -3.725   3.301  -2.187  0.00  0.00    -0.027 A 
ATOM      9  C   UNL     1      -3.201   4.260  -3.025  0.00  0.00    +0.004 A 
ATOM     10  C   UNL     1      -3.994   5.306  -3.462  0.00  0.00    +0.000 A 
ATOM     11  C   UNL     1      -5.313   5.386  -3.054  0.00  0.00    +0.002 A 
ATOM     12  C   UNL     1      -5.842   4.427  -2.215  0.00  0.00    +0.023 A 
ATOM     13  C   UNL     1      -5.050   3.371  -1.771  0.00  0.00    +0.036 A 
ATOM     14  N   UNL     1      -5.349   2.296  -0.931  0.00  0.00    -0.286 N 
ATOM     15  C   UNL     1      -4.291   1.485  -0.747  0.00  0.00    +0.212 C 
ATOM     16  O   UNL     1      -4.260   0.480  -0.070  0.00  0.00    -0.277 OA
ATOM     17  H   UNL     1      -6.220   2.151  -0.528  0.00  0.00    +0.155 HD
ATOM     18  N   UNL     1      -1.995   2.364  -0.676  0.00  0.00    +0.394 N 
ATOM     19  H   UNL     1      -1.822   3.376  -0.661  0.00  0.00    -0.079 HD
ENDROOT
BRANCH   1  21
ATOM     20  N   UNL     1      -3.239   1.910  -4.866  0.00  0.00    -0.311 N 
ATOM     21  C   UNL     1      -2.319   1.785  -3.889  0.00  0.00    +0.216 C 
ATOM     22  O   UNL     1      -1.208   2.248  -4.039  0.00  0.00    -0.276 OA
ATOM     23  H   UNL     1      -4.127   1.540  -4.745  0.00  0.00    +0.149 HD
BRANCH  20  24
ATOM     24  C   UNL     1      -2.897   2.605  -6.109  0.00  0.00    +0.139 C 
BRANCH  24  28
ATOM     25  C   UNL     1      -6.283   2.609  -8.716  0.00  0.00    +0.121 A 
ATOM     26  C   UNL     1      -6.100   3.646  -7.813  0.00  0.00    +0.046 A 
ATOM     27  C   UNL     1      -5.005   3.643  -6.972  0.00  0.00    +0.009 A 
ATOM     28  C   UNL     1      -4.091   2.606  -7.029  0.00  0.00    -0.030 A 
ATOM     29  C   UNL     1      -4.268   1.574  -7.931  0.00  0.00    +0.009 A 
ATOM     30  C   UNL     1      -5.365   1.570  -8.771  0.00  0.00    +0.046 A 
BRANCH  25  31
ATOM     31  O   UNL     1      -7.360   2.611  -9.546  0.00  0.00    -0.492 OA
BRANCH  31  33
ATOM     32  C   UNL     1      -8.747   1.686 -11.295  0.00  0.00    +0.048 C 
ATOM     33  C   UNL     1      -7.484   1.511 -10.449  0.00  0.00    +0.225 C 
ENDBRANCH  31  33
ENDBRANCH  25  31
ENDBRANCH  24  28
ENDBRANCH  20  24
ENDBRANCH   1  21
TORSDOF 5
