REMARK  Name = ZINC66701050
REMARK  10 active torsions:
REMARK  status: ('A' for Active; 'I' for Inactive)
REMARK    1  A    between atoms: C_1  and  C_2
REMARK    2  A    between atoms: C_2  and  C_3
REMARK    3  A    between atoms: C_3  and  N_4
REMARK    4  A    between atoms: N_4  and  C_5
REMARK    5  A    between atoms: C_5  and  C_6
REMARK    6  A    between atoms: C_11  and  O_12
REMARK    7  A    between atoms: N_15  and  C_16
REMARK    8  A    between atoms: C_16  and  C_18
REMARK    9  A    between atoms: C_16  and  C_19
REMARK   10  A    between atoms: C_19  and  C_20
REMARK                            x       y       z     vdW  Elec       q    Type
REMARK                         _______ _______ _______ _____ _____    ______ ____
ROOT
ATOM      1  N   UNL     1       0.762  -1.976   1.234  0.00  0.00    -0.281 N 
ATOM      2  C   UNL     1      -0.234  -2.667   1.823  0.00  0.00    +0.303 C 
ATOM      3  O   UNL     1      -0.217  -3.882   1.816  0.00  0.00    -0.253 OA
ATOM      4  N   UNL     1      -1.248  -2.010   2.420  0.00  0.00    -0.296 N 
ATOM      5  H   UNL     1      -1.261  -1.040   2.425  0.00  0.00    +0.151 HD
ENDROOT
BRANCH   4   6
ATOM      6  C   UNL     1      -2.331  -2.760   3.061  0.00  0.00    +0.076 C 
ATOM      7  C   UNL     1      -3.382  -3.133   2.013  0.00  0.00    +0.028 C 
BRANCH   6   8
ATOM      8  C   UNL     1      -2.976  -1.898   4.147  0.00  0.00    +0.057 C 
BRANCH   8   9
ATOM      9  C   UNL     1      -1.973  -1.633   5.240  0.00  0.00    -0.039 A 
ATOM     10  C   UNL     1      -1.862  -2.497   6.314  0.00  0.00    +0.011 A 
ATOM     11  C   UNL     1      -0.950  -2.230   7.280  0.00  0.00    +0.045 A 
ATOM     12  S   UNL     1      -0.210  -0.719   6.682  0.00  0.00    -0.105 S 
ATOM     13  C   UNL     1      -1.163  -0.548   5.182  0.00  0.00    +0.049 A 
ENDBRANCH   8   9
ENDBRANCH   6   8
ENDBRANCH   4   6
BRANCH   1  14
ATOM     14  C   UNL     1       0.742  -0.511   1.242  0.00  0.00    +0.109 C 
BRANCH  14  16
ATOM     15  C   UNL     1      -0.019   1.526   0.010  0.00  0.00    +0.005 C 
ATOM     16  C   UNL     1       0.002  -0.004   0.002  0.00  0.00    +0.016 C 
ENDBRANCH  14  16
ENDBRANCH   1  14
BRANCH   1  17
ATOM     17  C   UNL     1       1.864  -2.690   0.585  0.00  0.00    +0.148 C 
BRANCH  17  18
ATOM     18  C   UNL     1       2.965  -2.932   1.586  0.00  0.00    +0.011 A 
ATOM     19  C   UNL     1       4.072  -2.106   1.609  0.00  0.00    +0.009 A 
ATOM     20  C   UNL     1       5.082  -2.328   2.527  0.00  0.00    +0.001 A 
ATOM     21  C   UNL     1       4.986  -3.375   3.424  0.00  0.00    +0.004 A 
ATOM     22  C   UNL     1       3.881  -4.203   3.406  0.00  0.00    +0.046 A 
ATOM     23  C   UNL     1       2.863  -3.980   2.489  0.00  0.00    +0.122 A 
BRANCH  23  24
ATOM     24  O   UNL     1       1.772  -4.789   2.472  0.00  0.00    -0.506 OA
ATOM     25  H   UNL     1       1.861  -5.558   1.893  0.00  0.00    +0.292 HD
ENDBRANCH  23  24
ENDBRANCH  17  18
ENDBRANCH   1  17
TORSDOF 8
