REMARK  Name = ZINC39501670
REMARK  11 active torsions:
REMARK  status: ('A' for Active; 'I' for Inactive)
REMARK    1  A    between atoms: C_1  and  C_2
REMARK    2  A    between atoms: C_5  and  S_9
REMARK    3  A    between atoms: C_7  and  C_8
REMARK    4  A    between atoms: S_9  and  N_12
REMARK    5  A    between atoms: N_12  and  C_13
REMARK    6  A    between atoms: C_13  and  C_14
REMARK    7  A    between atoms: C_14  and  O_16
REMARK    8  A    between atoms: O_16  and  C_17
REMARK    9  A    between atoms: C_17  and  C_19
REMARK   10  A    between atoms: C_17  and  C_20
REMARK   11  A    between atoms: N_22  and  C_23
REMARK                            x       y       z     vdW  Elec       q    Type
REMARK                         _______ _______ _______ _____ _____    ______ ____
ROOT
ATOM      1  C   UNL     1       3.782  -5.506   1.022  0.00  0.00    +0.323 C 
ATOM      2  O   UNL     1       3.944  -6.264   0.096  0.00  0.00    -0.249 OA
ENDROOT
BRANCH   1   3
ATOM      3  C   UNL     1       2.527  -4.675   1.105  0.00  0.00    +0.226 C 
BRANCH   3   4
ATOM      4  N   UNL     1       1.671  -4.967  -0.047  0.00  0.00    -0.179 NA
ATOM      5  H   UNL     1       2.034  -5.436  -0.815  0.00  0.00    +0.149 HD
BRANCH   4   6
ATOM      6  S   UNL     1       0.084  -4.495  -0.041  0.00  0.00    +0.059 S 
ATOM      7  O   UNL     1      -0.461  -4.921   1.200  0.00  0.00    -0.153 OA
ATOM      8  O   UNL     1      -0.463  -4.892  -1.290  0.00  0.00    -0.153 OA
BRANCH   6  13
ATOM      9  C   UNL     1       0.015   1.538   0.030  0.00  0.00    +0.044 C 
ATOM     10  C   UNL     1       0.032   0.032   0.013  0.00  0.00    -0.047 A 
ATOM     11  C   UNL     1       0.040  -0.646  -1.193  0.00  0.00    +0.005 A 
ATOM     12  C   UNL     1       0.056  -2.027  -1.209  0.00  0.00    +0.029 A 
ATOM     13  C   UNL     1       0.065  -2.733  -0.020  0.00  0.00    +0.106 A 
ATOM     14  C   UNL     1       0.058  -2.056   1.185  0.00  0.00    +0.032 A 
ATOM     15  C   UNL     1       0.046  -0.673   1.201  0.00  0.00    -0.046 A 
ATOM     16  C   UNL     1       0.043   0.065   2.515  0.00  0.00    +0.044 C 
ENDBRANCH   6  13
ENDBRANCH   4   6
ENDBRANCH   3   4
ENDBRANCH   1   3
BRANCH   1  17
ATOM     17  O   UNL     1       4.719  -5.404   1.978  0.00  0.00    -0.451 OA
BRANCH  17  18
ATOM     18  C   UNL     1       5.882  -6.221   1.836  0.00  0.00    +0.259 C 
ATOM     19  C   UNL     1       6.945  -5.461   1.039  0.00  0.00    +0.062 C 
BRANCH  18  20
ATOM     20  C   UNL     1       6.426  -6.563   3.199  0.00  0.00    +0.258 C 
ATOM     21  O   UNL     1       5.872  -6.148   4.195  0.00  0.00    -0.271 OA
ATOM     22  N   UNL     1       7.529  -7.330   3.312  0.00  0.00    -0.281 N 
ATOM     23  H   UNL     1       7.925  -7.728   2.522  0.00  0.00    +0.155 HD
BRANCH  22  24
ATOM     24  C   UNL     1       8.101  -7.552   4.570  0.00  0.00    +0.053 A 
ATOM     25  C   UNL     1       7.903  -6.637   5.596  0.00  0.00    +0.046 A 
ATOM     26  C   UNL     1       8.469  -6.859   6.837  0.00  0.00    +0.061 A 
ATOM     27  C   UNL     1       9.234  -7.992   7.058  0.00  0.00    +0.061 A 
ATOM     28  C   UNL     1       9.433  -8.905   6.038  0.00  0.00    +0.043 A 
ATOM     29  C   UNL     1       8.864  -8.691   4.797  0.00  0.00    +0.064 A 
ATOM     30 CL   UNL     1       9.107  -9.842   3.519  0.00  0.00    -0.082 Cl
ATOM     31 CL   UNL     1       9.944  -8.267   8.618  0.00  0.00    -0.082 Cl
ATOM     32 CL   UNL     1       8.223  -5.715   8.119  0.00  0.00    -0.082 Cl
ENDBRANCH  22  24
ENDBRANCH  18  20
ENDBRANCH  17  18
ENDBRANCH   1  17
TORSDOF 8
