REMARK  Name = ZINC48439883
REMARK  11 active torsions:
REMARK  status: ('A' for Active; 'I' for Inactive)
REMARK    1  A    between atoms: C_1  and  C_2
REMARK    2  A    between atoms: C_2  and  C_3
REMARK    3  A    between atoms: C_3  and  C_4
REMARK    4  A    between atoms: C_4  and  C_6
REMARK    5  A    between atoms: C_4  and  N_7
REMARK    6  A    between atoms: C_8  and  C_10
REMARK    7  A    between atoms: C_10  and  C_12
REMARK    8  A    between atoms: C_10  and  N_13
REMARK    9  A    between atoms: N_13  and  C_14
REMARK   10  A    between atoms: C_19  and  O_20
REMARK   11  A    between atoms: O_20  and  C_21
REMARK                            x       y       z     vdW  Elec       q    Type
REMARK                         _______ _______ _______ _____ _____    ______ ____
ROOT
ATOM      1  C   UNL     1      -2.325  -4.294   1.028  0.00  0.00    +0.154 C 
ATOM      2  C   UNL     1      -2.705  -4.359   2.508  0.00  0.00    +0.038 C 
ENDROOT
BRANCH   1   4
ATOM      3  N   UNL     1      -0.605  -2.548   1.364  0.00  0.00    -0.311 N 
ATOM      4  C   UNL     1      -0.918  -3.772   0.893  0.00  0.00    +0.233 C 
ATOM      5  O   UNL     1      -0.066  -4.453   0.362  0.00  0.00    -0.274 OA
ATOM      6  H   UNL     1      -1.286  -2.004   1.789  0.00  0.00    +0.149 HD
BRANCH   3   7
ATOM      7  C   UNL     1       0.763  -2.041   1.233  0.00  0.00    +0.070 C 
ATOM      8  C   UNL     1       1.608  -2.546   2.404  0.00  0.00    +0.028 C 
BRANCH   7   9
ATOM      9  C   UNL     1       0.742  -0.511   1.242  0.00  0.00    +0.022 C 
BRANCH   9  11
ATOM     10  C   UNL     1      -0.019   1.526   0.010  0.00  0.00    +0.004 C 
ATOM     11  C   UNL     1       0.002  -0.004   0.002  0.00  0.00    -0.002 C 
ENDBRANCH   9  11
ENDBRANCH   7   9
ENDBRANCH   3   7
ENDBRANCH   1   4
BRANCH   1  12
ATOM     12  N   UNL     1      -2.406  -5.635   0.444  0.00  0.00    -0.330 N 
ATOM     13  H   UNL     1      -1.611  -6.188   0.386  0.00  0.00    +0.147 HD
BRANCH  12  14
ATOM     14  C   UNL     1      -3.631  -6.119  -0.030  0.00  0.00    +0.071 A 
ATOM     15  C   UNL     1      -4.768  -5.328   0.047  0.00  0.00    +0.042 A 
ATOM     16  C   UNL     1      -5.977  -5.809  -0.423  0.00  0.00    +0.020 A 
ATOM     17  C   UNL     1      -6.055  -7.077  -0.969  0.00  0.00    +0.019 A 
ATOM     18  C   UNL     1      -4.925  -7.870  -1.049  0.00  0.00    +0.048 A 
ATOM     19  C   UNL     1      -3.710  -7.394  -0.586  0.00  0.00    +0.141 A 
ATOM     20 BR   UNL     1      -7.526  -4.730  -0.316  0.00  0.00    -0.050 Br
BRANCH  19  21
ATOM     21  O   UNL     1      -2.597  -8.172  -0.669  0.00  0.00    -0.493 OA
ATOM     22  C   UNL     1      -2.753  -9.468  -1.251  0.00  0.00    +0.277 C 
ENDBRANCH  19  21
ENDBRANCH  12  14
ENDBRANCH   1  12
TORSDOF 7
