REMARK  Name = ZINC09291428
REMARK  11 active torsions:
REMARK  status: ('A' for Active; 'I' for Inactive)
REMARK    1  A    between atoms: C_1  and  C_2
REMARK    2  A    between atoms: C_5  and  C_36
REMARK    3  A    between atoms: N_8  and  S_10
REMARK    4  A    between atoms: S_10  and  C_13
REMARK    5  A    between atoms: C_17  and  C_19
REMARK    6  A    between atoms: N_23  and  C_24
REMARK    7  A    between atoms: N_30  and  C_31
REMARK    8  A    between atoms: C_31  and  C_32
REMARK    9  A    between atoms: C_32  and  C_33
REMARK   10  A    between atoms: C_33  and  O_34
REMARK   11  A    between atoms: O_34  and  C_35
REMARK                            x       y       z     vdW  Elec       q    Type
REMARK                         _______ _______ _______ _____ _____    ______ ____
ROOT
ATOM      1  C   UNL     1       4.929  -2.618  -0.311  0.00  0.00    +0.058 A 
ATOM      2  C   UNL     1       4.709  -3.539  -1.270  0.00  0.00    +0.075 A 
ATOM      3  S   UNL     1       3.136  -4.225  -0.777  0.00  0.00    -0.059 S 
ATOM      4  C   UNL     1       2.873  -3.222   0.677  0.00  0.00    +0.152 A 
ATOM      5  N   UNL     1       1.861  -3.230   1.523  0.00  0.00    -0.336 N 
ATOM      6  N   UNL     1       4.007  -2.444   0.685  0.00  0.00    -0.321 N 
ATOM      7  H   UNL     1       1.081  -4.001   1.441  0.00  0.00    +0.168 HD
ENDROOT
BRANCH   1  12
ATOM      8  C   UNL     1       8.555  -1.645  -0.450  0.00  0.00    +0.106 A 
ATOM      9  C   UNL     1       8.467  -0.266  -0.379  0.00  0.00    +0.028 A 
ATOM     10  C   UNL     1       7.232   0.350  -0.285  0.00  0.00    +0.003 A 
ATOM     11  C   UNL     1       6.079  -0.407  -0.268  0.00  0.00    +0.010 A 
ATOM     12  C   UNL     1       6.161  -1.799  -0.334  0.00  0.00    +0.001 A 
ATOM     13  C   UNL     1       7.410  -2.415  -0.428  0.00  0.00    +0.038 A 
BRANCH   8  14
ATOM     14  S   UNL     1      10.133  -2.421  -0.569  0.00  0.00    +0.061 S 
ATOM     15  O   UNL     1      11.075  -1.509  -0.022  0.00  0.00    -0.153 OA
ATOM     16  O   UNL     1       9.974  -3.743  -0.073  0.00  0.00    -0.153 OA
BRANCH  14  22
ATOM     17  C   UNL     1       8.990  -4.542  -5.037  0.00  0.00    +0.009 C 
ATOM     18  C   UNL     1       9.296  -3.320  -4.168  0.00  0.00    +0.002 C 
ATOM     19  C   UNL     1      10.122  -2.314  -4.974  0.00  0.00    +0.009 C 
ATOM     20  C   UNL     1      10.401  -1.078  -4.117  0.00  0.00    +0.002 C 
ATOM     21  C   UNL     1      11.210  -1.489  -2.883  0.00  0.00    +0.112 C 
ATOM     22  N   UNL     1      10.490  -2.560  -2.180  0.00  0.00    -0.176 NA
ATOM     23  C   UNL     1      10.097  -3.759  -2.933  0.00  0.00    +0.112 C 
ATOM     24  C   UNL     1       9.076  -0.453  -3.675  0.00  0.00    +0.009 C 
ENDBRANCH  14  22
ENDBRANCH   8  14
ENDBRANCH   1  12
BRANCH   5  25
ATOM     25  C   UNL     1       1.782  -2.280   2.503  0.00  0.00    +0.041 A 
ATOM     26  C   UNL     1       1.194  -1.041   2.234  0.00  0.00    +0.025 A 
ATOM     27  C   UNL     1       1.117  -0.087   3.227  0.00  0.00    +0.002 A 
ATOM     28  C   UNL     1       1.621  -0.355   4.488  0.00  0.00    +0.000 A 
ATOM     29  C   UNL     1       2.204  -1.579   4.762  0.00  0.00    +0.002 A 
ATOM     30  C   UNL     1       2.288  -2.543   3.779  0.00  0.00    +0.025 A 
ENDBRANCH   5  25
BRANCH   6  31
ATOM     31  C   UNL     1       4.223  -1.449   1.739  0.00  0.00    +0.126 C 
BRANCH  31  32
ATOM     32  C   UNL     1       5.041  -2.074   2.870  0.00  0.00    +0.050 C 
BRANCH  32  33
ATOM     33  C   UNL     1       5.357  -1.007   3.920  0.00  0.00    +0.161 C 
BRANCH  33  34
ATOM     34  O   UNL     1       6.200  -1.566   4.929  0.00  0.00    -0.383 OA
ATOM     35  C   UNL     1       6.557  -0.647   5.963  0.00  0.00    +0.193 C 
ENDBRANCH  33  34
ENDBRANCH  32  33
ENDBRANCH  31  32
ENDBRANCH   6  31
TORSDOF 8
