REMARK  Name = ZINC03044201
REMARK  10 active torsions:
REMARK  status: ('A' for Active; 'I' for Inactive)
REMARK    1  A    between atoms: C_1  and  C_2
REMARK    2  A    between atoms: C_5  and  C_33
REMARK    3  A    between atoms: C_6  and  C_8
REMARK    4  A    between atoms: C_8  and  N_9
REMARK    5  A    between atoms: N_17  and  N_18
REMARK    6  A    between atoms: N_18  and  C_19
REMARK    7  A    between atoms: C_19  and  N_21
REMARK    8  A    between atoms: N_21  and  C_22
REMARK    9  A    between atoms: C_23  and  C_29
REMARK   10  A    between atoms: C_27  and  C_28
REMARK                            x       y       z     vdW  Elec       q    Type
REMARK                         _______ _______ _______ _____ _____    ______ ____
ROOT
ATOM      1  N   UNL     1       1.394  -3.244   3.029  0.00  0.00    -0.261 N 
ATOM      2  C   UNL     1       2.122  -3.473   1.865  0.00  0.00    +0.046 A 
ATOM      3  C   UNL     1       1.720  -3.782   0.570  0.00  0.00    +0.025 A 
ATOM      4  C   UNL     1       2.662  -3.963  -0.422  0.00  0.00    +0.017 A 
ATOM      5  C   UNL     1       4.013  -3.839  -0.144  0.00  0.00    +0.019 A 
ATOM      6  C   UNL     1       4.431  -3.532   1.137  0.00  0.00    +0.027 A 
ATOM      7  C   UNL     1       3.489  -3.348   2.143  0.00  0.00    +0.029 A 
ATOM      8  C   UNL     1       3.595  -3.020   3.584  0.00  0.00    +0.153 C 
ATOM      9  N   UNL     1       4.689  -2.814   4.278  0.00  0.00    -0.175 NA
ATOM     10  C   UNL     1       2.202  -2.969   4.067  0.00  0.00    +0.272 C 
ATOM     11  O   UNL     1       1.847  -2.723   5.205  0.00  0.00    -0.268 OA
ATOM     12 BR   UNL     1       5.288  -4.091  -1.518  0.00  0.00    -0.050 Br
ENDROOT
BRANCH   9  13
ATOM     13  N   UNL     1       4.606  -2.511   5.643  0.00  0.00    -0.217 N 
ATOM     14  H   UNL     1       3.740  -2.454   6.075  0.00  0.00    +0.176 HD
BRANCH  13  15
ATOM     15  C   UNL     1       5.730  -2.300   6.356  0.00  0.00    +0.154 C 
ATOM     16  S   UNL     1       5.629  -1.930   8.024  0.00  0.00    -0.017 S 
BRANCH  15  17
ATOM     17  N   UNL     1       6.934  -2.380   5.755  0.00  0.00    -0.295 N 
ATOM     18  H   UNL     1       6.994  -2.638   4.822  0.00  0.00    +0.154 HD
BRANCH  17  19
ATOM     19  C   UNL     1       8.097  -2.092   6.478  0.00  0.00    +0.039 A 
ATOM     20  C   UNL     1       9.129  -3.020   6.534  0.00  0.00    -0.029 A 
ATOM     21  C   UNL     1      10.275  -2.732   7.248  0.00  0.00    +0.005 A 
ATOM     22  C   UNL     1      10.396  -1.523   7.907  0.00  0.00    +0.001 A 
ATOM     23  C   UNL     1       9.370  -0.597   7.854  0.00  0.00    +0.005 A 
ATOM     24  C   UNL     1       8.223  -0.876   7.136  0.00  0.00    -0.029 A 
ATOM     25  C   UNL     1       7.109   0.136   7.072  0.00  0.00    +0.045 C 
ATOM     26  C   UNL     1       8.998  -4.339   5.817  0.00  0.00    +0.045 C 
ENDBRANCH  17  19
ENDBRANCH  15  17
ENDBRANCH  13  15
ENDBRANCH   9  13
BRANCH   1  27
ATOM     27  C   UNL     1      -0.068  -3.293   3.110  0.00  0.00    +0.149 C 
BRANCH  27  33
ATOM     28  C   UNL     1       1.055  -8.094   3.967  0.00  0.00    +0.044 C 
ATOM     29  C   UNL     1       0.028  -7.002   3.807  0.00  0.00    -0.050 A 
ATOM     30  C   UNL     1      -1.318  -7.296   3.923  0.00  0.00    +0.003 A 
ATOM     31  C   UNL     1      -2.259  -6.294   3.776  0.00  0.00    +0.004 A 
ATOM     32  C   UNL     1      -1.854  -4.999   3.513  0.00  0.00    -0.046 A 
ATOM     33  C   UNL     1      -0.509  -4.705   3.397  0.00  0.00    -0.027 A 
ATOM     34  C   UNL     1       0.433  -5.706   3.549  0.00  0.00    +0.008 A 
ATOM     35  C   UNL     1      -2.881  -3.907   3.352  0.00  0.00    +0.044 C 
ENDBRANCH  27  33
ENDBRANCH   1  27
TORSDOF 6
