REMARK  Name = ZINC02284055
REMARK  4 active torsions:
REMARK  status: ('A' for Active; 'I' for Inactive)
REMARK    1  A    between atoms: C_1  and  N_2
REMARK    2  A    between atoms: C_13  and  C_15
REMARK    3  A    between atoms: N_26  and  C_27
REMARK    4  A    between atoms: C_27  and  C_28
REMARK                            x       y       z     vdW  Elec       q    Type
REMARK                         _______ _______ _______ _____ _____    ______ ____
ROOT
ATOM      1  C   UNL     1      -3.729   2.106   0.049  0.00  0.00    +0.193 C 
ATOM      2  N   UNL     1      -3.570   3.403  -0.621  0.00  0.00    -0.321 N 
ATOM      3  C   UNL     1      -3.503   3.429  -2.009  0.00  0.00    +0.041 A 
ATOM      4  C   UNL     1      -2.786   4.397  -2.690  0.00  0.00    +0.024 A 
ATOM      5  C   UNL     1      -2.744   4.372  -4.071  0.00  0.00    +0.002 A 
ATOM      6  C   UNL     1      -3.413   3.386  -4.779  0.00  0.00    +0.001 A 
ATOM      7  C   UNL     1      -4.134   2.414  -4.115  0.00  0.00    +0.015 A 
ATOM      8  C   UNL     1      -4.186   2.429  -2.724  0.00  0.00    +0.058 A 
ATOM      9  C   UNL     1      -4.944   1.418  -1.965  0.00  0.00    +0.250 C 
ATOM     10  O   UNL     1      -5.743   0.696  -2.530  0.00  0.00    -0.270 OA
ATOM     11  N   UNL     1      -4.742   1.303  -0.636  0.00  0.00    -0.271 N 
ATOM     12  H   UNL     1      -3.514   4.223  -0.106  0.00  0.00    +0.148 HD
ENDROOT
BRANCH   1  25
ATOM     13  C   UNL     1       1.756  -1.821  -0.025  0.00  0.00    +0.149 C 
ATOM     14  N   UNL     1       1.321  -0.422  -0.013  0.00  0.00    -0.343 N 
ATOM     15  C   UNL     1       2.170   0.670  -0.015  0.00  0.00    +0.050 A 
ATOM     16  C   UNL     1       3.558   0.778  -0.028  0.00  0.00    +0.026 A 
ATOM     17  C   UNL     1       4.153   2.021  -0.027  0.00  0.00    +0.002 A 
ATOM     18  C   UNL     1       3.381   3.173  -0.013  0.00  0.00    +0.001 A 
ATOM     19  C   UNL     1       2.006   3.086  -0.001  0.00  0.00    +0.010 A 
ATOM     20  C   UNL     1       1.391   1.836  -0.001  0.00  0.00    +0.008 A 
ATOM     21  C   UNL     1      -0.017   1.399   0.010  0.00  0.00    +0.008 A 
ATOM     22  C   UNL     1       0.002  -0.004   0.002  0.00  0.00    +0.050 A 
ATOM     23  C   UNL     1      -1.202  -0.701   0.010  0.00  0.00    +0.027 A 
ATOM     24  C   UNL     1      -2.397  -0.015   0.025  0.00  0.00    +0.009 A 
ATOM     25  C   UNL     1      -2.414   1.371   0.033  0.00  0.00    -0.009 A 
ATOM     26  C   UNL     1      -1.231   2.080   0.030  0.00  0.00    +0.017 A 
ENDBRANCH   1  25
BRANCH  11  27
ATOM     27  C   UNL     1      -5.551   0.356   0.136  0.00  0.00    +0.145 C 
BRANCH  27  28
ATOM     28  C   UNL     1      -6.794   1.047   0.634  0.00  0.00    -0.030 A 
ATOM     29  C   UNL     1      -6.787   1.679   1.864  0.00  0.00    +0.005 A 
ATOM     30  C   UNL     1      -7.925   2.317   2.320  0.00  0.00    +0.000 A 
ATOM     31  C   UNL     1      -9.073   2.316   1.550  0.00  0.00    +0.000 A 
ATOM     32  C   UNL     1      -9.082   1.679   0.323  0.00  0.00    +0.000 A 
ATOM     33  C   UNL     1      -7.942   1.045  -0.135  0.00  0.00    +0.005 A 
ENDBRANCH  27  28
ENDBRANCH  11  27
TORSDOF 3
