REMARK  Name = ZINC33289418
REMARK  6 active torsions:
REMARK  status: ('A' for Active; 'I' for Inactive)
REMARK    1  A    between atoms: C_1  and  C_2
REMARK    2  A    between atoms: C_4  and  C_31
REMARK    3  A    between atoms: C_6  and  N_8
REMARK    4  A    between atoms: C_9  and  C_11
REMARK    5  A    between atoms: C_11  and  N_12
REMARK    6  A    between atoms: C_26  and  C_30
REMARK                            x       y       z     vdW  Elec       q    Type
REMARK                         _______ _______ _______ _____ _____    ______ ____
ROOT
ATOM      1  N   UNL     1      -2.724   5.474   0.079  0.00  0.00    -0.217 N 
ATOM      2  C   UNL     1      -1.494   6.026   0.019  0.00  0.00    +0.366 A 
ATOM      3  O   UNL     1      -1.255   7.220  -0.044  0.00  0.00    -0.243 OA
ATOM      4  N   UNL     1      -0.582   5.052   0.038  0.00  0.00    -0.172 NA
ATOM      5  C   UNL     1      -1.189   3.874   0.110  0.00  0.00    +0.169 A 
ATOM      6  N   UNL     1      -2.539   4.084   0.138  0.00  0.00    -0.218 N 
ATOM      7  C   UNL     1      -3.404   3.042   0.211  0.00  0.00    +0.224 A 
ATOM      8  N   UNL     1      -2.974   1.809   0.256  0.00  0.00    -0.228 NA
ATOM      9  C   UNL     1      -1.674   1.530   0.231  0.00  0.00    +0.114 A 
ATOM     10  C   UNL     1      -0.694   2.536   0.152  0.00  0.00    +0.055 A 
ATOM     11  C   UNL     1       0.694   2.075   0.139  0.00  0.00    -0.024 A 
ATOM     12  C   UNL     1       0.897   0.742   0.193  0.00  0.00    -0.004 A 
ATOM     13  S   UNL     1      -0.725   0.031   0.273  0.00  0.00    -0.073 S 
ATOM     14  C   UNL     1       2.212   0.023   0.187  0.00  0.00    +0.046 C 
ATOM     15  C   UNL     1       3.300   1.007  -0.266  0.00  0.00    -0.009 C 
ATOM     16  C   UNL     1       3.138   2.312   0.519  0.00  0.00    +0.008 C 
ATOM     17  C   UNL     1       1.874   3.040   0.060  0.00  0.00    +0.037 C 
ATOM     18  C   UNL     1       4.681   0.407   0.008  0.00  0.00    +0.008 C 
ENDROOT
BRANCH   1  19
ATOM     19  C   UNL     1      -4.003   6.187   0.082  0.00  0.00    +0.243 C 
BRANCH  19  21
ATOM     20  N   UNL     1      -5.553   7.153   1.750  0.00  0.00    -0.284 N 
ATOM     21  C   UNL     1      -4.402   6.497   1.501  0.00  0.00    +0.239 C 
ATOM     22  O   UNL     1      -3.688   6.156   2.420  0.00  0.00    -0.273 OA
ATOM     23  H   UNL     1      -6.157   7.539   0.915  0.00  0.00    +0.155 HD
BRANCH  20  29
ATOM     24  C   UNL     1      -7.846   9.931   5.096  0.00  0.00    +0.044 C 
ATOM     25  C   UNL     1      -7.092   8.682   4.719  0.00  0.00    -0.048 A 
ATOM     26  C   UNL     1      -6.819   7.723   5.678  0.00  0.00    +0.006 A 
ATOM     27  C   UNL     1      -6.127   6.576   5.335  0.00  0.00    -0.048 A 
ATOM     28  C   UNL     1      -5.706   6.384   4.034  0.00  0.00    +0.026 A 
ATOM     29  C   UNL     1      -5.978   7.345   3.069  0.00  0.00    +0.034 A 
ATOM     30  C   UNL     1      -6.669   8.498   3.417  0.00  0.00    +0.026 A 
ATOM     31  C   UNL     1      -5.832   5.534   6.383  0.00  0.00    +0.044 C 
ENDBRANCH  20  29
ENDBRANCH  19  21
ENDBRANCH   1  19
TORSDOF 3
