REMARK  Name = ZINC65260010
REMARK  3 active torsions:
REMARK  status: ('A' for Active; 'I' for Inactive)
REMARK    1  A    between atoms: C_14  and  C_16
REMARK    2  A    between atoms: C_19  and  C_22
REMARK    3  A    between atoms: N_27  and  C_28
REMARK                            x       y       z     vdW  Elec       q    Type
REMARK                         _______ _______ _______ _____ _____    ______ ____
ROOT
ATOM      1  C   UNL     1      -0.017   1.378   0.010  0.00  0.00    +0.002 A 
ATOM      2  C   UNL     1       1.169   2.091   0.002  0.00  0.00    +0.002 A 
ATOM      3  C   UNL     1       2.380   1.425  -0.016  0.00  0.00    +0.025 A 
ATOM      4  C   UNL     1       2.408   0.038  -0.025  0.00  0.00    +0.053 A 
ATOM      5  C   UNL     1       1.213  -0.680  -0.013  0.00  0.00    +0.049 A 
ATOM      6  C   UNL     1       0.002  -0.004   0.002  0.00  0.00    +0.025 A 
ATOM      7  N   UNL     1       1.229  -2.083  -0.007  0.00  0.00    -0.329 N 
ATOM      8  C   UNL     1       2.464  -2.775  -0.398  0.00  0.00    +0.102 C 
ATOM      9  C   UNL     1       2.580  -2.811  -1.920  0.00  0.00    +0.036 C 
ATOM     10  C   UNL     1       1.386  -3.567  -2.508  0.00  0.00    +0.021 C 
ATOM     11  C   UNL     1       1.388  -5.005  -1.980  0.00  0.00    +0.108 C 
ATOM     12  N   UNL     1       1.409  -4.970  -0.511  0.00  0.00    -0.297 N 
ATOM     13  C   UNL     1       2.463  -4.197   0.161  0.00  0.00    +0.141 C 
ATOM     14  C   UNL     1       0.481  -5.634   0.205  0.00  0.00    +0.246 C 
ATOM     15  O   UNL     1       0.510  -5.597   1.417  0.00  0.00    -0.273 OA
ATOM     16  C   UNL     1       3.629  -2.000   0.183  0.00  0.00    +0.098 C 
ATOM     17  N   UNL     1       3.639  -0.637  -0.052  0.00  0.00    -0.301 N 
ATOM     18  N   UNL     1       4.564  -2.582   0.861  0.00  0.00    -0.372 N 
ATOM     19  H   UNL     1       0.441  -2.586   0.251  0.00  0.00    +0.147 HD
ATOM     20  H   UNL     1       4.531  -3.540   1.010  0.00  0.00    +0.161 HD
ATOM     21  H   UNL     1       4.468  -0.164  -0.230  0.00  0.00    +0.153 HD
ENDROOT
BRANCH  14  22
ATOM     22  C   UNL     1      -0.593  -6.422  -0.499  0.00  0.00    +0.238 C 
ATOM     23  C   UNL     1      -1.731  -5.513  -0.930  0.00  0.00    +0.036 C 
ATOM     24  C   UNL     1      -2.788  -5.984  -0.266  0.00  0.00    +0.065 C 
ATOM     25  N   UNL     1      -2.442  -7.043   0.499  0.00  0.00    -0.158 NA
ATOM     26  N   UNL     1      -1.247  -7.358   0.431  0.00  0.00    -0.170 NA
BRANCH  24  27
ATOM     27  C   UNL     1      -4.180  -5.412  -0.356  0.00  0.00    +0.039 C 
ATOM     28  C   UNL     1      -5.227  -5.946   0.623  0.00  0.00    +0.010 C 
ATOM     29  C   UNL     1      -5.292  -6.337  -0.854  0.00  0.00    +0.010 C 
ENDBRANCH  24  27
ENDBRANCH  14  22
BRANCH  18  30
ATOM     30  C   UNL     1       5.674  -1.794   1.405  0.00  0.00    +0.080 C 
ATOM     31  C   UNL     1       6.803  -1.680   0.360  0.00  0.00    +0.024 C 
ATOM     32  C   UNL     1       8.104  -1.756   1.197  0.00  0.00    +0.002 C 
ATOM     33  C   UNL     1       7.752  -2.802   2.283  0.00  0.00    +0.002 C 
ATOM     34  C   UNL     1       6.277  -2.507   2.628  0.00  0.00    +0.024 C 
ENDBRANCH  18  30
TORSDOF 3
