REMARK  Name = ZINC41153301
REMARK  5 active torsions:
REMARK  status: ('A' for Active; 'I' for Inactive)
REMARK    1  A    between atoms: C_1  and  O_2
REMARK    2  A    between atoms: O_2  and  C_3
REMARK    3  A    between atoms: C_6  and  C_10
REMARK    4  A    between atoms: C_12  and  C_15
REMARK    5  A    between atoms: C_15  and  N_21
REMARK                            x       y       z     vdW  Elec       q    Type
REMARK                         _______ _______ _______ _____ _____    ______ ____
ROOT
ATOM      1  C   UNL     1       2.492  -2.491  -4.362  0.00  0.00    +0.258 A 
ATOM      2  N   UNL     1       2.602  -3.787  -4.554  0.00  0.00    -0.193 NA
ATOM      3  C   UNL     1       3.253  -4.025  -5.695  0.00  0.00    +0.161 A 
ATOM      4  N   UNL     1       3.569  -2.890  -6.251  0.00  0.00    -0.062 NA
ATOM      5  O   UNL     1       3.076  -1.866  -5.399  0.00  0.00    -0.333 OA
ENDROOT
BRANCH   1   9
ATOM      6  C   UNL     1       0.605  -0.607  -1.055  0.00  0.00    +0.134 A 
ATOM      7  C   UNL     1       1.172   0.165  -2.061  0.00  0.00    +0.047 A 
ATOM      8  C   UNL     1       1.785  -0.442  -3.135  0.00  0.00    +0.017 A 
ATOM      9  C   UNL     1       1.837  -1.836  -3.212  0.00  0.00    +0.041 A 
ATOM     10  C   UNL     1       1.266  -2.609  -2.198  0.00  0.00    +0.032 A 
ATOM     11  C   UNL     1       0.659  -1.994  -1.124  0.00  0.00    +0.060 A 
ATOM     12 BR   UNL     1      -0.108  -3.038   0.253  0.00  0.00    -0.046 Br
BRANCH   6  14
ATOM     13  C   UNL     1      -0.017   1.425   0.010  0.00  0.00    +0.277 C 
ATOM     14  O   UNL     1       0.002  -0.004   0.002  0.00  0.00    -0.494 OA
ENDBRANCH   6  14
ENDBRANCH   1   9
BRANCH   3  15
ATOM     15  C   UNL     1       3.571  -5.389  -6.251  0.00  0.00    -0.006 C 
ATOM     16  C   UNL     1       4.441  -6.156  -5.253  0.00  0.00    -0.005 C 
ATOM     17  C   UNL     1       4.764  -7.541  -5.817  0.00  0.00    -0.001 C 
ATOM     18  C   UNL     1       5.518  -7.390  -7.140  0.00  0.00    -0.000 C 
ATOM     19  C   UNL     1       4.647  -6.622  -8.138  0.00  0.00    -0.001 C 
ATOM     20  C   UNL     1       4.324  -5.238  -7.573  0.00  0.00    -0.005 C 
BRANCH  15  21
ATOM     21  N   UNL     1       2.322  -6.128  -6.481  0.00  0.00    +0.387 N 
ATOM     22  H   UNL     1       1.748  -5.622  -7.138  0.00  0.00    -0.089 HD
ATOM     23  H   UNL     1       2.535  -7.041  -6.853  0.00  0.00    -0.089 HD
ATOM     24  H   UNL     1       1.825  -6.228  -5.608  0.00  0.00    -0.089 HD
ENDBRANCH  15  21
ENDBRANCH   3  15
TORSDOF 4
