REMARK  Name = ZINC13177229
REMARK  9 active torsions:
REMARK  status: ('A' for Active; 'I' for Inactive)
REMARK    1  A    between atoms: C_1  and  C_2
REMARK    2  A    between atoms: C_2  and  C_4
REMARK    3  A    between atoms: C_2  and  N_9
REMARK    4  A    between atoms: C_10  and  C_12
REMARK    5  A    between atoms: C_12  and  S_13
REMARK    6  A    between atoms: S_13  and  C_14
REMARK    7  A    between atoms: N_24  and  C_25
REMARK    8  A    between atoms: C_25  and  C_26
REMARK    9  A    between atoms: C_26  and  C_27
REMARK                            x       y       z     vdW  Elec       q    Type
REMARK                         _______ _______ _______ _____ _____    ______ ____
ROOT
ATOM      1  C   UNL     1      -0.368  -0.105   3.007  0.00  0.00    +0.173 A 
ATOM      2  N   UNL     1       0.225  -0.603   4.064  0.00  0.00    -0.223 NA
ATOM      3  C   UNL     1       1.228   0.056   4.689  0.00  0.00    +0.080 A 
ATOM      4  C   UNL     1       1.858  -0.471   5.820  0.00  0.00    +0.048 A 
ATOM      5  C   UNL     1       2.875   0.236   6.423  0.00  0.00    +0.043 A 
ATOM      6  C   UNL     1       3.281   1.467   5.920  0.00  0.00    +0.021 A 
ATOM      7  C   UNL     1       2.680   2.003   4.816  0.00  0.00    +0.017 A 
ATOM      8  C   UNL     1       1.648   1.309   4.186  0.00  0.00    +0.065 A 
ATOM      9  C   UNL     1       0.970   1.840   2.996  0.00  0.00    +0.262 A 
ATOM     10  O   UNL     1       1.286   2.913   2.516  0.00  0.00    -0.267 OA
ATOM     11  N   UNL     1      -0.020   1.094   2.454  0.00  0.00    -0.287 N 
ATOM     12 CL   UNL     1       3.659  -0.417   7.827  0.00  0.00    -0.083 Cl
ENDROOT
BRANCH   1  13
ATOM     13  S   UNL     1      -1.669  -1.029   2.260  0.00  0.00    -0.078 S 
BRANCH  13  14
ATOM     14  C   UNL     1      -1.704  -2.468   3.358  0.00  0.00    +0.173 C 
BRANCH  14  16
ATOM     15  N   UNL     1      -2.983  -4.574   3.571  0.00  0.00    -0.308 N 
ATOM     16  C   UNL     1      -2.774  -3.424   2.899  0.00  0.00    +0.224 C 
ATOM     17  O   UNL     1      -3.447  -3.159   1.926  0.00  0.00    -0.275 OA
ATOM     18  H   UNL     1      -2.445  -4.786   4.349  0.00  0.00    +0.149 HD
BRANCH  15  20
ATOM     19  C   UNL     1      -5.370  -5.084   3.717  0.00  0.00    +0.033 C 
ATOM     20  C   UNL     1      -4.024  -5.504   3.124  0.00  0.00    +0.107 C 
BRANCH  20  21
ATOM     21  C   UNL     1      -3.684  -6.897   3.587  0.00  0.00    +0.010 A 
ATOM     22  C   UNL     1      -3.826  -8.074   2.929  0.00  0.00    +0.013 A 
ATOM     23  C   UNL     1      -3.439  -9.243   3.555  0.00  0.00    +0.008 A 
ATOM     24  C   UNL     1      -2.938  -9.181   4.813  0.00  0.00    +0.045 A 
ATOM     25  S   UNL     1      -2.996  -7.428   5.146  0.00  0.00    -0.100 S 
ENDBRANCH  20  21
ENDBRANCH  15  20
ENDBRANCH  14  16
ENDBRANCH  13  14
ENDBRANCH   1  13
BRANCH  11  26
ATOM     26  C   UNL     1      -0.729   1.579   1.267  0.00  0.00    +0.138 C 
BRANCH  26  27
ATOM     27  C   UNL     1      -0.013   1.086   0.008  0.00  0.00    +0.147 C 
BRANCH  27  28
ATOM     28  C   UNL     1      -0.742   1.585  -1.213  0.00  0.00    +0.358 C 
ATOM     29  O   UNL     1      -1.732   2.266  -1.089  0.00  0.00    -0.246 OA
ATOM     30  O   UNL     1      -0.290   1.274  -2.438  0.00  0.00    -0.246 OA
ENDBRANCH  27  28
ENDBRANCH  26  27
ENDBRANCH  11  26
TORSDOF 8
