REMARK  Name = ZINC50093051
REMARK  6 active torsions:
REMARK  status: ('A' for Active; 'I' for Inactive)
REMARK    1  A    between atoms: C_1  and  N_2
REMARK    2  A    between atoms: N_2  and  C_3
REMARK    3  A    between atoms: N_2  and  S_12
REMARK    4  A    between atoms: C_3  and  C_10
REMARK    5  A    between atoms: C_10  and  N_11
REMARK    6  A    between atoms: S_12  and  C_15
REMARK                            x       y       z     vdW  Elec       q    Type
REMARK                         _______ _______ _______ _____ _____    ______ ____
ROOT
ATOM      1  C   UNL     1       2.777   2.684  -0.061  0.00  0.00    +0.132 C 
ATOM      2  N   UNL     1       2.105   2.334   1.193  0.00  0.00    -0.175 NA
ENDROOT
BRANCH   2   3
ATOM      3  C   UNL     1       1.130   1.241   1.220  0.00  0.00    +0.027 C 
ATOM      4  C   UNL     1       0.356   1.221  -0.070  0.00  0.00    +0.022 C 
ATOM      5  C   UNL     1       0.309   2.603  -0.750  0.00  0.00    +0.002 C 
ATOM      6  C   UNL     1       0.073   3.752   0.248  0.00  0.00    +0.000 C 
ATOM      7  C   UNL     1      -0.960   3.410   1.287  0.00  0.00    +0.000 C 
ATOM      8  C   UNL     1      -0.238   2.858   2.533  0.00  0.00    +0.002 C 
ATOM      9  C   UNL     1       0.139   1.460   2.382  0.00  0.00    +0.022 C 
BRANCH   3  10
ATOM     10  C   UNL     1       1.857  -0.092   1.410  0.00  0.00    -0.062 C 
BRANCH  10  11
ATOM     11  N   UNL     1       2.622  -0.409   0.197  0.00  0.00    +0.379 N 
ATOM     12  H   UNL     1       2.243   0.106  -0.584  0.00  0.00    -0.090 HD
ATOM     13  H   UNL     1       3.588  -0.152   0.332  0.00  0.00    -0.090 HD
ATOM     14  H   UNL     1       2.559  -1.399   0.009  0.00  0.00    -0.090 HD
ENDBRANCH  10  11
ENDBRANCH   3  10
ENDBRANCH   2   3
BRANCH   2  15
ATOM     15  S   UNL     1       2.449   3.172   2.579  0.00  0.00    +0.064 S 
ATOM     16  O   UNL     1       1.700   2.561   3.620  0.00  0.00    -0.153 OA
ATOM     17  O   UNL     1       3.862   3.304   2.634  0.00  0.00    -0.153 OA
BRANCH  15  18
ATOM     18  C   UNL     1       1.799   4.798   2.379  0.00  0.00    +0.140 A 
ATOM     19  C   UNL     1       0.887   5.295   3.291  0.00  0.00    +0.031 A 
ATOM     20  C   UNL     1       0.377   6.570   3.135  0.00  0.00    +0.002 A 
ATOM     21  C   UNL     1       0.777   7.350   2.065  0.00  0.00    +0.003 A 
ATOM     22  C   UNL     1       1.689   6.855   1.152  0.00  0.00    +0.040 A 
ATOM     23  C   UNL     1       2.205   5.580   1.311  0.00  0.00    +0.150 A 
ATOM     24  F   UNL     1       3.100   5.097   0.421  0.00  0.00    -0.203 F 
ENDBRANCH  15  18
ENDBRANCH   2  15
TORSDOF 5
