REMARK  Name = ZINC24034280
REMARK  6 active torsions:
REMARK  status: ('A' for Active; 'I' for Inactive)
REMARK    1  A    between atoms: C_1  and  O_2
REMARK    2  A    between atoms: O_2  and  C_3
REMARK    3  A    between atoms: C_5  and  C_11
REMARK    4  A    between atoms: C_7  and  O_10
REMARK    5  A    between atoms: C_8  and  O_9
REMARK    6  A    between atoms: N_22  and  C_23
REMARK                            x       y       z     vdW  Elec       q    Type
REMARK                         _______ _______ _______ _____ _____    ______ ____
ROOT
ATOM      1  C   UNL     1      -1.224  -0.759  -0.002  0.00  0.00    +0.198 C 
ATOM      2  N   UNL     1      -2.268   0.053  -0.637  0.00  0.00    -0.321 N 
ATOM      3  C   UNL     1      -2.332   0.096  -2.025  0.00  0.00    +0.041 A 
ATOM      4  C   UNL     1      -2.828   1.199  -2.699  0.00  0.00    +0.024 A 
ATOM      5  C   UNL     1      -2.881   1.191  -4.079  0.00  0.00    +0.002 A 
ATOM      6  C   UNL     1      -2.442   0.088  -4.795  0.00  0.00    +0.001 A 
ATOM      7  C   UNL     1      -1.941  -1.018  -4.139  0.00  0.00    +0.015 A 
ATOM      8  C   UNL     1      -1.877  -1.021  -2.748  0.00  0.00    +0.058 A 
ATOM      9  C   UNL     1      -1.328  -2.168  -2.002  0.00  0.00    +0.254 C 
ATOM     10  O   UNL     1      -1.080  -3.210  -2.577  0.00  0.00    -0.270 OA
ATOM     11  N   UNL     1      -1.104  -2.048  -0.682  0.00  0.00    -0.244 N 
ATOM     12  H   UNL     1      -2.982   0.614  -0.016  0.00  0.00    +0.148 HD
ENDROOT
BRANCH  11  13
ATOM     13  C   UNL     1      -0.747  -3.184   0.055  0.00  0.00    +0.042 A 
ATOM     14  C   UNL     1       0.383  -3.912  -0.295  0.00  0.00    +0.027 A 
ATOM     15  C   UNL     1       0.739  -5.030   0.435  0.00  0.00    +0.051 A 
ATOM     16  C   UNL     1      -0.035  -5.434   1.510  0.00  0.00    +0.166 A 
ATOM     17  C   UNL     1      -1.172  -4.710   1.860  0.00  0.00    +0.168 A 
ATOM     18  C   UNL     1      -1.526  -3.586   1.132  0.00  0.00    +0.073 A 
ATOM     19  O   UNL     1      -1.755  -5.306   2.941  0.00  0.00    -0.453 OA
ATOM     20  C   UNL     1      -0.741  -6.162   3.501  0.00  0.00    +0.466 C 
ATOM     21  O   UNL     1       0.094  -6.486   2.373  0.00  0.00    -0.453 OA
ENDBRANCH  11  13
BRANCH   1  24
ATOM     22  C   UNL     1       1.324   2.028  -0.166  0.00  0.00    +0.165 A 
ATOM     23  C   UNL     1       0.115   1.353  -0.093  0.00  0.00    +0.056 A 
ATOM     24  C   UNL     1       0.092  -0.029  -0.080  0.00  0.00    -0.002 A 
ATOM     25  C   UNL     1       1.274  -0.744  -0.140  0.00  0.00    +0.056 A 
ATOM     26  C   UNL     1       2.487  -0.076  -0.213  0.00  0.00    +0.162 A 
ATOM     27  C   UNL     1       2.514   1.313  -0.226  0.00  0.00    +0.201 A 
BRANCH  22  29
ATOM     28  C   UNL     1       0.084   4.056  -0.114  0.00  0.00    +0.277 C 
ATOM     29  O   UNL     1       1.345   3.388  -0.178  0.00  0.00    -0.491 OA
ENDBRANCH  22  29
BRANCH  27  30
ATOM     30  O   UNL     1       3.703   1.972  -0.297  0.00  0.00    -0.501 OA
ATOM     31  H   UNL     1       4.644   1.405  -0.345  0.00  0.00    +0.292 HD
ENDBRANCH  27  30
BRANCH  26  32
ATOM     32  O   UNL     1       3.649  -0.781  -0.272  0.00  0.00    -0.503 OA
ATOM     33  H   UNL     1       4.611  -0.250  -0.329  0.00  0.00    +0.292 HD
ENDBRANCH  26  32
ENDBRANCH   1  24
TORSDOF 5
