REMARK  Name = ZINC51749107
REMARK  5 active torsions:
REMARK  status: ('A' for Active; 'I' for Inactive)
REMARK    1  A    between atoms: C_1  and  C_2
REMARK    2  A    between atoms: C_7  and  C_10
REMARK    3  A    between atoms: C_12  and  C_18
REMARK    4  A    between atoms: C_18  and  N_19
REMARK    5  A    between atoms: N_19  and  C_20
REMARK                            x       y       z     vdW  Elec       q    Type
REMARK                         _______ _______ _______ _____ _____    ______ ____
ROOT
ATOM      1  C   UNL     1       2.881  -0.570  -0.487  0.00  0.00    +0.007 C 
ATOM      2  C   UNL     1       1.471  -1.145  -0.335  0.00  0.00    -0.011 C 
ATOM      3  C   UNL     1       0.859  -0.655   0.980  0.00  0.00    +0.022 C 
ATOM      4  C   UNL     1      -0.565  -1.204   1.112  0.00  0.00    +0.107 C 
ATOM      5  N   UNL     1      -0.523  -2.666   0.974  0.00  0.00    -0.312 N 
ATOM      6  C   UNL     1       0.125  -3.245  -0.211  0.00  0.00    +0.072 C 
ATOM      7  C   UNL     1       1.541  -2.673  -0.328  0.00  0.00    +0.025 C 
ATOM      8  C   UNL     1       0.193  -4.767  -0.066  0.00  0.00    +0.028 C 
ATOM      9  C   UNL     1      -1.084  -3.486   1.946  0.00  0.00    +0.123 A 
ATOM     10  C   UNL     1      -2.447  -3.764   1.910  0.00  0.00    -0.023 A 
ATOM     11  C   UNL     1      -2.993  -4.581   2.883  0.00  0.00    +0.022 A 
ATOM     12  C   UNL     1      -2.154  -5.095   3.864  0.00  0.00    +0.036 A 
ATOM     13  C   UNL     1      -0.810  -4.778   3.839  0.00  0.00    +0.128 A 
ATOM     14  N   UNL     1      -0.316  -3.999   2.894  0.00  0.00    -0.239 NA
ATOM     15 BR   UNL     1      -2.845  -6.218   5.220  0.00  0.00    -0.049 Br
ENDROOT
BRANCH  10  16
ATOM     16  C   UNL     1      -3.317  -3.182   0.826  0.00  0.00    -0.043 C 
BRANCH  16  17
ATOM     17  N   UNL     1      -3.166  -3.976  -0.401  0.00  0.00    +0.384 N 
ATOM     18  H   UNL     1      -2.202  -3.958  -0.697  0.00  0.00    -0.085 HD
ATOM     19  H   UNL     1      -3.445  -4.929  -0.222  0.00  0.00    -0.085 HD
BRANCH  17  20
ATOM     20  C   UNL     1      -4.014  -3.409  -1.458  0.00  0.00    -0.072 C 
ATOM     21  C   UNL     1      -5.151  -4.280  -1.996  0.00  0.00    -0.017 C 
ATOM     22  C   UNL     1      -3.910  -4.025  -2.854  0.00  0.00    -0.017 C 
ENDBRANCH  17  20
ENDBRANCH  16  17
ENDBRANCH  10  16
TORSDOF 3
