REMARK  Name = ZINC09101651
REMARK  9 active torsions:
REMARK  status: ('A' for Active; 'I' for Inactive)
REMARK    1  A    between atoms: C_1  and  O_2
REMARK    2  A    between atoms: O_2  and  C_3
REMARK    3  A    between atoms: C_6  and  C_11
REMARK    4  A    between atoms: C_8  and  O_9
REMARK    5  A    between atoms: O_9  and  C_10
REMARK    6  A    between atoms: C_12  and  C_13
REMARK    7  A    between atoms: N_15  and  C_16
REMARK    8  A    between atoms: C_16  and  C_17
REMARK    9  A    between atoms: N_20  and  C_24
REMARK                            x       y       z     vdW  Elec       q    Type
REMARK                         _______ _______ _______ _____ _____    ______ ____
ROOT
ATOM      1  C   UNL     1       4.851   4.022  -0.024  0.00  0.00    +0.237 C 
ATOM      2  O   UNL     1       4.834   5.239  -0.018  0.00  0.00    -0.271 OA
ATOM      3  N   UNL     1       6.028   3.365  -0.039  0.00  0.00    -0.308 N 
ATOM      4  H   UNL     1       6.042   2.395  -0.044  0.00  0.00    +0.149 HD
ENDROOT
BRANCH   1   6
ATOM      5  C   UNL     1       2.417   3.931  -0.001  0.00  0.00    +0.013 C 
ATOM      6  C   UNL     1       3.595   3.273  -0.016  0.00  0.00    +0.068 C 
BRANCH   5  10
ATOM      7  C   UNL     1      -1.226   1.752   0.017  0.00  0.00    +0.162 A 
ATOM      8  C   UNL     1      -0.013   1.076   0.008  0.00  0.00    +0.050 A 
ATOM      9  C   UNL     1       1.172   1.779   0.000  0.00  0.00    +0.012 A 
ATOM     10  C   UNL     1       1.155   3.178   0.008  0.00  0.00    -0.021 A 
ATOM     11  C   UNL     1      -0.069   3.859   0.022  0.00  0.00    +0.057 A 
ATOM     12  C   UNL     1      -1.251   3.146   0.030  0.00  0.00    +0.162 A 
BRANCH   7  14
ATOM     13  C   UNL     1      -2.292  -0.372   0.011  0.00  0.00    +0.277 C 
ATOM     14  O   UNL     1      -2.390   1.053   0.019  0.00  0.00    -0.491 OA
ENDBRANCH   7  14
BRANCH  12  15
ATOM     15  O   UNL     1      -2.441   3.804   0.045  0.00  0.00    -0.491 OA
ATOM     16  C   UNL     1      -2.393   5.232   0.052  0.00  0.00    +0.277 C 
ENDBRANCH  12  15
ENDBRANCH   5  10
ENDBRANCH   1   6
BRANCH   3  17
ATOM     17  C   UNL     1       7.286   4.115  -0.047  0.00  0.00    +0.150 C 
BRANCH  17  18
ATOM     18  C   UNL     1       8.463   3.138  -0.064  0.00  0.00    +0.213 C 
ATOM     19  C   UNL     1       9.800   3.902  -0.024  0.00  0.00    +0.163 C 
ATOM     20  N   UNL     1      10.430   3.442   1.224  0.00  0.00    -0.234 N 
ATOM     21  C   UNL     1       9.615   2.563   1.822  0.00  0.00    +0.408 C 
ATOM     22  O   UNL     1       9.884   2.020   2.875  0.00  0.00    -0.226 OA
ATOM     23  O   UNL     1       8.476   2.334   1.152  0.00  0.00    -0.444 OA
BRANCH  20  24
ATOM     24  C   UNL     1      11.677   3.857   1.707  0.00  0.00    +0.041 A 
ATOM     25  C   UNL     1      12.432   4.774   0.988  0.00  0.00    +0.025 A 
ATOM     26  C   UNL     1      13.659   5.185   1.469  0.00  0.00    +0.023 A 
ATOM     27  C   UNL     1      14.142   4.677   2.662  0.00  0.00    +0.059 A 
ATOM     28  C   UNL     1      13.394   3.758   3.379  0.00  0.00    +0.061 A 
ATOM     29  C   UNL     1      12.162   3.347   2.903  0.00  0.00    +0.045 A 
ATOM     30 CL   UNL     1      14.002   3.122   4.875  0.00  0.00    -0.082 Cl
ATOM     31 CL   UNL     1      15.688   5.191   3.260  0.00  0.00    -0.082 Cl
ENDBRANCH  20  24
ENDBRANCH  17  18
ENDBRANCH   3  17
TORSDOF 7
