REMARK  Name = ZINC42869809
REMARK  7 active torsions:
REMARK  status: ('A' for Active; 'I' for Inactive)
REMARK    1  A    between atoms: C_1  and  C_2
REMARK    2  A    between atoms: C_8  and  C_10
REMARK    3  A    between atoms: C_10  and  N_11
REMARK    4  A    between atoms: N_11  and  S_12
REMARK    5  A    between atoms: S_12  and  C_15
REMARK    6  A    between atoms: C_20  and  N_21
REMARK    7  A    between atoms: N_21  and  N_22
REMARK                            x       y       z     vdW  Elec       q    Type
REMARK                         _______ _______ _______ _____ _____    ______ ____
ROOT
ATOM      1  S   UNL     1       0.581   0.409   5.184  0.00  0.00    +0.062 S 
ATOM      2  O   UNL     1       1.501  -0.017   6.179  0.00  0.00    -0.153 OA
ATOM      3  O   UNL     1       0.482   1.765   4.769  0.00  0.00    -0.153 OA
ENDROOT
BRANCH   1   4
ATOM      4  C   UNL     1      -1.021  -0.065   5.743  0.00  0.00    +0.147 A 
ATOM      5  C   UNL     1      -2.058   0.851   5.756  0.00  0.00    +0.048 A 
ATOM      6  C   UNL     1      -3.305   0.433   6.205  0.00  0.00    +0.038 A 
ATOM      7  C   UNL     1      -3.471  -0.873   6.622  0.00  0.00    +0.128 A 
ATOM      8  N   UNL     1      -2.463  -1.724   6.598  0.00  0.00    -0.236 NA
ATOM      9  C   UNL     1      -1.262  -1.366   6.172  0.00  0.00    +0.159 A 
ATOM     10 BR   UNL     1      -4.759   1.641   6.245  0.00  0.00    -0.049 Br
BRANCH   9  11
ATOM     11  N   UNL     1      -0.230  -2.298   6.158  0.00  0.00    -0.266 N 
ATOM     12  H   UNL     1       0.626  -2.067   5.764  0.00  0.00    +0.167 HD
BRANCH  11  13
ATOM     13  N   UNL     1      -0.421  -3.537   6.699  0.00  0.00    -0.255 NA
ATOM     14  H   UNL     1      -1.213  -3.998   6.276  0.00  0.00    +0.140 HD
ATOM     15  H   UNL     1       0.412  -4.101   6.616  0.00  0.00    +0.140 HD
ENDBRANCH  11  13
ENDBRANCH   9  11
ENDBRANCH   1   4
BRANCH   1  16
ATOM     16  N   UNL     1       0.908  -0.479   3.825  0.00  0.00    -0.190 NA
ATOM     17  H   UNL     1       1.632  -1.125   3.831  0.00  0.00    +0.148 HD
BRANCH  16  18
ATOM     18  C   UNL     1       0.105  -0.289   2.615  0.00  0.00    +0.109 C 
BRANCH  18  25
ATOM     19  C   UNL     1      -0.025   0.883  -0.067  0.00  0.00    +0.008 C 
ATOM     20  C   UNL     1       0.041  -0.632   0.141  0.00  0.00    -0.010 C 
ATOM     21  C   UNL     1       0.751  -1.279  -1.050  0.00  0.00    +0.003 C 
ATOM     22  C   UNL     1       0.817  -2.794  -0.842  0.00  0.00    +0.000 C 
ATOM     23  C   UNL     1       1.592  -3.099   0.442  0.00  0.00    +0.000 C 
ATOM     24  C   UNL     1       0.882  -2.451   1.633  0.00  0.00    +0.005 C 
ATOM     25  C   UNL     1       0.815  -0.937   1.424  0.00  0.00    +0.007 C 
ENDBRANCH  18  25
ENDBRANCH  16  18
ENDBRANCH   1  16
TORSDOF 6
