REMARK  Name = ZINC60167008
REMARK  9 active torsions:
REMARK  status: ('A' for Active; 'I' for Inactive)
REMARK    1  A    between atoms: C_1  and  C_2
REMARK    2  A    between atoms: C_2  and  C_4
REMARK    3  A    between atoms: C_2  and  N_11
REMARK    4  A    between atoms: N_6  and  C_7
REMARK    5  A    between atoms: C_7  and  C_8
REMARK    6  A    between atoms: C_7  and  C_9
REMARK    7  A    between atoms: C_7  and  C_10
REMARK    8  A    between atoms: C_12  and  C_14
REMARK    9  A    between atoms: C_18  and  N_19
REMARK                            x       y       z     vdW  Elec       q    Type
REMARK                         _______ _______ _______ _____ _____    ______ ____
ROOT
ATOM      1  N   UNL     1       0.711  -0.489   1.189  0.00  0.00    -0.300 N 
ATOM      2  C   UNL     1       0.051  -0.633   2.355  0.00  0.00    +0.247 C 
ATOM      3  O   UNL     1      -1.133  -0.360   2.423  0.00  0.00    -0.270 OA
ATOM      4  H   UNL     1       1.654  -0.707   1.135  0.00  0.00    +0.150 HD
ENDROOT
BRANCH   2   5
ATOM      5  C   UNL     1       0.761  -1.119   3.544  0.00  0.00    +0.071 A 
ATOM      6  C   UNL     1       1.408  -0.203   4.465  0.00  0.00    -0.023 A 
ATOM      7  C   UNL     1       2.018  -0.807   5.509  0.00  0.00    -0.004 A 
ATOM      8  S   UNL     1       1.730  -2.534   5.257  0.00  0.00    -0.075 S 
ATOM      9  C   UNL     1       0.836  -2.471   3.837  0.00  0.00    +0.097 A 
ATOM     10  C   UNL     1       2.768  -0.142   6.620  0.00  0.00    +0.043 C 
ATOM     11  C   UNL     1       3.066   1.306   6.202  0.00  0.00    +0.005 C 
ATOM     12  C   UNL     1       1.782   1.939   5.658  0.00  0.00    +0.005 C 
ATOM     13  C   UNL     1       1.423   1.310   4.310  0.00  0.00    +0.037 C 
BRANCH   9  14
ATOM     14  N   UNL     1       0.297  -3.533   3.118  0.00  0.00    -0.317 N 
ATOM     15  C   UNL     1      -0.418  -3.429   1.958  0.00  0.00    +0.092 A 
ATOM     16  C   UNL     1      -0.768  -4.670   1.566  0.00  0.00    +0.019 A 
ATOM     17  C   UNL     1      -0.252  -5.575   2.515  0.00  0.00    +0.019 A 
ATOM     18  C   UNL     1       0.400  -4.855   3.450  0.00  0.00    +0.092 A 
ENDBRANCH   9  14
ENDBRANCH   2   5
BRANCH   1  20
ATOM     19  C   UNL     1      -0.019   1.526   0.010  0.00  0.00    +0.038 C 
ATOM     20  C   UNL     1       0.002  -0.004   0.002  0.00  0.00    +0.156 C 
BRANCH  20  21
ATOM     21  C   UNL     1       0.707  -0.490  -1.238  0.00  0.00    +0.233 C 
ATOM     22  O   UNL     1       1.704  -1.174  -1.140  0.00  0.00    -0.274 OA
ATOM     23  N   UNL     1       0.231  -0.164  -2.456  0.00  0.00    -0.309 N 
ATOM     24  H   UNL     1      -0.566   0.383  -2.534  0.00  0.00    +0.149 HD
BRANCH  23  25
ATOM     25  C   UNL     1       0.917  -0.637  -3.661  0.00  0.00    +0.026 C 
ATOM     26  C   UNL     1       0.937  -2.167  -3.670  0.00  0.00    +0.031 C 
ATOM     27  C   UNL     1       0.177  -0.130  -4.901  0.00  0.00    +0.031 C 
ATOM     28  C   UNL     1       2.352  -0.107  -3.672  0.00  0.00    +0.031 C 
ENDBRANCH  23  25
ENDBRANCH  20  21
ENDBRANCH   1  20
TORSDOF 5
