REMARK  Name = ZINC07927460
REMARK  7 active torsions:
REMARK  status: ('A' for Active; 'I' for Inactive)
REMARK    1  A    between atoms: C_3  and  C_6
REMARK    2  A    between atoms: C_6  and  N_45
REMARK    3  A    between atoms: C_7  and  C_8
REMARK    4  A    between atoms: C_7  and  N_45
REMARK    5  A    between atoms: C_14  and  C_15
REMARK    6  A    between atoms: C_14  and  N_45
REMARK    7  A    between atoms: N_17  and  C_18
REMARK                            x       y       z     vdW  Elec       q    Type
REMARK                         _______ _______ _______ _____ _____    ______ ____
ROOT
ATOM      1  N   UNL     1      -3.372   4.634  -0.791  0.00  0.00    +0.390 N 
ATOM      2  H   UNL     1      -3.102   4.872   0.171  0.00  0.00    -0.081 HD
ENDROOT
BRANCH   1   3
ATOM      3  C   UNL     1      -4.643   3.880  -0.760  0.00  0.00    -0.035 C 
BRANCH   3   6
ATOM      4  C   UNL     1      -4.733   1.714   2.373  0.00  0.00    +0.008 A 
ATOM      5  C   UNL     1      -4.922   2.837   1.589  0.00  0.00    +0.009 A 
ATOM      6  C   UNL     1      -4.541   2.802   0.288  0.00  0.00    -0.027 A 
ATOM      7  S   UNL     1      -3.880   1.150   0.142  0.00  0.00    -0.103 S 
ATOM      8  C   UNL     1      -4.163   0.615   1.821  0.00  0.00    +0.045 A 
ENDBRANCH   3   6
ENDBRANCH   1   3
BRANCH   1   9
ATOM      9  C   UNL     1      -2.309   3.806  -1.398  0.00  0.00    -0.046 C 
BRANCH   9  10
ATOM     10  C   UNL     1      -2.573   3.604  -2.891  0.00  0.00    +0.102 C 
ATOM     11  C   UNL     1      -1.377   2.889  -3.558  0.00  0.00    +0.032 C 
ATOM     12  C   UNL     1      -2.031   1.949  -4.595  0.00  0.00    +0.030 C 
ATOM     13  C   UNL     1      -3.546   2.204  -4.434  0.00  0.00    +0.160 C 
ATOM     14  O   UNL     1      -3.692   2.712  -3.087  0.00  0.00    -0.378 OA
ENDBRANCH   9  10
ENDBRANCH   1   9
BRANCH   1  15
ATOM     15  C   UNL     1      -3.544   5.882  -1.564  0.00  0.00    +0.019 C 
BRANCH  15  16
ATOM     16  C   UNL     1      -2.311   6.731  -1.396  0.00  0.00    +0.201 C 
ATOM     17  O   UNL     1      -1.386   6.331  -0.722  0.00  0.00    -0.278 OA
ATOM     18  N   UNL     1      -2.236   7.936  -1.996  0.00  0.00    -0.285 N 
ATOM     19  H   UNL     1      -2.939   8.222  -2.599  0.00  0.00    +0.155 HD
BRANCH  18  20
ATOM     20  C   UNL     1      -1.141   8.774  -1.749  0.00  0.00    +0.070 A 
ATOM     21  C   UNL     1      -0.418   8.645  -0.571  0.00  0.00    +0.046 A 
ATOM     22  C   UNL     1       0.662   9.473  -0.330  0.00  0.00    +0.043 A 
ATOM     23  C   UNL     1       1.022  10.432  -1.260  0.00  0.00    +0.023 A 
ATOM     24  C   UNL     1       0.304  10.564  -2.434  0.00  0.00    +0.041 A 
ATOM     25  C   UNL     1      -0.774   9.734  -2.685  0.00  0.00    +0.145 A 
ATOM     26  F   UNL     1      -1.472   9.861  -3.834  0.00  0.00    -0.204 F 
ATOM     27 CL   UNL     1       1.567   9.311   1.143  0.00  0.00    -0.083 Cl
ENDBRANCH  18  20
ENDBRANCH  15  16
ENDBRANCH   1  15
TORSDOF 7
