REMARK  Name = ZINC62824495
REMARK  4 active torsions:
REMARK  status: ('A' for Active; 'I' for Inactive)
REMARK    1  A    between atoms: C_3  and  N_11
REMARK    2  A    between atoms: C_4  and  C_8
REMARK    3  A    between atoms: C_12  and  C_14
REMARK    4  A    between atoms: C_17  and  O_21
REMARK                            x       y       z     vdW  Elec       q    Type
REMARK                         _______ _______ _______ _____ _____    ______ ____
ROOT
ATOM      1  N   UNL     1       3.425   2.073  -0.039  0.00  0.00    -0.286 N 
ATOM      2  C   UNL     1       3.343   3.412  -0.171  0.00  0.00    +0.203 C 
ATOM      3  O   UNL     1       2.258   3.954  -0.181  0.00  0.00    -0.277 OA
ATOM      4  H   UNL     1       4.292   1.647   0.051  0.00  0.00    +0.155 HD
ENDROOT
BRANCH   1   7
ATOM      5  C   UNL     1      -0.032   0.998  -0.648  0.00  0.00    +0.016 A 
ATOM      6  C   UNL     1       1.116   1.765  -0.656  0.00  0.00    +0.025 A 
ATOM      7  C   UNL     1       2.267   1.302  -0.032  0.00  0.00    +0.048 A 
ATOM      8  C   UNL     1       2.255   0.051   0.607  0.00  0.00    +0.085 A 
ATOM      9  C   UNL     1       1.084  -0.714   0.606  0.00  0.00    +0.031 A 
ATOM     10  C   UNL     1      -0.047  -0.237  -0.019  0.00  0.00    +0.014 A 
ATOM     11  I   UNL     1      -1.800  -1.384  -0.019  0.00  0.00    -0.044 I 
BRANCH   8  12
ATOM     12  C   UNL     1       3.467  -0.452   1.272  0.00  0.00    +0.388 C 
ATOM     13  O   UNL     1       3.483  -1.581   1.743  0.00  0.00    -0.241 OA
ATOM     14  O   UNL     1       4.460   0.259   1.355  0.00  0.00    -0.241 OA
ENDBRANCH   8  12
ENDBRANCH   1   7
BRANCH   2  15
ATOM     15  C   UNL     1       4.598   4.234  -0.305  0.00  0.00    +0.019 C 
ATOM     16  C   UNL     1       5.228   4.462   1.085  0.00  0.00    +0.023 C 
ATOM     17  C   UNL     1       5.744   5.923   1.001  0.00  0.00    +0.097 C 
ATOM     18  C   UNL     1       4.648   6.591   0.133  0.00  0.00    -0.050 C 
ATOM     19  N   UNL     1       4.272   5.559  -0.863  0.00  0.00    +0.388 N 
ATOM     20  H   UNL     1       4.789   5.705  -1.717  0.00  0.00    -0.085 HD
ATOM     21  H   UNL     1       3.283   5.614  -1.053  0.00  0.00    -0.085 HD
BRANCH  17  22
ATOM     22  O   UNL     1       5.805   6.520   2.297  0.00  0.00    -0.394 OA
ATOM     23  H   UNL     1       6.122   7.433   2.295  0.00  0.00    +0.210 HD
ENDBRANCH  17  22
ENDBRANCH   2  15
TORSDOF 4
