REMARK  Name = ZINC11998508
REMARK  7 active torsions:
REMARK  status: ('A' for Active; 'I' for Inactive)
REMARK    1  A    between atoms: C_1  and  C_2
REMARK    2  A    between atoms: C_7  and  C_13
REMARK    3  A    between atoms: C_7  and  N_65
REMARK    4  A    between atoms: C_13  and  N_14
REMARK    5  A    between atoms: N_14  and  S_15
REMARK    6  A    between atoms: S_15  and  C_18
REMARK    7  A    between atoms: C_21  and  N_24
REMARK                            x       y       z     vdW  Elec       q    Type
REMARK                         _______ _______ _______ _____ _____    ______ ____
ROOT
ATOM      1  N   UNL     1       7.856   1.027  -0.315  0.00  0.00    -0.191 NA
ATOM      2  H   UNL     1       7.994   1.284  -1.240  0.00  0.00    +0.148 HD
ENDROOT
BRANCH   1   3
ATOM      3  S   UNL     1       6.321   0.958   0.304  0.00  0.00    +0.058 S 
ATOM      4  O   UNL     1       6.207  -0.294   0.966  0.00  0.00    -0.153 OA
ATOM      5  O   UNL     1       5.443   1.350  -0.743  0.00  0.00    -0.153 OA
BRANCH   3   6
ATOM      6  C   UNL     1       6.205   2.198   1.550  0.00  0.00    +0.105 A 
ATOM      7  C   UNL     1       5.792   3.475   1.215  0.00  0.00    +0.030 A 
ATOM      8  C   UNL     1       5.700   4.450   2.190  0.00  0.00    +0.027 A 
ATOM      9  C   UNL     1       6.023   4.147   3.506  0.00  0.00    +0.059 A 
ATOM     10  C   UNL     1       6.443   2.865   3.837  0.00  0.00    +0.027 A 
ATOM     11  C   UNL     1       6.527   1.893   2.859  0.00  0.00    +0.030 A 
BRANCH   9  12
ATOM     12  N   UNL     1       5.931   5.132   4.495  0.00  0.00    -0.144 N 
ATOM     13  C   UNL     1       5.143   6.217   4.458  0.00  0.00    +0.240 C 
ATOM     14  O   UNL     1       4.395   6.408   3.522  0.00  0.00    -0.274 OA
ATOM     15  C   UNL     1       5.207   7.187   5.598  0.00  0.00    +0.122 C 
ATOM     16  C   UNL     1       5.844   6.474   6.821  0.00  0.00    +0.198 C 
ATOM     17  S   UNL     1       6.785   5.165   5.935  0.00  0.00    +0.052 S 
ATOM     18  O   UNL     1       8.089   5.618   5.598  0.00  0.00    -0.155 OA
ATOM     19  O   UNL     1       6.575   3.895   6.536  0.00  0.00    -0.155 OA
ENDBRANCH   9  12
ENDBRANCH   3   6
ENDBRANCH   1   3
BRANCH   1  20
ATOM     20  C   UNL     1       9.004   0.701   0.534  0.00  0.00    +0.094 C 
BRANCH  20  21
ATOM     21  C   UNL     1      10.239   0.480  -0.340  0.00  0.00    -0.051 C 
ATOM     22  C   UNL     1      11.404   0.007   0.532  0.00  0.00    -0.011 C 
ATOM     23  C   UNL     1      11.712   1.069   1.590  0.00  0.00    -0.001 C 
ATOM     24  C   UNL     1      12.091   2.381   0.900  0.00  0.00    -0.000 C 
ATOM     25  C   UNL     1      10.926   2.853   0.028  0.00  0.00    -0.001 C 
ATOM     26  C   UNL     1      10.618   1.792  -1.030  0.00  0.00    -0.011 C 
BRANCH  21  33
ATOM     27  C   UNL     1       9.797  -3.981  -3.886  0.00  0.00    +0.007 C 
ATOM     28  C   UNL     1      10.245  -3.042  -2.765  0.00  0.00    -0.018 C 
ATOM     29  C   UNL     1       9.073  -2.783  -1.815  0.00  0.00    -0.016 C 
ATOM     30  C   UNL     1       9.510  -1.796  -0.730  0.00  0.00    -0.078 C 
ATOM     31  C   UNL     1      11.098  -0.756  -2.237  0.00  0.00    -0.078 C 
ATOM     32  C   UNL     1      10.709  -1.712  -3.366  0.00  0.00    -0.016 C 
ATOM     33  N   UNL     1       9.921  -0.529  -1.372  0.00  0.00    +0.384 N 
ATOM     34  H   UNL     1       9.146  -0.182  -1.950  0.00  0.00    -0.081 HD
ENDBRANCH  21  33
ENDBRANCH  20  21
ENDBRANCH   1  20
TORSDOF 6
