REMARK  Name = ZINC04909093
REMARK  7 active torsions:
REMARK  status: ('A' for Active; 'I' for Inactive)
REMARK    1  A    between atoms: C_1  and  C_2
REMARK    2  A    between atoms: N_10  and  C_23
REMARK    3  A    between atoms: C_11  and  C_13
REMARK    4  A    between atoms: C_16  and  C_19
REMARK    5  A    between atoms: C_19  and  C_20
REMARK    6  A    between atoms: C_19  and  C_21
REMARK    7  A    between atoms: C_19  and  C_22
REMARK                            x       y       z     vdW  Elec       q    Type
REMARK                         _______ _______ _______ _____ _____    ______ ____
ROOT
ATOM      1  C   UNL     1      -0.018   1.503   0.010  0.00  0.00    +0.068 C 
ATOM      2  C   UNL     1       0.002  -0.004   0.002  0.00  0.00    +0.066 A 
ATOM      3  C   UNL     1       0.008  -0.817  -1.124  0.00  0.00    +0.030 A 
ATOM      4  C   UNL     1       0.028  -2.118  -0.651  0.00  0.00    +0.126 A 
ATOM      5  N   UNL     1       0.033  -2.021   0.711  0.00  0.00    -0.272 N 
ATOM      6  H   UNL     1       0.046  -2.773   1.324  0.00  0.00    +0.189 HD
ATOM      7  N   UNL     1       0.023  -0.783   1.056  0.00  0.00    -0.178 NA
ATOM      8  C   UNL     1       0.035  -3.031  -1.798  0.00  0.00    +0.265 C 
ATOM      9  O   UNL     1       0.052  -4.245  -1.719  0.00  0.00    -0.268 OA
ATOM     10  N   UNL     1       0.021  -2.337  -2.950  0.00  0.00    -0.288 N 
ATOM     11  C   UNL     1       0.002  -0.904  -2.626  0.00  0.00    +0.141 C 
ATOM     12  C   UNL     1       0.024  -2.911  -4.298  0.00  0.00    +0.133 C 
ENDROOT
BRANCH  11  13
ATOM     13  C   UNL     1       1.226  -0.230  -3.189  0.00  0.00    -0.022 A 
ATOM     14  C   UNL     1       2.438  -0.895  -3.203  0.00  0.00    +0.006 A 
ATOM     15  C   UNL     1       3.560  -0.277  -3.720  0.00  0.00    +0.004 A 
ATOM     16  C   UNL     1       3.471   1.008  -4.224  0.00  0.00    -0.042 A 
ATOM     17  C   UNL     1       2.260   1.673  -4.210  0.00  0.00    +0.004 A 
ATOM     18  C   UNL     1       1.136   1.053  -3.697  0.00  0.00    +0.006 A 
BRANCH  16  19
ATOM     19  C   UNL     1       4.696   1.683  -4.786  0.00  0.00    -0.013 C 
ATOM     20  C   UNL     1       5.237   0.863  -5.959  0.00  0.00    +0.015 C 
ATOM     21  C   UNL     1       4.327   3.086  -5.272  0.00  0.00    +0.015 C 
ATOM     22  C   UNL     1       5.767   1.785  -3.699  0.00  0.00    +0.015 C 
ENDBRANCH  16  19
ENDBRANCH  11  13
TORSDOF 2
