REMARK  Name = ZINC06197056
REMARK  7 active torsions:
REMARK  status: ('A' for Active; 'I' for Inactive)
REMARK    1  A    between atoms: C_1  and  C_2
REMARK    2  A    between atoms: C_2  and  O_3
REMARK    3  A    between atoms: O_3  and  C_4
REMARK    4  A    between atoms: C_9  and  C_16
REMARK    5  A    between atoms: C_17  and  C_18
REMARK    6  A    between atoms: C_18  and  C_20
REMARK    7  A    between atoms: C_21  and  C_33
REMARK                            x       y       z     vdW  Elec       q    Type
REMARK                         _______ _______ _______ _____ _____    ______ ____
ROOT
ATOM      1  C   UNL     1      -4.996   1.072   0.039  0.00  0.00    +0.192 C 
ATOM      2  O   UNL     1      -5.046  -0.143  -0.050  0.00  0.00    -0.287 OA
ENDROOT
BRANCH   1   3
ATOM      3  C   UNL     1      -3.696   1.758   0.016  0.00  0.00    +0.094 A 
ATOM      4  C   UNL     1      -2.505   1.023   0.001  0.00  0.00    +0.007 A 
ATOM      5  C   UNL     1      -1.234   1.759  -0.027  0.00  0.00    +0.008 A 
ATOM      6  C   UNL     1      -0.015   1.073  -0.037  0.00  0.00    +0.030 A 
ATOM      7  C   UNL     1       1.166   1.780  -0.058  0.00  0.00    +0.042 A 
ATOM      8  C   UNL     1       1.152   3.169  -0.063  0.00  0.00    +0.022 A 
ATOM      9  C   UNL     1      -0.041   3.859  -0.048  0.00  0.00    +0.028 A 
ATOM     10  C   UNL     1      -1.248   3.165  -0.027  0.00  0.00    +0.050 A 
ATOM     11  N   UNL     1      -2.443   3.855  -0.011  0.00  0.00    -0.321 N 
ATOM     12  H   UNL     1      -2.428   4.855  -0.015  0.00  0.00    +0.169 HD
ATOM     13  C   UNL     1      -3.627   3.220   0.009  0.00  0.00    +0.261 A 
ATOM     14  O   UNL     1      -4.657   3.870   0.022  0.00  0.00    -0.267 OA
ATOM     15 CL   UNL     1       2.681   0.931  -0.077  0.00  0.00    -0.084 Cl
BRANCH   4  16
ATOM     16  C   UNL     1      -2.525  -0.453   0.007  0.00  0.00    -0.016 A 
ATOM     17  C   UNL     1      -2.003  -1.158   1.095  0.00  0.00    +0.008 A 
ATOM     18  C   UNL     1      -2.031  -2.537   1.097  0.00  0.00    +0.001 A 
ATOM     19  C   UNL     1      -2.564  -3.223   0.019  0.00  0.00    +0.000 A 
ATOM     20  C   UNL     1      -3.078  -2.532  -1.064  0.00  0.00    +0.001 A 
ATOM     21  C   UNL     1      -3.062  -1.153  -1.077  0.00  0.00    +0.008 A 
ENDBRANCH   4  16
ENDBRANCH   1   3
BRANCH   1  23
ATOM     22  C   UNL     1      -7.381   1.188   0.288  0.00  0.00    +0.017 C 
ATOM     23  C   UNL     1      -6.192   1.823   0.164  0.00  0.00    +0.052 C 
BRANCH  22  29
ATOM     24  C   UNL     1     -13.360   3.595   0.364  0.00  0.00    +0.122 A 
ATOM     25  C   UNL     1     -13.430   2.202   0.362  0.00  0.00    +0.046 A 
ATOM     26  C   UNL     1     -12.292   1.453   0.347  0.00  0.00    +0.013 A 
ATOM     27  C   UNL     1     -11.036   2.084   0.334  0.00  0.00    -0.001 A 
ATOM     28  C   UNL     1      -9.854   1.313   0.313  0.00  0.00    +0.023 A 
ATOM     29  C   UNL     1      -8.626   1.960   0.305  0.00  0.00    +0.040 A 
ATOM     30  C   UNL     1      -8.590   3.428   0.307  0.00  0.00    +0.256 A 
ATOM     31  O   UNL     1      -7.521   4.010   0.296  0.00  0.00    -0.267 OA
ATOM     32  N   UNL     1      -9.738   4.131   0.323  0.00  0.00    -0.322 N 
ATOM     33  H   UNL     1      -9.704   5.130   0.324  0.00  0.00    +0.169 HD
ATOM     34  C   UNL     1     -10.961   3.492   0.336  0.00  0.00    +0.053 A 
ATOM     35  C   UNL     1     -12.134   4.238   0.351  0.00  0.00    +0.072 A 
BRANCH  24  36
ATOM     36  O   UNL     1     -14.503   4.327   0.379  0.00  0.00    -0.492 OA
BRANCH  36  38
ATOM     37  C   UNL     1     -16.905   4.590   0.408  0.00  0.00    +0.048 C 
ATOM     38  C   UNL     1     -15.735   3.604   0.392  0.00  0.00    +0.225 C 
ENDBRANCH  36  38
ENDBRANCH  24  36
ENDBRANCH  22  29
ENDBRANCH   1  23
TORSDOF 6
