REMARK  Name = ZINC39695086
REMARK  8 active torsions:
REMARK  status: ('A' for Active; 'I' for Inactive)
REMARK    1  A    between atoms: C_1  and  C_2
REMARK    2  A    between atoms: C_3  and  C_9
REMARK    3  A    between atoms: C_9  and  N_10
REMARK    4  A    between atoms: C_11  and  C_13
REMARK    5  A    between atoms: C_24  and  C_26
REMARK    6  A    between atoms: C_26  and  C_27
REMARK    7  A    between atoms: C_27  and  C_28
REMARK    8  A    between atoms: C_28  and  C_29
REMARK                            x       y       z     vdW  Elec       q    Type
REMARK                         _______ _______ _______ _____ _____    ______ ____
ROOT
ATOM      1  C   UNL     1       2.959   1.739  -4.246  0.00  0.00    +0.100 C 
ATOM      2  C   UNL     1       3.394   2.822  -3.233  0.00  0.00    +0.121 C 
ATOM      3  N   UNL     1       4.169   3.797  -4.036  0.00  0.00    -0.300 N 
ATOM      4  C   UNL     1       3.429   3.891  -5.317  0.00  0.00    +0.115 C 
ATOM      5  C   UNL     1       2.983   2.445  -5.612  0.00  0.00    -0.004 C 
ATOM      6  C   UNL     1       3.983   1.764  -6.542  0.00  0.00    -0.010 C 
ATOM      7  C   UNL     1       3.947   2.447  -7.912  0.00  0.00    -0.082 C 
ATOM      8  N   UNL     1       2.592   2.359  -8.469  0.00  0.00    +0.379 N 
ATOM      9  C   UNL     1       1.651   3.095  -7.617  0.00  0.00    -0.082 C 
ATOM     10  C   UNL     1       1.590   2.439  -6.234  0.00  0.00    -0.010 C 
ATOM     11  C   UNL     1       5.293   4.450  -3.682  0.00  0.00    +0.216 C 
ATOM     12  O   UNL     1       5.815   5.224  -4.457  0.00  0.00    -0.276 OA
ATOM     13  H   UNL     1       2.584   2.756  -9.397  0.00  0.00    -0.086 HD
ATOM     14  H   UNL     1       2.312   1.391  -8.518  0.00  0.00    -0.086 HD
ENDROOT
BRANCH   1  16
ATOM     15  N   UNL     1       1.203  -0.003  -4.256  0.00  0.00    -0.311 N 
ATOM     16  C   UNL     1       1.568   1.253  -3.930  0.00  0.00    +0.218 C 
ATOM     17  O   UNL     1       0.778   1.992  -3.383  0.00  0.00    -0.275 OA
ATOM     18  H   UNL     1       1.836  -0.594  -4.694  0.00  0.00    +0.149 HD
BRANCH  15  19
ATOM     19  C   UNL     1      -0.149  -0.475  -3.949  0.00  0.00    +0.139 C 
BRANCH  19  22
ATOM     20  C   UNL     1       0.894  -2.635  -2.338  0.00  0.00    +0.045 C 
ATOM     21  C   UNL     1       0.199  -2.935  -3.641  0.00  0.00    -0.027 A 
ATOM     22  C   UNL     1      -0.300  -1.901  -4.412  0.00  0.00    -0.026 A 
ATOM     23  C   UNL     1      -0.938  -2.176  -5.607  0.00  0.00    +0.005 A 
ATOM     24  C   UNL     1      -1.077  -3.484  -6.032  0.00  0.00    +0.002 A 
ATOM     25  C   UNL     1      -0.579  -4.518  -5.262  0.00  0.00    +0.020 A 
ATOM     26  C   UNL     1       0.065  -4.243  -4.068  0.00  0.00    +0.044 A 
ATOM     27 CL   UNL     1       0.697  -5.541  -3.104  0.00  0.00    -0.083 Cl
ENDBRANCH  19  22
ENDBRANCH  15  19
ENDBRANCH   1  16
BRANCH  11  28
ATOM     28  C   UNL     1       5.903   4.219  -2.323  0.00  0.00    +0.096 C 
BRANCH  28  29
ATOM     29  C   UNL     1       7.162   5.077  -2.177  0.00  0.00    +0.014 C 
BRANCH  29  30
ATOM     30  C   UNL     1       7.781   4.842  -0.797  0.00  0.00    +0.035 C 
BRANCH  30  31
ATOM     31  C   UNL     1       9.021   5.686  -0.653  0.00  0.00    -0.047 A 
ATOM     32  C   UNL     1      10.249   5.183  -1.040  0.00  0.00    +0.003 A 
ATOM     33  C   UNL     1      11.386   5.957  -0.908  0.00  0.00    +0.000 A 
ATOM     34  C   UNL     1      11.296   7.235  -0.389  0.00  0.00    +0.000 A 
ATOM     35  C   UNL     1      10.068   7.739  -0.003  0.00  0.00    +0.000 A 
ATOM     36  C   UNL     1       8.930   6.967  -0.140  0.00  0.00    +0.003 A 
ENDBRANCH  30  31
ENDBRANCH  29  30
ENDBRANCH  28  29
ENDBRANCH  11  28
TORSDOF 7
