REMARK  Name = ZINC06655180
REMARK  9 active torsions:
REMARK  status: ('A' for Active; 'I' for Inactive)
REMARK    1  A    between atoms: C_1  and  C_2
REMARK    2  A    between atoms: C_2  and  N_3
REMARK    3  A    between atoms: N_3  and  C_4
REMARK    4  A    between atoms: C_4  and  N_6
REMARK    5  A    between atoms: N_6  and  N_7
REMARK    6  A    between atoms: C_8  and  C_10
REMARK    7  A    between atoms: C_12  and  C_20
REMARK    8  A    between atoms: C_23  and  C_27
REMARK    9  A    between atoms: C_25  and  C_26
REMARK                            x       y       z     vdW  Elec       q    Type
REMARK                         _______ _______ _______ _____ _____    ______ ____
ROOT
ATOM      1  C   UNL     1       0.005  -0.027   0.837  0.00  0.00    +0.049 A 
ATOM      2  C   UNL     1      -1.167  -0.751   0.682  0.00  0.00    +0.042 A 
ATOM      3  C   UNL     1      -1.114  -2.153   0.655  0.00  0.00    +0.073 A 
ATOM      4  N   UNL     1       0.025  -2.804   0.773  0.00  0.00    -0.247 NA
ATOM      5  C   UNL     1       1.187  -2.166   0.925  0.00  0.00    +0.072 A 
ATOM      6  C   UNL     1       1.221  -0.749   0.958  0.00  0.00    +0.013 A 
ATOM      7  C   UNL     1       2.446  -0.088   1.112  0.00  0.00    +0.011 A 
ATOM      8  C   UNL     1       3.595  -0.813   1.224  0.00  0.00    +0.001 A 
ATOM      9  C   UNL     1       3.567  -2.206   1.188  0.00  0.00    +0.002 A 
ATOM     10  C   UNL     1       2.393  -2.881   1.050  0.00  0.00    +0.028 A 
ENDROOT
BRANCH   3  11
ATOM     11  C   UNL     1      -2.372  -2.921   0.488  0.00  0.00    +0.003 A 
ATOM     12  C   UNL     1      -3.601  -2.263   0.509  0.00  0.00    +0.010 A 
ATOM     13  C   UNL     1      -4.768  -2.982   0.349  0.00  0.00    +0.004 A 
ATOM     14  C   UNL     1      -4.720  -4.354   0.178  0.00  0.00    -0.050 A 
ATOM     15  C   UNL     1      -3.504  -5.013   0.162  0.00  0.00    +0.007 A 
ATOM     16  C   UNL     1      -2.330  -4.303   0.316  0.00  0.00    -0.041 A 
ATOM     17  C   UNL     1      -1.006  -5.022   0.298  0.00  0.00    +0.044 C 
ATOM     18  C   UNL     1      -5.998  -5.135   0.010  0.00  0.00    +0.044 C 
ENDBRANCH   3  11
BRANCH   1  20
ATOM     19  N   UNL     1      -1.171   2.117   0.706  0.00  0.00    -0.231 N 
ATOM     20  C   UNL     1      -0.010   1.452   0.871  0.00  0.00    +0.261 C 
ATOM     21  O   UNL     1       1.024   2.067   1.042  0.00  0.00    -0.269 OA
ATOM     22  H   UNL     1      -1.996   1.627   0.566  0.00  0.00    +0.173 HD
BRANCH  19  23
ATOM     23  N   UNL     1      -1.185   3.518   0.738  0.00  0.00    -0.246 N 
ATOM     24  H   UNL     1      -0.361   4.008   0.878  0.00  0.00    +0.172 HD
BRANCH  23  25
ATOM     25  C   UNL     1      -2.346   4.183   0.573  0.00  0.00    +0.147 C 
ATOM     26  S   UNL     1      -2.364   5.895   0.612  0.00  0.00    -0.017 S 
BRANCH  25  27
ATOM     27  N   UNL     1      -3.492   3.502   0.378  0.00  0.00    -0.326 N 
ATOM     28  H   UNL     1      -3.482   2.532   0.356  0.00  0.00    +0.148 HD
BRANCH  27  30
ATOM     29  C   UNL     1      -5.892   3.223  -0.003  0.00  0.00    +0.024 C 
ATOM     30  C   UNL     1      -4.753   4.225   0.199  0.00  0.00    +0.100 C 
ENDBRANCH  27  30
ENDBRANCH  25  27
ENDBRANCH  23  25
ENDBRANCH  19  23
ENDBRANCH   1  20
TORSDOF 6
