REMARK  Name = ZINC02231497
REMARK  14 active torsions:
REMARK  status: ('A' for Active; 'I' for Inactive)
REMARK    1  A    between atoms: C_1  and  C_2
REMARK    2  A    between atoms: C_2  and  C_3
REMARK    3  A    between atoms: C_3  and  C_4
REMARK    4  A    between atoms: C_4  and  O_5
REMARK    5  A    between atoms: O_5  and  C_6
REMARK    6  A    between atoms: C_6  and  C_8
REMARK    7  A    between atoms: C_9  and  N_32
REMARK    8  A    between atoms: C_11  and  C_31
REMARK    9  A    between atoms: C_12  and  C_24
REMARK   10  A    between atoms: C_24  and  O_26
REMARK   11  A    between atoms: O_26  and  C_27
REMARK   12  A    between atoms: C_27  and  C_28
REMARK   13  A    between atoms: C_28  and  O_29
REMARK   14  A    between atoms: O_29  and  C_30
REMARK                            x       y       z     vdW  Elec       q    Type
REMARK                         _______ _______ _______ _____ _____    ______ ____
ROOT
ATOM      1  C   UNL     1      -2.414   3.095  -4.738  0.00  0.00    +0.117 C 
ATOM      2  C   UNL     1      -1.688   2.817  -5.854  0.00  0.00    +0.195 C 
ATOM      3  O   UNL     1      -0.763   1.843  -5.868  0.00  0.00    -0.446 OA
ATOM      4  C   UNL     1      -0.269   1.379  -4.711  0.00  0.00    +0.116 C 
ATOM      5  C   UNL     1      -0.894   1.565  -3.541  0.00  0.00    +0.098 C 
ATOM      6  C   UNL     1      -2.197   2.309  -3.476  0.00  0.00    +0.145 C 
ATOM      7  C   UNL     1      -3.340   1.353  -3.242  0.00  0.00    -0.001 A 
ATOM      8  C   UNL     1      -3.838   0.290  -3.961  0.00  0.00    +0.022 A 
ATOM      9  C   UNL     1      -4.927  -0.419  -3.482  0.00  0.00    +0.018 A 
ATOM     10  C   UNL     1      -5.510  -0.055  -2.281  0.00  0.00    +0.017 A 
ATOM     11  C   UNL     1      -5.012   1.009  -1.559  0.00  0.00    +0.025 A 
ATOM     12  C   UNL     1      -3.917   1.727  -2.034  0.00  0.00    +0.038 A 
ATOM     13  N   UNL     1      -3.241   2.824  -1.496  0.00  0.00    -0.284 N 
ATOM     14  C   UNL     1      -2.222   3.226  -2.276  0.00  0.00    +0.237 C 
ATOM     15  O   UNL     1      -1.466   4.149  -2.058  0.00  0.00    -0.274 OA
ATOM     16 BR   UNL     1      -5.614  -1.880  -4.466  0.00  0.00    -0.050 Br
ATOM     17  C   UNL     1       1.036   0.624  -4.728  0.00  0.00    +0.087 C 
ATOM     18  H   UNL     1      -3.479   3.247  -0.656  0.00  0.00    +0.155 HD
ENDROOT
BRANCH   2  19
ATOM     19  N   UNL     1      -1.905   3.547  -6.991  0.00  0.00    -0.329 N 
ATOM     20  H   UNL     1      -1.452   3.309  -7.815  0.00  0.00    +0.145 HD
ATOM     21  H   UNL     1      -2.513   4.303  -6.974  0.00  0.00    +0.145 HD
ENDBRANCH   2  19
BRANCH   1  22
ATOM     22  C   UNL     1      -3.374   4.119  -4.768  0.00  0.00    +0.342 C 
ATOM     23  O   UNL     1      -4.555   3.843  -4.874  0.00  0.00    -0.245 OA
BRANCH  22  24
ATOM     24  O   UNL     1      -2.987   5.410  -4.678  0.00  0.00    -0.461 OA
BRANCH  24  25
ATOM     25  C   UNL     1      -4.017   6.400  -4.715  0.00  0.00    +0.232 C 
BRANCH  25  26
ATOM     26  C   UNL     1      -3.391   7.791  -4.602  0.00  0.00    +0.041 C 
BRANCH  26  28
ATOM     27  C   UNL     1      -3.868  10.243  -4.528  0.00  0.00    +0.004 C 
ATOM     28  C   UNL     1      -4.494   8.851  -4.641  0.00  0.00    -0.000 C 
ENDBRANCH  26  28
ENDBRANCH  25  26
ENDBRANCH  24  25
ENDBRANCH  22  24
ENDBRANCH   1  22
BRANCH   5  29
ATOM     29  C   UNL     1      -0.323   1.048  -2.352  0.00  0.00    +0.340 C 
ATOM     30  O   UNL     1      -0.729  -0.001  -1.888  0.00  0.00    -0.245 OA
BRANCH  29  31
ATOM     31  O   UNL     1       0.670   1.720  -1.733  0.00  0.00    -0.459 OA
BRANCH  31  32
ATOM     32  C   UNL     1       1.199   1.141  -0.538  0.00  0.00    +0.260 C 
BRANCH  32  33
ATOM     33  C   UNL     1       2.307   2.038   0.016  0.00  0.00    +0.200 C 
BRANCH  33  34
ATOM     34  O   UNL     1       1.749   3.291   0.418  0.00  0.00    -0.380 OA
ATOM     35  C   UNL     1       2.706   4.208   0.953  0.00  0.00    +0.194 C 
ENDBRANCH  33  34
ENDBRANCH  32  33
ENDBRANCH  31  32
ENDBRANCH  29  31
ENDBRANCH   5  29
TORSDOF 11
