REMARK  Name = ZINC39541453
REMARK  11 active torsions:
REMARK  status: ('A' for Active; 'I' for Inactive)
REMARK    1  A    between atoms: C_1  and  C_2
REMARK    2  A    between atoms: C_4  and  C_8
REMARK    3  A    between atoms: C_8  and  N_9
REMARK    4  A    between atoms: N_9  and  C_10
REMARK    5  A    between atoms: N_9  and  C_11
REMARK    6  A    between atoms: C_11  and  C_12
REMARK    7  A    between atoms: C_17  and  C_18
REMARK    8  A    between atoms: C_23  and  C_26
REMARK    9  A    between atoms: C_26  and  C_27
REMARK   10  A    between atoms: C_27  and  C_28
REMARK   11  A    between atoms: C_27  and  C_29
REMARK                            x       y       z     vdW  Elec       q    Type
REMARK                         _______ _______ _______ _____ _____    ______ ____
ROOT
ATOM      1  C   UNL     1       0.125  -6.250   2.606  0.00  0.00    -0.054 A 
ATOM      2  C   UNL     1      -0.502  -7.438   2.294  0.00  0.00    +0.002 A 
ATOM      3  C   UNL     1       0.196  -8.631   2.363  0.00  0.00    +0.000 A 
ATOM      4  C   UNL     1       1.526  -8.642   2.745  0.00  0.00    +0.001 A 
ATOM      5  C   UNL     1       2.165  -7.462   3.061  0.00  0.00    +0.011 A 
ATOM      6  C   UNL     1       1.469  -6.252   2.987  0.00  0.00    +0.014 A 
ENDROOT
BRANCH   6   7
ATOM      7  C   UNL     1       2.148  -4.984   3.316  0.00  0.00    +0.119 C 
ATOM      8  N   UNL     1       1.482  -3.845   3.256  0.00  0.00    -0.165 NA
ATOM      9  C   UNL     1       2.038  -2.678   3.561  0.00  0.00    +0.240 C 
ATOM     10  O   UNL     1       1.380  -1.661   3.461  0.00  0.00    -0.274 OA
ATOM     11  C   UNL     1       3.468  -2.590   4.028  0.00  0.00    +0.120 C 
ATOM     12  C   UNL     1       4.255  -3.771   3.445  0.00  0.00    +0.081 C 
ATOM     13  N   UNL     1       3.465  -4.992   3.689  0.00  0.00    -0.327 N 
ATOM     14  H   UNL     1       3.864  -5.776   4.097  0.00  0.00    +0.148 HD
BRANCH  12  15
ATOM     15  C   UNL     1       4.458  -3.568   1.942  0.00  0.00    +0.025 C 
BRANCH  15  16
ATOM     16  C   UNL     1       5.348  -4.685   1.392  0.00  0.00    -0.015 C 
ATOM     17  C   UNL     1       5.449  -4.554  -0.129  0.00  0.00    +0.007 C 
ATOM     18  C   UNL     1       6.744  -4.574   2.007  0.00  0.00    +0.007 C 
ENDBRANCH  15  16
ENDBRANCH  12  15
ENDBRANCH   6   7
BRANCH   1  19
ATOM     19  C   UNL     1      -0.636  -4.952   2.530  0.00  0.00    -0.043 C 
BRANCH  19  20
ATOM     20  N   UNL     1      -0.317  -4.269   1.269  0.00  0.00    +0.382 N 
ATOM     21  C   UNL     1      -0.805  -5.072   0.140  0.00  0.00    -0.096 C 
ATOM     22  H   UNL     1       0.683  -4.154   1.193  0.00  0.00    -0.082 HD
BRANCH  20  23
ATOM     23  C   UNL     1      -0.964  -2.951   1.248  0.00  0.00    -0.046 C 
BRANCH  23  27
ATOM     24  C   UNL     1      -0.018   1.503   0.010  0.00  0.00    +0.067 C 
ATOM     25  C   UNL     1       0.002  -0.004   0.002  0.00  0.00    +0.058 C 
ATOM     26  C   UNL     1      -1.086  -0.777   0.003  0.00  0.00    +0.024 C 
ATOM     27  C   UNL     1      -0.531  -2.190  -0.007  0.00  0.00    +0.136 C 
ATOM     28  N   UNL     1       0.926  -1.973  -0.013  0.00  0.00    -0.182 NA
ATOM     29  N   UNL     1       1.125  -0.756  -0.013  0.00  0.00    -0.159 NA
ENDBRANCH  23  27
ENDBRANCH  20  23
ENDBRANCH  19  20
ENDBRANCH   1  19
TORSDOF 7
