REMARK  Name = ZINC30883358
REMARK  12 active torsions:
REMARK  status: ('A' for Active; 'I' for Inactive)
REMARK    1  A    between atoms: C_1  and  C_2
REMARK    2  A    between atoms: C_4  and  C_29
REMARK    3  A    between atoms: C_6  and  C_26
REMARK    4  A    between atoms: C_9  and  C_11
REMARK    5  A    between atoms: C_11  and  C_12
REMARK    6  A    between atoms: C_15  and  C_17
REMARK    7  A    between atoms: C_20  and  N_23
REMARK    8  A    between atoms: C_26  and  C_27
REMARK    9  A    between atoms: C_26  and  C_28
REMARK   10  A    between atoms: C_29  and  N_30
REMARK   11  A    between atoms: N_30  and  C_31
REMARK   12  A    between atoms: C_31  and  C_32
REMARK                            x       y       z     vdW  Elec       q    Type
REMARK                         _______ _______ _______ _____ _____    ______ ____
ROOT
ATOM      1  C   UNL     1       2.191   2.186  -2.002  0.00  0.00    +0.039 C 
ATOM      2  C   UNL     1       3.661   1.940  -1.779  0.00  0.00    -0.073 C 
ATOM      3  C   UNL     1       4.490   2.879  -2.105  0.00  0.00    -0.026 C 
ATOM      4  C   UNL     1       5.979   2.777  -1.952  0.00  0.00    -0.002 C 
ATOM      5  C   UNL     1       6.334   1.636  -0.997  0.00  0.00    -0.003 C 
ATOM      6  C   UNL     1       5.566   0.382  -1.433  0.00  0.00    +0.012 C 
ATOM      7  C   UNL     1       4.073   0.621  -1.194  0.00  0.00    +0.024 C 
ENDROOT
BRANCH   5   8
ATOM      8  C   UNL     1       7.838   1.364  -1.056  0.00  0.00    -0.014 C 
ATOM      9  C   UNL     1       8.206   0.303  -0.017  0.00  0.00    +0.007 C 
ATOM     10  C   UNL     1       8.211   0.861  -2.452  0.00  0.00    +0.007 C 
ENDBRANCH   5   8
BRANCH   7  11
ATOM     11  C   UNL     1       3.794   0.624   0.310  0.00  0.00    +0.105 C 
BRANCH  11  12
ATOM     12  C   UNL     1       2.310   0.737   0.546  0.00  0.00    +0.218 A 
ATOM     13  N   UNL     1       1.470  -0.255   0.653  0.00  0.00    -0.112 NA
ATOM     14  N   UNL     1       0.285   0.205   0.850  0.00  0.00    -0.107 NA
ATOM     15  C   UNL     1       0.328   1.516   0.875  0.00  0.00    +0.248 A 
ATOM     16  O   UNL     1       1.612   1.878   0.683  0.00  0.00    -0.420 OA
BRANCH  15  17
ATOM     17  C   UNL     1      -0.819   2.428   1.071  0.00  0.00    +0.039 A 
ATOM     18  C   UNL     1      -0.623   3.810   1.080  0.00  0.00    +0.015 A 
ATOM     19  C   UNL     1      -1.699   4.655   1.257  0.00  0.00    +0.033 A 
ATOM     20  C   UNL     1      -2.968   4.136   1.438  0.00  0.00    +0.126 A 
ATOM     21  C   UNL     1      -3.169   2.767   1.435  0.00  0.00    +0.033 A 
ATOM     22  C   UNL     1      -2.103   1.911   1.253  0.00  0.00    +0.015 A 
BRANCH  20  23
ATOM     23  N   UNL     1      -4.117   5.048   1.633  0.00  0.00    +0.056 N 
ATOM     24  O   UNL     1      -5.236   4.594   1.792  0.00  0.00    -0.126 OA
ATOM     25  O   UNL     1      -3.943   6.254   1.636  0.00  0.00    -0.126 OA
ENDBRANCH  20  23
ENDBRANCH  15  17
ENDBRANCH  11  12
ENDBRANCH   7  11
BRANCH   4  26
ATOM     26  C   UNL     1       6.521   4.094  -1.392  0.00  0.00    -0.074 C 
BRANCH  26  27
ATOM     27  N   UNL     1       6.300   5.169  -2.369  0.00  0.00    +0.382 N 
ATOM     28  H   UNL     1       6.822   4.926  -3.306  0.00  0.00    -0.085 HD
ATOM     29  H   UNL     1       5.222   5.269  -2.566  0.00  0.00    -0.085 HD
BRANCH  27  30
ATOM     30  C   UNL     1       6.808   6.451  -1.864  0.00  0.00    -0.045 C 
BRANCH  30  31
ATOM     31  C   UNL     1       6.564   7.527  -2.890  0.00  0.00    -0.046 A 
ATOM     32  C   UNL     1       5.385   8.257  -2.876  0.00  0.00    +0.005 A 
ATOM     33  C   UNL     1       5.204   9.237  -3.840  0.00  0.00    +0.020 A 
ATOM     34  C   UNL     1       6.198   9.453  -4.776  0.00  0.00    +0.111 A 
ATOM     35  N   UNL     1       7.306   8.739  -4.759  0.00  0.00    -0.263 NA
ATOM     36  C   UNL     1       7.515   7.803  -3.854  0.00  0.00    +0.112 A 
ENDBRANCH  30  31
ENDBRANCH  27  30
ENDBRANCH  26  27
ENDBRANCH   4  26
TORSDOF 9
