REMARK  Name = ZINC63833954
REMARK  3 active torsions:
REMARK  status: ('A' for Active; 'I' for Inactive)
REMARK    1  A    between atoms: C_3  and  N_12
REMARK    2  A    between atoms: C_6  and  C_7
REMARK    3  A    between atoms: C_13  and  C_15
REMARK                            x       y       z     vdW  Elec       q    Type
REMARK                         _______ _______ _______ _____ _____    ______ ____
ROOT
ATOM      1  N   UNL     1       3.583   2.133  -0.021  0.00  0.00    -0.284 N 
ATOM      2  C   UNL     1       4.758   1.480   0.066  0.00  0.00    +0.240 C 
ATOM      3  O   UNL     1       4.780   0.267   0.060  0.00  0.00    -0.273 OA
ATOM      4  H   UNL     1       3.570   3.100  -0.093  0.00  0.00    +0.155 HD
ENDROOT
BRANCH   2   5
ATOM      5  C   UNL     1       6.046   2.256   0.171  0.00  0.00    +0.188 C 
ATOM      6  C   UNL     1       6.543   2.690  -1.214  0.00  0.00    +0.092 C 
ATOM      7  C   UNL     1       6.001   4.048  -1.570  0.00  0.00    -0.015 C 
ATOM      8  C   UNL     1       6.852   4.902  -2.159  0.00  0.00    -0.003 C 
ATOM      9  C   UNL     1       8.235   4.530  -2.436  0.00  0.00    +0.002 C 
ATOM     10  C   UNL     1       8.820   3.427  -1.916  0.00  0.00    +0.025 C 
ATOM     11  C   UNL     1       8.054   2.559  -1.084  0.00  0.00    +0.068 C 
ATOM     12  N   UNL     1       8.301   1.748  -0.112  0.00  0.00    -0.190 NA
ATOM     13  N   UNL     1       7.160   1.383   0.616  0.00  0.00    -0.256 N 
ATOM     14  H   UNL     1       7.107   0.686   1.288  0.00  0.00    +0.169 HD
ENDBRANCH   2   5
BRANCH   1  17
ATOM     15  C   UNL     1       1.094  -0.458   0.756  0.00  0.00    +0.012 A 
ATOM     16  C   UNL     1       2.277   0.250   0.741  0.00  0.00    +0.024 A 
ATOM     17  C   UNL     1       2.381   1.416  -0.007  0.00  0.00    +0.033 A 
ATOM     18  C   UNL     1       1.293   1.872  -0.742  0.00  0.00    +0.024 A 
ATOM     19  C   UNL     1       0.107   1.168  -0.729  0.00  0.00    +0.012 A 
ATOM     20  C   UNL     1       0.001  -0.002   0.021  0.00  0.00    +0.001 A 
BRANCH  20  21
ATOM     21  C   UNL     1      -1.273  -0.762   0.035  0.00  0.00    +0.078 A 
ATOM     22  C   UNL     1      -2.366  -0.350  -0.678  0.00  0.00    +0.075 A 
ATOM     23  S   UNL     1      -3.534  -1.635  -0.264  0.00  0.00    -0.083 S 
ATOM     24  C   UNL     1      -2.539  -2.540   0.747  0.00  0.00    +0.156 A 
ATOM     25  N   UNL     1      -1.411  -1.879   0.736  0.00  0.00    -0.247 NA
ENDBRANCH  20  21
ENDBRANCH   1  17
TORSDOF 3
