REMARK  Name = ZINC66698617
REMARK  8 active torsions:
REMARK  status: ('A' for Active; 'I' for Inactive)
REMARK    1  A    between atoms: C_1  and  C_2
REMARK    2  A    between atoms: C_2  and  C_3
REMARK    3  A    between atoms: C_3  and  N_4
REMARK    4  A    between atoms: N_4  and  C_5
REMARK    5  A    between atoms: C_5  and  C_6
REMARK    6  A    between atoms: C_11  and  O_12
REMARK    7  A    between atoms: N_15  and  C_16
REMARK    8  A    between atoms: C_22  and  C_24
REMARK                            x       y       z     vdW  Elec       q    Type
REMARK                         _______ _______ _______ _____ _____    ______ ____
ROOT
ATOM      1  N   UNL     1       0.738  -1.962  -1.265  0.00  0.00    -0.281 N 
ATOM      2  C   UNL     1       1.764  -2.626  -0.695  0.00  0.00    +0.303 C 
ATOM      3  O   UNL     1       1.780  -3.841  -0.701  0.00  0.00    -0.253 OA
ATOM      4  N   UNL     1       2.771  -1.941  -0.117  0.00  0.00    -0.296 N 
ATOM      5  H   UNL     1       2.757  -0.971  -0.112  0.00  0.00    +0.151 HD
ENDROOT
BRANCH   4   6
ATOM      6  C   UNL     1       3.885  -2.662   0.503  0.00  0.00    +0.086 C 
ATOM      7  C   UNL     1       3.513  -3.039   1.938  0.00  0.00    +0.023 C 
ATOM      8  C   UNL     1       4.678  -3.792   2.586  0.00  0.00    +0.002 C 
ATOM      9  C   UNL     1       5.919  -2.898   2.599  0.00  0.00    +0.001 C 
ATOM     10  C   UNL     1       6.291  -2.521   1.163  0.00  0.00    +0.014 C 
ATOM     11  C   UNL     1       5.127  -1.768   0.516  0.00  0.00    +0.113 C 
BRANCH  11  12
ATOM     12  C   UNL     1       5.498  -1.391  -0.920  0.00  0.00    +0.395 C 
ATOM     13  F   UNL     1       4.434  -0.703  -1.512  0.00  0.00    -0.170 F 
ATOM     14  F   UNL     1       6.634  -0.574  -0.908  0.00  0.00    -0.170 F 
ATOM     15  F   UNL     1       5.768  -2.552  -1.652  0.00  0.00    -0.170 F 
ENDBRANCH  11  12
ENDBRANCH   4   6
BRANCH   1  16
ATOM     16  C   UNL     1       0.718  -0.497  -1.257  0.00  0.00    +0.109 C 
BRANCH  16  18
ATOM     17  C   UNL     1      -0.019   1.526   0.010  0.00  0.00    +0.005 C 
ATOM     18  C   UNL     1       0.002  -0.004   0.002  0.00  0.00    +0.016 C 
ENDBRANCH  16  18
ENDBRANCH   1  16
BRANCH   1  19
ATOM     19  C   UNL     1      -0.357  -2.706  -1.893  0.00  0.00    +0.148 C 
BRANCH  19  20
ATOM     20  C   UNL     1      -0.033  -2.945  -3.345  0.00  0.00    +0.011 A 
ATOM     21  C   UNL     1      -0.588  -2.137  -4.319  0.00  0.00    +0.009 A 
ATOM     22  C   UNL     1      -0.292  -2.356  -5.652  0.00  0.00    +0.001 A 
ATOM     23  C   UNL     1       0.559  -3.383  -6.013  0.00  0.00    +0.004 A 
ATOM     24  C   UNL     1       1.116  -4.194  -5.044  0.00  0.00    +0.046 A 
ATOM     25  C   UNL     1       0.825  -3.973  -3.705  0.00  0.00    +0.122 A 
BRANCH  25  26
ATOM     26  O   UNL     1       1.377  -4.766  -2.749  0.00  0.00    -0.506 OA
ATOM     27  H   UNL     1       0.849  -5.548  -2.534  0.00  0.00    +0.292 HD
ENDBRANCH  25  26
ENDBRANCH  19  20
ENDBRANCH   1  19
TORSDOF 7
