REMARK  Name = ZINC06293584
REMARK  4 active torsions:
REMARK  status: ('A' for Active; 'I' for Inactive)
REMARK    1  A    between atoms: C_1  and  C_2
REMARK    2  A    between atoms: C_2  and  C_4
REMARK    3  A    between atoms: C_7  and  C_21
REMARK    4  A    between atoms: C_9  and  C_20
REMARK                            x       y       z     vdW  Elec       q    Type
REMARK                         _______ _______ _______ _____ _____    ______ ____
ROOT
ATOM      1  C   UNL     1      -1.333   2.239   0.021  0.00  0.00    +0.038 C 
ATOM      2  C   UNL     1      -2.142   1.862  -1.225  0.00  0.00    +0.031 C 
ATOM      3  C   UNL     1      -3.509   2.539  -1.136  0.00  0.00    +0.102 C 
ATOM      4  C   UNL     1      -4.285   2.028   0.066  0.00  0.00    +0.005 C 
ATOM      5  C   UNL     1      -5.379   3.029   0.448  0.00  0.00    +0.017 C 
ATOM      6  C   UNL     1      -6.139   2.508   1.669  0.00  0.00    +0.066 C 
ATOM      7  C   UNL     1      -5.189   2.397   2.862  0.00  0.00    +0.174 C 
ATOM      8  C   UNL     1      -4.092   1.372   2.560  0.00  0.00    +0.096 C 
ATOM      9  C   UNL     1      -3.413   1.765   1.259  0.00  0.00    -0.061 C 
ATOM     10  C   UNL     1      -2.114   1.856   1.245  0.00  0.00    -0.019 C 
ATOM     11  O   UNL     1      -5.925   1.978   4.023  0.00  0.00    -0.346 OA
ATOM     12  C   UNL     1      -5.306   2.682   5.126  0.00  0.00    +0.191 C 
ATOM     13  C   UNL     1      -4.952   4.042   4.474  0.00  0.00    +0.191 C 
ATOM     14  O   UNL     1      -4.594   3.674   3.126  0.00  0.00    -0.346 OA
ATOM     15  C   UNL     1      -4.957   0.709  -0.322  0.00  0.00    +0.017 C 
ENDROOT
BRANCH   1  17
ATOM     16  C   UNL     1       0.002  -0.004   0.002  0.00  0.00    +0.039 C 
ATOM     17  C   UNL     1      -0.018   1.503   0.010  0.00  0.00    -0.073 C 
ATOM     18  C   UNL     1       1.107   2.173   0.003  0.00  0.00    +0.008 C 
ENDBRANCH   1  17
BRANCH   3  19
ATOM     19  C   UNL     1      -3.322   3.994  -1.009  0.00  0.00    +0.067 C 
ATOM     20  N   UNL     1      -3.177   5.116  -0.911  0.00  0.00    -0.196 NA
ENDBRANCH   3  19
TORSDOF 2
