REMARK  Name = ZINC40044521
REMARK  8 active torsions:
REMARK  status: ('A' for Active; 'I' for Inactive)
REMARK    1  A    between atoms: C_1  and  C_2
REMARK    2  A    between atoms: C_2  and  O_3
REMARK    3  A    between atoms: O_3  and  C_4
REMARK    4  A    between atoms: C_6  and  C_11
REMARK    5  A    between atoms: C_9  and  O_10
REMARK    6  A    between atoms: C_18  and  C_35
REMARK    7  A    between atoms: C_20  and  C_34
REMARK    8  A    between atoms: C_30  and  C_33
REMARK                            x       y       z     vdW  Elec       q    Type
REMARK                         _______ _______ _______ _____ _____    ______ ____
ROOT
ATOM      1  C   UNL     1       0.654  -4.954  -0.018  0.00  0.00    +0.151 C 
ATOM      2  C   UNL     1       0.899  -5.472  -1.397  0.00  0.00    +0.072 A 
ATOM      3  C   UNL     1       1.188  -4.774  -2.654  0.00  0.00    +0.199 A 
ATOM      4  O   UNL     1       1.446  -3.584  -2.713  0.00  0.00    -0.287 OA
ATOM      5  C   UNL     1       1.136  -5.654  -3.849  0.00  0.00    +0.065 A 
ATOM      6  C   UNL     1       1.190  -5.109  -5.131  0.00  0.00    +0.018 A 
ATOM      7  C   UNL     1       1.136  -5.933  -6.221  0.00  0.00    -0.049 A 
ATOM      8  C   UNL     1       1.027  -7.306  -6.054  0.00  0.00    +0.010 A 
ATOM      9  C   UNL     1       0.973  -7.861  -4.795  0.00  0.00    -0.007 A 
ATOM     10  C   UNL     1       1.029  -7.043  -3.667  0.00  0.00    +0.142 A 
ATOM     11  O   UNL     1       0.985  -7.610  -2.441  0.00  0.00    -0.449 OA
ATOM     12  C   UNL     1       0.807  -6.834  -1.353  0.00  0.00    +0.199 A 
ATOM     13  C   UNL     1       0.499  -7.232   0.031  0.00  0.00    +0.288 C 
ATOM     14  O   UNL     1       0.349  -8.377   0.409  0.00  0.00    -0.266 OA
ATOM     15  N   UNL     1       0.409  -6.139   0.820  0.00  0.00    -0.238 N 
ATOM     16  C   UNL     1       0.135  -6.134   2.185  0.00  0.00    +0.129 A 
ATOM     17  C   UNL     1      -0.035  -4.924   2.849  0.00  0.00    +0.044 A 
ATOM     18  C   UNL     1      -0.308  -4.933   4.205  0.00  0.00    +0.008 A 
ATOM     19  C   UNL     1      -0.401  -6.157   4.854  0.00  0.00    -0.032 A 
ATOM     20  C   UNL     1      -0.221  -7.321   4.132  0.00  0.00    +0.116 A 
ATOM     21  N   UNL     1       0.032  -7.281   2.838  0.00  0.00    -0.240 NA
ATOM     22  C   UNL     1      -0.696  -6.216   6.330  0.00  0.00    +0.045 C 
ATOM     23  C   UNL     1       0.853  -9.355  -4.636  0.00  0.00    +0.047 C 
ATOM     24  C   UNL     1       1.195  -5.347  -7.609  0.00  0.00    +0.044 C 
ENDROOT
BRANCH   1  27
ATOM     25  C   UNL     1      -1.498  -1.849   0.006  0.00  0.00    +0.162 A 
ATOM     26  C   UNL     1      -0.389  -2.680  -0.003  0.00  0.00    +0.055 A 
ATOM     27  C   UNL     1      -0.553  -4.052  -0.008  0.00  0.00    -0.018 A 
ATOM     28  C   UNL     1      -1.823  -4.600  -0.005  0.00  0.00    +0.009 A 
ATOM     29  C   UNL     1      -2.934  -3.777   0.004  0.00  0.00    +0.049 A 
ATOM     30  C   UNL     1      -2.776  -2.400   0.016  0.00  0.00    +0.158 A 
BRANCH  30  31
ATOM     31  O   UNL     1      -3.868  -1.589   0.030  0.00  0.00    -0.503 OA
ATOM     32  H   UNL     1      -4.192  -1.350  -0.849  0.00  0.00    +0.292 HD
ENDBRANCH  30  31
BRANCH  25  33
ATOM     33  O   UNL     1      -1.339  -0.499   0.012  0.00  0.00    -0.489 OA
BRANCH  33  35
ATOM     34  C   UNL     1      -0.019   1.526   0.010  0.00  0.00    +0.048 C 
ATOM     35  C   UNL     1       0.002  -0.004   0.002  0.00  0.00    +0.226 C 
ENDBRANCH  33  35
ENDBRANCH  25  33
ENDBRANCH   1  27
TORSDOF 4
