REMARK  Name = ZINC13390025
REMARK  7 active torsions:
REMARK  status: ('A' for Active; 'I' for Inactive)
REMARK    1  A    between atoms: N_9  and  S_10
REMARK    2  A    between atoms: S_10  and  C_13
REMARK    3  A    between atoms: C_17  and  C_19
REMARK    4  A    between atoms: N_21  and  C_22
REMARK    5  A    between atoms: C_22  and  C_24
REMARK    6  A    between atoms: C_22  and  C_27
REMARK    7  A    between atoms: C_24  and  C_25
REMARK                            x       y       z     vdW  Elec       q    Type
REMARK                         _______ _______ _______ _____ _____    ______ ____
ROOT
ATOM      1  C   UNL     1      -0.096  -0.519   0.407  0.00  0.00    +0.109 A 
ATOM      2  C   UNL     1      -0.067  -1.291   1.555  0.00  0.00    +0.029 A 
ATOM      3  C   UNL     1      -0.021  -2.671   1.468  0.00  0.00    +0.003 A 
ATOM      4  C   UNL     1      -0.004  -3.287   0.233  0.00  0.00    +0.013 A 
ATOM      5  C   UNL     1      -0.032  -2.514  -0.929  0.00  0.00    +0.039 A 
ATOM      6  C   UNL     1      -0.084  -1.123  -0.834  0.00  0.00    +0.041 A 
ENDROOT
BRANCH   5   7
ATOM      7  C   UNL     1      -0.014  -3.168  -2.255  0.00  0.00    +0.245 C 
ATOM      8  O   UNL     1      -0.039  -2.492  -3.266  0.00  0.00    -0.270 OA
ATOM      9  N   UNL     1       0.029  -4.512  -2.344  0.00  0.00    -0.303 N 
ATOM     10  H   UNL     1       0.120  -5.048  -1.541  0.00  0.00    +0.150 HD
BRANCH   9  11
ATOM     11  C   UNL     1      -0.059  -5.163  -3.653  0.00  0.00    +0.121 C 
BRANCH  11  12
ATOM     12  C   UNL     1      -0.503  -6.592  -3.475  0.00  0.00    +0.011 A 
ATOM     13  C   UNL     1      -1.372  -7.316  -4.221  0.00  0.00    +0.013 A 
ATOM     14  C   UNL     1      -1.629  -8.627  -3.869  0.00  0.00    +0.008 A 
ATOM     15  C   UNL     1      -1.011  -9.148  -2.780  0.00  0.00    +0.045 A 
ATOM     16  S   UNL     1      -0.025  -7.769  -2.220  0.00  0.00    -0.100 S 
ENDBRANCH  11  12
BRANCH  11  17
ATOM     17  C   UNL     1       1.312  -5.135  -4.331  0.00  0.00    +0.152 C 
BRANCH  17  18
ATOM     18  C   UNL     1       1.189  -5.664  -5.736  0.00  0.00    +0.358 C 
ATOM     19  O   UNL     1       0.100  -5.920  -6.192  0.00  0.00    -0.246 OA
ATOM     20  O   UNL     1       2.289  -5.851  -6.482  0.00  0.00    -0.246 OA
ENDBRANCH  17  18
ENDBRANCH  11  17
ENDBRANCH   9  11
ENDBRANCH   5   7
BRANCH   1  21
ATOM     21  S   UNL     1      -0.155   1.237   0.529  0.00  0.00    +0.075 S 
ATOM     22  O   UNL     1      -0.725   1.710  -0.684  0.00  0.00    -0.150 OA
ATOM     23  O   UNL     1      -0.714   1.537   1.801  0.00  0.00    -0.150 OA
BRANCH  21  32
ATOM     24  C   UNL     1       3.990   2.467   3.755  0.00  0.00    +0.000 A 
ATOM     25  C   UNL     1       2.721   2.005   4.058  0.00  0.00    +0.002 A 
ATOM     26  C   UNL     1       1.814   1.756   3.051  0.00  0.00    +0.025 A 
ATOM     27  C   UNL     1       2.168   1.967   1.716  0.00  0.00    +0.054 A 
ATOM     28  C   UNL     1       3.442   2.426   1.423  0.00  0.00    -0.023 A 
ATOM     29  C   UNL     1       4.350   2.670   2.436  0.00  0.00    +0.005 A 
ATOM     30  C   UNL     1       3.566   2.576  -0.077  0.00  0.00    +0.058 C 
ATOM     31  C   UNL     1       2.197   2.137  -0.623  0.00  0.00    +0.136 C 
ATOM     32  N   UNL     1       1.409   1.779   0.560  0.00  0.00    -0.202 N 
ENDBRANCH  21  32
ENDBRANCH   1  21
TORSDOF 7
