REMARK  Name = ZINC19220848
REMARK  5 active torsions:
REMARK  status: ('A' for Active; 'I' for Inactive)
REMARK    1  A    between atoms: C_1  and  C_2
REMARK    2  A    between atoms: C_9  and  C_14
REMARK    3  A    between atoms: C_14  and  C_16
REMARK    4  A    between atoms: C_14  and  N_27
REMARK    5  A    between atoms: N_20  and  C_21
REMARK                            x       y       z     vdW  Elec       q    Type
REMARK                         _______ _______ _______ _____ _____    ______ ____
ROOT
ATOM      1  C   UNL     1       3.512   0.638  -0.028  0.00  0.00    +0.163 C 
ENDROOT
BRANCH   1  10
ATOM      2  C   UNL     1       7.048   2.288  -6.383  0.00  0.00    +0.044 C 
ATOM      3  C   UNL     1       6.280   1.321  -5.519  0.00  0.00    -0.050 A 
ATOM      4  C   UNL     1       6.003   0.046  -5.992  0.00  0.00    +0.005 A 
ATOM      5  C   UNL     1       5.303  -0.855  -5.220  0.00  0.00    +0.026 A 
ATOM      6  C   UNL     1       4.867  -0.484  -3.952  0.00  0.00    +0.049 A 
ATOM      7  C   UNL     1       5.150   0.810  -3.475  0.00  0.00    -0.001 A 
ATOM      8  C   UNL     1       5.863   1.707  -4.277  0.00  0.00    +0.013 A 
ATOM      9  C   UNL     1       4.688   1.190  -2.139  0.00  0.00    +0.021 A 
ATOM     10  C   UNL     1       4.002   0.279  -1.407  0.00  0.00    +0.042 A 
ATOM     11  C   UNL     1       3.750  -1.008  -1.929  0.00  0.00    +0.254 A 
ATOM     12  O   UNL     1       3.135  -1.814  -1.252  0.00  0.00    -0.268 OA
ATOM     13  N   UNL     1       4.165  -1.365  -3.157  0.00  0.00    -0.322 N 
ATOM     14  H   UNL     1       3.938  -2.376  -3.525  0.00  0.00    +0.169 HD
ENDBRANCH   1  10
BRANCH   1  15
ATOM     15  N   UNL     1       4.011  -0.346   0.942  0.00  0.00    -0.284 NA
ATOM     16  C   UNL     1       3.570  -0.014   2.306  0.00  0.00    +0.090 C 
ATOM     17  C   UNL     1       3.794  -1.234   3.199  0.00  0.00    +0.051 C 
ATOM     18  C   UNL     1       5.203  -1.743   3.031  0.00  0.00    -0.042 A 
ATOM     19  C   UNL     1       5.714  -2.603   3.991  0.00  0.00    +0.004 A 
ATOM     20  C   UNL     1       6.997  -3.099   3.871  0.00  0.00    +0.000 A 
ATOM     21  C   UNL     1       7.776  -2.735   2.789  0.00  0.00    +0.000 A 
ATOM     22  C   UNL     1       7.269  -1.877   1.835  0.00  0.00    +0.005 A 
ATOM     23  C   UNL     1       5.981  -1.377   1.954  0.00  0.00    -0.030 A 
ATOM     24  C   UNL     1       5.473  -0.440   0.889  0.00  0.00    +0.120 C 
ENDBRANCH   1  15
BRANCH   1  25
ATOM     25  C   UNL     1       2.005   0.637  -0.014  0.00  0.00    +0.173 A 
ATOM     26  N   UNL     1       1.223  -0.415  -0.012  0.00  0.00    -0.111 NA
ATOM     27  N   UNL     1       0.002  -0.004   0.002  0.00  0.00    -0.023 NA
ATOM     28  N   UNL     1      -0.015   1.283   0.009  0.00  0.00    -0.044 NA
ATOM     29  N   UNL     1       1.200   1.716  -0.000  0.00  0.00    -0.224 N 
BRANCH  29  30
ATOM     30  C   UNL     1       1.625   3.118   0.003  0.00  0.00    +0.111 C 
ATOM     31  C   UNL     1       1.095   3.808   1.261  0.00  0.00    +0.027 C 
ATOM     32  C   UNL     1       1.538   5.273   1.264  0.00  0.00    +0.002 C 
ATOM     33  C   UNL     1       0.984   5.976   0.024  0.00  0.00    +0.000 C 
ATOM     34  C   UNL     1       1.514   5.286  -1.234  0.00  0.00    +0.002 C 
ATOM     35  C   UNL     1       1.070   3.821  -1.237  0.00  0.00    +0.027 C 
ENDBRANCH  29  30
ENDBRANCH   1  25
TORSDOF 4
