REMARK  Name = ZINC58687001
REMARK  12 active torsions:
REMARK  status: ('A' for Active; 'I' for Inactive)
REMARK    1  A    between atoms: C_1  and  C_2
REMARK    2  A    between atoms: C_2  and  N_3
REMARK    3  A    between atoms: N_3  and  C_4
REMARK    4  A    between atoms: N_3  and  C_6
REMARK    5  A    between atoms: C_4  and  C_5
REMARK    6  A    between atoms: C_6  and  C_7
REMARK    7  A    between atoms: C_12  and  C_13
REMARK    8  A    between atoms: C_13  and  N_14
REMARK    9  A    between atoms: N_20  and  S_23
REMARK   10  A    between atoms: S_23  and  C_26
REMARK   11  A    between atoms: C_29  and  C_33
REMARK   12  A    between atoms: C_31  and  C_32
REMARK                            x       y       z     vdW  Elec       q    Type
REMARK                         _______ _______ _______ _____ _____    ______ ____
ROOT
ATOM      1  N   UNL     1      -0.620  -2.634  -4.734  0.00  0.00    -0.295 N 
ATOM      2  C   UNL     1       0.133  -2.434  -5.833  0.00  0.00    +0.303 C 
ATOM      3  O   UNL     1       0.305  -1.307  -6.256  0.00  0.00    -0.253 OA
ATOM      4  N   UNL     1       0.697  -3.483  -6.464  0.00  0.00    -0.283 N 
ATOM      5  C   UNL     1       0.401  -4.858  -6.039  0.00  0.00    +0.126 C 
ATOM      6  C   UNL     1      -0.117  -5.645  -7.249  0.00  0.00    +0.128 C 
ATOM      7  N   UNL     1       0.803  -5.434  -8.375  0.00  0.00    -0.174 NA
ATOM      8  C   UNL     1       1.099  -4.059  -8.801  0.00  0.00    +0.128 C 
ATOM      9  C   UNL     1       1.613  -3.272  -7.594  0.00  0.00    +0.126 C 
ATOM     10  H   UNL     1      -0.696  -3.523  -4.353  0.00  0.00    +0.151 HD
ENDROOT
BRANCH   7  11
ATOM     11  S   UNL     1       1.495  -6.724  -9.151  0.00  0.00    +0.061 S 
ATOM     12  O   UNL     1       2.688  -6.242  -9.755  0.00  0.00    -0.153 OA
ATOM     13  O   UNL     1       1.491  -7.803  -8.227  0.00  0.00    -0.153 OA
BRANCH  11  14
ATOM     14  C   UNL     1       0.415  -7.182 -10.465  0.00  0.00    +0.108 A 
ATOM     15  C   UNL     1       0.832  -7.059 -11.777  0.00  0.00    +0.029 A 
ATOM     16  C   UNL     1      -0.015  -7.418 -12.808  0.00  0.00    +0.005 A 
ATOM     17  C   UNL     1      -1.280  -7.902 -12.527  0.00  0.00    -0.050 A 
ATOM     18  C   UNL     1      -1.696  -8.026 -11.215  0.00  0.00    +0.008 A 
ATOM     19  C   UNL     1      -0.847  -7.670 -10.184  0.00  0.00    -0.024 A 
ATOM     20  C   UNL     1      -1.299  -7.811  -8.753  0.00  0.00    +0.046 C 
ATOM     21  C   UNL     1      -2.204  -8.293 -13.652  0.00  0.00    +0.044 C 
ENDBRANCH  11  14
ENDBRANCH   7  11
BRANCH   1  22
ATOM     22  C   UNL     1      -1.324  -1.509  -4.114  0.00  0.00    +0.141 C 
BRANCH  22  28
ATOM     23  C   UNL     1      -1.432  -2.202  -1.711  0.00  0.00    -0.059 A 
ATOM     24  C   UNL     1      -2.135  -2.644  -0.605  0.00  0.00    +0.002 A 
ATOM     25  C   UNL     1      -3.492  -2.886  -0.700  0.00  0.00    +0.000 A 
ATOM     26  C   UNL     1      -4.148  -2.685  -1.901  0.00  0.00    +0.000 A 
ATOM     27  C   UNL     1      -3.446  -2.242  -3.006  0.00  0.00    +0.005 A 
ATOM     28  C   UNL     1      -2.088  -1.996  -2.910  0.00  0.00    -0.029 A 
BRANCH  23  29
ATOM     29  C   UNL     1       0.048  -1.938  -1.608  0.00  0.00    -0.043 C 
BRANCH  29  30
ATOM     30  N   UNL     1       0.278  -0.497  -1.444  0.00  0.00    +0.382 N 
ATOM     31  H   UNL     1      -0.167   0.003  -2.199  0.00  0.00    -0.081 HD
BRANCH  30  33
ATOM     32  C   UNL     1      -0.176   1.470  -0.057  0.00  0.00    -0.017 C 
ATOM     33  C   UNL     1      -0.286  -0.053  -0.163  0.00  0.00    -0.082 C 
ENDBRANCH  30  33
BRANCH  30  34
ATOM     34  C   UNL     1       1.722  -0.227  -1.464  0.00  0.00    -0.082 C 
ATOM     35  C   UNL     1       2.284  -0.554  -2.848  0.00  0.00    -0.017 C 
ENDBRANCH  30  34
ENDBRANCH  29  30
ENDBRANCH  23  29
ENDBRANCH  22  28
ENDBRANCH   1  22
TORSDOF 8
