REMARK  Name = ZINC39983337
REMARK  10 active torsions:
REMARK  status: ('A' for Active; 'I' for Inactive)
REMARK    1  A    between atoms: C_1  and  C_2
REMARK    2  A    between atoms: C_2  and  C_4
REMARK    3  A    between atoms: C_2  and  S_14
REMARK    4  A    between atoms: S_14  and  C_15
REMARK    5  A    between atoms: C_15  and  C_16
REMARK    6  A    between atoms: N_18  and  C_19
REMARK    7  A    between atoms: C_19  and  C_21
REMARK    8  A    between atoms: C_19  and  C_26
REMARK    9  A    between atoms: C_26  and  C_27
REMARK   10  A    between atoms: C_26  and  C_28
REMARK                            x       y       z     vdW  Elec       q    Type
REMARK                         _______ _______ _______ _____ _____    ______ ____
ROOT
ATOM      1  C   UNL     1       2.558  -0.012  -1.279  0.00  0.00    +0.165 C 
ENDROOT
BRANCH   1   2
ATOM      2  C   UNL     1       3.383  -0.437  -2.467  0.00  0.00    +0.223 C 
ATOM      3  O   UNL     1       2.869  -1.067  -3.367  0.00  0.00    -0.275 OA
ATOM      4  N   UNL     1       4.690  -0.117  -2.528  0.00  0.00    -0.307 N 
ATOM      5  H   UNL     1       5.101   0.387  -1.808  0.00  0.00    +0.149 HD
BRANCH   4   6
ATOM      6  C   UNL     1       5.492  -0.530  -3.683  0.00  0.00    +0.112 C 
BRANCH   6   7
ATOM      7  C   UNL     1       6.664   0.404  -3.840  0.00  0.00    +0.010 A 
ATOM      8  C   UNL     1       7.199   0.918  -4.975  0.00  0.00    +0.013 A 
ATOM      9  C   UNL     1       8.287   1.766  -4.879  0.00  0.00    +0.008 A 
ATOM     10  C   UNL     1       8.786   2.058  -3.653  0.00  0.00    +0.045 A 
ATOM     11  S   UNL     1       7.703   1.126  -2.582  0.00  0.00    -0.100 S 
ENDBRANCH   6   7
BRANCH   6  12
ATOM     12  C   UNL     1       6.002  -1.956  -3.465  0.00  0.00    +0.008 C 
ATOM     13  C   UNL     1       4.812  -2.905  -3.305  0.00  0.00    +0.009 C 
ATOM     14  C   UNL     1       6.839  -2.388  -4.671  0.00  0.00    +0.009 C 
ENDBRANCH   6  12
ENDBRANCH   4   6
ENDBRANCH   1   2
BRANCH   1  15
ATOM     15  S   UNL     1       0.851  -0.589  -1.490  0.00  0.00    -0.141 S 
BRANCH  15  17
ATOM     16  C   UNL     1      -0.019   1.526   0.010  0.00  0.00    +0.027 C 
ATOM     17  C   UNL     1       0.002  -0.004   0.002  0.00  0.00    +0.110 C 
BRANCH  17  18
ATOM     18  C   UNL     1      -1.412  -0.526   0.013  0.00  0.00    +0.121 A 
ATOM     19  N   UNL     1      -1.929  -1.395  -0.897  0.00  0.00    -0.341 N 
ATOM     20  H   UNL     1      -1.460  -1.781  -1.654  0.00  0.00    +0.167 HD
ATOM     21  C   UNL     1      -3.243  -1.625  -0.544  0.00  0.00    +0.066 A 
ATOM     22  C   UNL     1      -4.265  -2.401  -1.075  0.00  0.00    +0.028 A 
ATOM     23  C   UNL     1      -5.501  -2.412  -0.465  0.00  0.00    +0.002 A 
ATOM     24  C   UNL     1      -5.730  -1.652   0.674  0.00  0.00    +0.002 A 
ATOM     25  C   UNL     1      -4.737  -0.882   1.209  0.00  0.00    +0.030 A 
ATOM     26  C   UNL     1      -3.476  -0.857   0.609  0.00  0.00    +0.089 A 
ATOM     27  N   UNL     1      -2.314  -0.215   0.897  0.00  0.00    -0.231 NA
ENDBRANCH  17  18
ENDBRANCH  15  17
ENDBRANCH   1  15
TORSDOF 7
