REMARK  Name = ZINC15307484
REMARK  5 active torsions:
REMARK  status: ('A' for Active; 'I' for Inactive)
REMARK    1  A    between atoms: C_8  and  C_10
REMARK    2  A    between atoms: N_13  and  C_16
REMARK    3  A    between atoms: N_21  and  C_24
REMARK    4  A    between atoms: C_24  and  C_25
REMARK    5  A    between atoms: C_28  and  N_31
REMARK                            x       y       z     vdW  Elec       q    Type
REMARK                         _______ _______ _______ _____ _____    ______ ____
ROOT
ATOM      1  C   UNL     1       5.713  -7.305  -0.059  0.00  0.00    +0.029 C 
ATOM      2  C   UNL     1       6.591  -7.526  -1.308  0.00  0.00    +0.090 C 
ATOM      3  C   UNL     1       7.950  -7.856  -0.731  0.00  0.00    +0.221 C 
ATOM      4  O   UNL     1       8.946  -8.103  -1.377  0.00  0.00    -0.275 OA
ATOM      5  N   UNL     1       7.879  -7.832   0.606  0.00  0.00    -0.239 N 
ATOM      6  C   UNL     1       6.665  -7.534   1.094  0.00  0.00    +0.209 C 
ATOM      7  O   UNL     1       6.376  -7.458   2.269  0.00  0.00    -0.277 OA
ENDROOT
BRANCH   1  11
ATOM      8  C   UNL     1       3.053  -3.977   0.038  0.00  0.00    +0.041 C 
ATOM      9  C   UNL     1       3.921  -4.284   1.262  0.00  0.00    -0.009 C 
ATOM     10  C   UNL     1       4.401  -5.735   1.190  0.00  0.00    -0.077 C 
ATOM     11  N   UNL     1       5.189  -5.932  -0.033  0.00  0.00    +0.388 N 
ATOM     12  C   UNL     1       4.344  -5.710  -1.212  0.00  0.00    -0.077 C 
ATOM     13  C   UNL     1       3.861  -4.258  -1.232  0.00  0.00    -0.009 C 
ATOM     14  H   UNL     1       5.959  -5.280  -0.044  0.00  0.00    -0.081 HD
BRANCH   8  22
ATOM     15  C   UNL     1      -0.053   1.344   0.162  0.00  0.00    +0.002 A 
ATOM     16  C   UNL     1       1.117   2.090   0.147  0.00  0.00    +0.001 A 
ATOM     17  C   UNL     1       2.338   1.442   0.115  0.00  0.00    +0.017 A 
ATOM     18  C   UNL     1       2.370   0.069   0.099  0.00  0.00    +0.039 A 
ATOM     19  C   UNL     1       1.194  -0.715   0.114  0.00  0.00    +0.078 A 
ATOM     20  C   UNL     1      -0.032  -0.017   0.146  0.00  0.00    +0.029 A 
ATOM     21  N   UNL     1       1.434  -2.042   0.093  0.00  0.00    -0.244 NA
ATOM     22  C   UNL     1       2.641  -2.528   0.063  0.00  0.00    +0.082 A 
ATOM     23  S   UNL     1       3.638  -1.171   0.059  0.00  0.00    -0.072 S 
ENDBRANCH   8  22
ENDBRANCH   1  11
BRANCH   5  24
ATOM     24  C   UNL     1       9.032  -8.109   1.466  0.00  0.00    +0.151 C 
BRANCH  24  25
ATOM     25  C   UNL     1       9.765  -6.824   1.754  0.00  0.00    -0.030 A 
ATOM     26  C   UNL     1      10.779  -6.405   0.912  0.00  0.00    +0.007 A 
ATOM     27  C   UNL     1      11.453  -5.228   1.174  0.00  0.00    +0.024 A 
ATOM     28  C   UNL     1      11.111  -4.465   2.282  0.00  0.00    +0.036 A 
ATOM     29  C   UNL     1      10.091  -4.889   3.125  0.00  0.00    +0.024 A 
ATOM     30  C   UNL     1       9.418  -6.064   2.856  0.00  0.00    +0.007 A 
BRANCH  28  31
ATOM     31  N   UNL     1      11.791  -3.272   2.550  0.00  0.00    -0.271 N 
ATOM     32  C   UNL     1      11.435  -2.339   3.625  0.00  0.00    +0.114 C 
ATOM     33  C   UNL     1      12.675  -1.438   3.817  0.00  0.00    +0.029 C 
ATOM     34  C   UNL     1      13.342  -1.520   2.424  0.00  0.00    +0.098 C 
ATOM     35  C   UNL     1      12.860  -2.837   1.860  0.00  0.00    +0.220 C 
ATOM     36  O   UNL     1      13.361  -3.416   0.919  0.00  0.00    -0.275 OA
ENDBRANCH  28  31
ENDBRANCH  24  25
ENDBRANCH   5  24
TORSDOF 5
