REMARK  Name = ZINC08448862
REMARK  6 active torsions:
REMARK  status: ('A' for Active; 'I' for Inactive)
REMARK    1  A    between atoms: C_1  and  C_2
REMARK    2  A    between atoms: C_2  and  C_4
REMARK    3  A    between atoms: C_2  and  O_20
REMARK    4  A    between atoms: N_9  and  C_10
REMARK    5  A    between atoms: O_20  and  C_21
REMARK    6  A    between atoms: C_26  and  N_27
REMARK                            x       y       z     vdW  Elec       q    Type
REMARK                         _______ _______ _______ _____ _____    ______ ____
ROOT
ATOM      1  C   UNL     1      -7.080   1.160   2.302  0.00  0.00    +0.261 C 
ATOM      2  O   UNL     1      -6.819   1.998   3.139  0.00  0.00    -0.271 OA
ATOM      3  N   UNL     1      -6.135   0.769   1.423  0.00  0.00    -0.237 N 
ATOM      4  C   UNL     1      -4.901   1.309   1.476  0.00  0.00    +0.306 C 
ATOM      5  O   UNL     1      -4.640   2.148   2.315  0.00  0.00    -0.252 OA
ATOM      6  N   UNL     1      -3.957   0.918   0.597  0.00  0.00    -0.294 N 
ATOM      7  H   UNL     1      -6.344   0.099   0.753  0.00  0.00    +0.159 HD
ATOM      8  H   UNL     1      -4.165   0.248  -0.073  0.00  0.00    +0.151 HD
ENDROOT
BRANCH   6   9
ATOM      9  C   UNL     1      -2.616   1.504   0.654  0.00  0.00    +0.037 C 
ATOM     10  C   UNL     1      -1.744   0.891  -0.444  0.00  0.00    +0.029 C 
ATOM     11  C   UNL     1      -0.343   1.504  -0.385  0.00  0.00    -0.008 C 
ATOM     12  C   UNL     1       0.281   1.217   0.982  0.00  0.00    +0.007 C 
ATOM     13  C   UNL     1      -0.590   1.830   2.080  0.00  0.00    -0.008 C 
ATOM     14  C   UNL     1      -1.991   1.217   2.021  0.00  0.00    +0.029 C 
ATOM     15  C   UNL     1      -0.686   3.342   1.871  0.00  0.00    +0.007 C 
ATOM     16  C   UNL     1      -1.311   3.630   0.504  0.00  0.00    -0.008 C 
ATOM     17  C   UNL     1      -0.439   3.017  -0.594  0.00  0.00    +0.007 C 
ATOM     18  C   UNL     1      -2.711   3.017   0.445  0.00  0.00    +0.029 C 
ENDBRANCH   6   9
BRANCH   1  20
ATOM     19  C   UNL     1      -9.132   0.949   0.926  0.00  0.00    +0.062 C 
ATOM     20  C   UNL     1      -8.459   0.557   2.243  0.00  0.00    +0.256 C 
BRANCH  20  21
ATOM     21  O   UNL     1      -9.238   1.042   3.339  0.00  0.00    -0.478 OA
BRANCH  21  22
ATOM     22  C   UNL     1     -10.269   0.261   3.756  0.00  0.00    +0.152 A 
ATOM     23  C   UNL     1     -10.597  -0.891   3.055  0.00  0.00    +0.048 A 
ATOM     24  C   UNL     1     -11.645  -1.683   3.482  0.00  0.00    +0.004 A 
ATOM     25  C   UNL     1     -12.366  -1.330   4.607  0.00  0.00    +0.002 A 
ATOM     26  C   UNL     1     -12.041  -0.183   5.308  0.00  0.00    +0.036 A 
ATOM     27  C   UNL     1     -10.991   0.610   4.888  0.00  0.00    +0.168 A 
BRANCH  27  28
ATOM     28  N   UNL     1     -10.640   1.834   5.642  0.00  0.00    +0.060 N 
ATOM     29  O   UNL     1     -11.275   2.140   6.635  0.00  0.00    -0.126 OA
ATOM     30  O   UNL     1      -9.717   2.536   5.269  0.00  0.00    -0.126 OA
ENDBRANCH  27  28
ENDBRANCH  21  22
ENDBRANCH  20  21
ENDBRANCH   1  20
TORSDOF 5
