REMARK  Name = ZINC59960542
REMARK  14 active torsions:
REMARK  status: ('A' for Active; 'I' for Inactive)
REMARK    1  A    between atoms: C_1  and  O_2
REMARK    2  A    between atoms: O_2  and  C_3
REMARK    3  A    between atoms: C_6  and  S_9
REMARK    4  A    between atoms: S_9  and  N_12
REMARK    5  A    between atoms: N_12  and  C_13
REMARK    6  A    between atoms: N_12  and  C_21
REMARK    7  A    between atoms: C_13  and  C_14
REMARK    8  A    between atoms: C_14  and  C_15
REMARK    9  A    between atoms: C_21  and  C_22
REMARK   10  A    between atoms: N_24  and  N_25
REMARK   11  A    between atoms: C_26  and  C_27
REMARK   12  A    between atoms: C_30  and  O_33
REMARK   13  A    between atoms: O_33  and  C_34
REMARK   14  A    between atoms: C_34  and  C_35
REMARK                            x       y       z     vdW  Elec       q    Type
REMARK                         _______ _______ _______ _____ _____    ______ ____
ROOT
ATOM      1  N   UNL     1       4.211  -2.826  -4.180  0.00  0.00    -0.167 NA
ENDROOT
BRANCH   1   2
ATOM      2  S   UNL     1       2.618  -2.616  -4.580  0.00  0.00    +0.061 S 
ATOM      3  O   UNL     1       2.051  -3.915  -4.685  0.00  0.00    -0.153 OA
ATOM      4  O   UNL     1       2.587  -1.683  -5.651  0.00  0.00    -0.153 OA
BRANCH   2   8
ATOM      5  C   UNL     1       0.606  -0.607  -1.056  0.00  0.00    +0.120 A 
ATOM      6  C   UNL     1       1.173   0.161  -2.062  0.00  0.00    +0.047 A 
ATOM      7  C   UNL     1       1.786  -0.455  -3.136  0.00  0.00    +0.032 A 
ATOM      8  C   UNL     1       1.835  -1.835  -3.209  0.00  0.00    +0.106 A 
ATOM      9  C   UNL     1       1.270  -2.602  -2.207  0.00  0.00    +0.032 A 
ATOM     10  C   UNL     1       0.661  -1.992  -1.128  0.00  0.00    +0.047 A 
BRANCH   5  12
ATOM     11  C   UNL     1      -0.017   1.425   0.010  0.00  0.00    +0.277 C 
ATOM     12  O   UNL     1       0.002  -0.004   0.002  0.00  0.00    -0.495 OA
ENDBRANCH   5  12
ENDBRANCH   2   8
ENDBRANCH   1   2
BRANCH   1  13
ATOM     13  C   UNL     1       4.643  -4.056  -3.511  0.00  0.00    +0.114 C 
BRANCH  13  14
ATOM     14  C   UNL     1       5.152  -5.053  -4.554  0.00  0.00    +0.052 C 
BRANCH  14  15
ATOM     15  C   UNL     1       5.596  -6.318  -3.866  0.00  0.00    -0.046 A 
ATOM     16  C   UNL     1       6.902  -6.447  -3.434  0.00  0.00    +0.003 A 
ATOM     17  C   UNL     1       7.310  -7.608  -2.803  0.00  0.00    +0.000 A 
ATOM     18  C   UNL     1       6.410  -8.638  -2.603  0.00  0.00    +0.000 A 
ATOM     19  C   UNL     1       5.103  -8.508  -3.033  0.00  0.00    +0.000 A 
ATOM     20  C   UNL     1       4.694  -7.346  -3.661  0.00  0.00    +0.003 A 
ENDBRANCH  14  15
ENDBRANCH  13  14
ENDBRANCH   1  13
BRANCH   1  21
ATOM     21  C   UNL     1       5.189  -1.782  -4.495  0.00  0.00    +0.206 C 
BRANCH  21  22
ATOM     22  C   UNL     1       5.378  -0.891  -3.295  0.00  0.00    +0.248 C 
ATOM     23  O   UNL     1       4.756  -1.107  -2.276  0.00  0.00    -0.273 OA
ATOM     24  N   UNL     1       6.237   0.146  -3.353  0.00  0.00    -0.206 N 
ATOM     25  H   UNL     1       6.734   0.319  -4.168  0.00  0.00    +0.177 HD
BRANCH  24  26
ATOM     26  N   UNL     1       6.412   0.974  -2.237  0.00  0.00    -0.188 NA
ATOM     27  C   UNL     1       7.239   1.973  -2.293  0.00  0.00    +0.138 C 
BRANCH  27  28
ATOM     28  C   UNL     1       7.423   2.844  -1.119  0.00  0.00    -0.005 A 
ATOM     29  C   UNL     1       6.713   2.594   0.058  0.00  0.00    +0.013 A 
ATOM     30  C   UNL     1       6.889   3.411   1.154  0.00  0.00    +0.046 A 
ATOM     31  C   UNL     1       7.771   4.482   1.090  0.00  0.00    +0.121 A 
ATOM     32  C   UNL     1       8.479   4.735  -0.078  0.00  0.00    +0.046 A 
ATOM     33  C   UNL     1       8.313   3.920  -1.177  0.00  0.00    +0.013 A 
BRANCH  31  34
ATOM     34  O   UNL     1       7.941   5.285   2.172  0.00  0.00    -0.483 OA
BRANCH  34  35
ATOM     35  C   UNL     1       8.863   6.368   2.038  0.00  0.00    +0.324 C 
BRANCH  35  36
ATOM     36  C   UNL     1       8.920   7.143   3.329  0.00  0.00    +0.248 C 
ATOM     37  O   UNL     1       8.238   6.801   4.272  0.00  0.00    -0.272 OA
ATOM     38  N   UNL     1       9.728   8.216   3.437  0.00  0.00    -0.327 N 
ATOM     39  H   UNL     1      10.274   8.489   2.683  0.00  0.00    +0.145 HD
ATOM     40  H   UNL     1       9.765   8.714   4.268  0.00  0.00    +0.145 HD
ENDBRANCH  35  36
ENDBRANCH  34  35
ENDBRANCH  31  34
ENDBRANCH  27  28
ENDBRANCH  24  26
ENDBRANCH  21  22
ENDBRANCH   1  21
TORSDOF 13
