REMARK  Name = ZINC05061400
REMARK  3 active torsions:
REMARK  status: ('A' for Active; 'I' for Inactive)
REMARK    1  A    between atoms: C_1  and  C_2
REMARK    2  A    between atoms: C_6  and  N_8
REMARK    3  A    between atoms: C_12  and  C_13
REMARK                            x       y       z     vdW  Elec       q    Type
REMARK                         _______ _______ _______ _____ _____    ______ ____
ROOT
ATOM      1  N   UNL     1      -6.184  -0.995   0.266  0.00  0.00    -0.190 N 
ATOM      2  C   UNL     1      -5.073  -0.334  -0.118  0.00  0.00    +0.263 C 
ATOM      3  O   UNL     1      -5.123   0.837  -0.445  0.00  0.00    -0.269 OA
ATOM      4  C   UNL     1      -3.795  -1.072  -0.137  0.00  0.00    +0.100 C 
ATOM      5  C   UNL     1      -2.615  -0.463  -0.525  0.00  0.00    +0.026 C 
ATOM      6  C   UNL     1      -3.831  -2.487   0.282  0.00  0.00    +0.257 C 
ATOM      7  O   UNL     1      -2.818  -3.160   0.297  0.00  0.00    -0.270 OA
ATOM      8  N   UNL     1      -5.019  -3.013   0.647  0.00  0.00    -0.235 N 
ATOM      9  C   UNL     1      -6.142  -2.283   0.635  0.00  0.00    +0.320 C 
ATOM     10  O   UNL     1      -7.179  -2.817   0.976  0.00  0.00    -0.251 OA
ATOM     11  H   UNL     1      -5.060  -3.941   0.925  0.00  0.00    +0.159 HD
ENDROOT
BRANCH   5  12
ATOM     12  C   UNL     1      -2.642   0.827  -1.108  0.00  0.00    -0.016 A 
ATOM     13  C   UNL     1      -3.511   1.116  -2.163  0.00  0.00    +0.008 A 
ATOM     14  C   UNL     1      -3.533   2.380  -2.729  0.00  0.00    +0.001 A 
ATOM     15  C   UNL     1      -2.719   3.381  -2.290  0.00  0.00    +0.008 A 
ATOM     16  C   UNL     1      -1.818   3.163  -1.234  0.00  0.00    -0.017 A 
ATOM     17  C   UNL     1      -1.754   1.887  -0.624  0.00  0.00    -0.011 A 
ATOM     18  C   UNL     1      -0.863   1.669   0.431  0.00  0.00    +0.009 A 
ATOM     19  C   UNL     1      -0.057   2.685   0.855  0.00  0.00    +0.001 A 
ATOM     20  C   UNL     1      -0.113   3.939   0.255  0.00  0.00    +0.001 A 
ATOM     21  C   UNL     1      -0.973   4.188  -0.772  0.00  0.00    +0.008 A 
ENDBRANCH   5  12
BRANCH   1  27
ATOM     22  C   UNL     1      -9.086   2.446   2.249  0.00  0.00    +0.044 C 
ATOM     23  C   UNL     1      -8.843   1.355   1.238  0.00  0.00    -0.049 A 
ATOM     24  C   UNL     1      -9.832   1.022   0.330  0.00  0.00    +0.003 A 
ATOM     25  C   UNL     1      -9.613   0.021  -0.599  0.00  0.00    +0.002 A 
ATOM     26  C   UNL     1      -8.405  -0.649  -0.623  0.00  0.00    +0.024 A 
ATOM     27  C   UNL     1      -7.411  -0.316   0.287  0.00  0.00    +0.046 A 
ATOM     28  C   UNL     1      -7.636   0.685   1.222  0.00  0.00    +0.027 A 
ENDBRANCH   1  27
TORSDOF 2
