REMARK  Name = ZINC04386326
REMARK  9 active torsions:
REMARK  status: ('A' for Active; 'I' for Inactive)
REMARK    1  A    between atoms: C_1  and  C_2
REMARK    2  A    between atoms: C_2  and  C_3
REMARK    3  A    between atoms: C_2  and  C_4
REMARK    4  A    between atoms: C_2  and  C_5
REMARK    5  A    between atoms: C_7  and  O_23
REMARK    6  A    between atoms: C_11  and  O_21
REMARK    7  A    between atoms: C_14  and  O_19
REMARK    8  A    between atoms: O_19  and  C_20
REMARK    9  A    between atoms: O_21  and  C_22
REMARK                            x       y       z     vdW  Elec       q    Type
REMARK                         _______ _______ _______ _____ _____    ______ ____
ROOT
ATOM      1  C   UNL     1      -4.138   6.250  -0.420  0.00  0.00    -0.001 C 
ATOM      2  C   UNL     1      -4.494   5.005  -0.375  0.00  0.00    +0.038 C 
ATOM      3  C   UNL     1      -3.691   3.831   0.066  0.00  0.00    +0.243 C 
ATOM      4  N   UNL     1      -2.256   4.083   0.045  0.00  0.00    -0.285 N 
ATOM      5  C   UNL     1      -1.243   3.138   0.030  0.00  0.00    +0.118 A 
ATOM      6  C   UNL     1      -1.222   1.747   0.017  0.00  0.00    +0.146 A 
ATOM      7  C   UNL     1      -0.013   1.076   0.008  0.00  0.00    +0.051 A 
ATOM      8  C   UNL     1       1.182   1.782   0.000  0.00  0.00    +0.051 A 
ATOM      9  C   UNL     1       1.180   3.162   0.007  0.00  0.00    +0.148 A 
ATOM     10  C   UNL     1      -0.038   3.856   0.022  0.00  0.00    +0.135 A 
ATOM     11  N   UNL     1      -0.358   5.178   0.032  0.00  0.00    -0.218 NA
ATOM     12  C   UNL     1      -1.658   5.316   0.043  0.00  0.00    +0.177 A 
ATOM     13  S   UNL     1      -2.550   6.839   0.051  0.00  0.00    -0.056 S 
ENDROOT
BRANCH   1  15
ATOM     14  C   UNL     1      -6.453   6.540  -1.260  0.00  0.00    +0.016 C 
ATOM     15  C   UNL     1      -5.149   7.257  -0.905  0.00  0.00    -0.007 C 
ATOM     16  C   UNL     1      -5.415   8.285   0.197  0.00  0.00    +0.016 C 
ATOM     17  C   UNL     1      -4.605   7.969  -2.146  0.00  0.00    +0.016 C 
ENDBRANCH   1  15
BRANCH   9  18
ATOM     18  O   UNL     1       2.355   3.846  -0.000  0.00  0.00    -0.493 OA
ATOM     19  C   UNL     1       3.556   3.073  -0.016  0.00  0.00    +0.277 C 
ENDBRANCH   9  18
BRANCH   6  20
ATOM     20  O   UNL     1      -2.389   1.047   0.019  0.00  0.00    -0.493 OA
ATOM     21  C   UNL     1      -2.291  -0.378   0.011  0.00  0.00    +0.277 C 
ENDBRANCH   6  20
BRANCH   3  22
ATOM     22  O   UNL     1      -3.977   2.728  -0.796  0.00  0.00    -0.368 OA
ATOM     23  H   UNL     1      -4.907   2.462  -0.799  0.00  0.00    +0.212 HD
ENDBRANCH   3  22
TORSDOF 4
