REMARK  Name = ZINC16780018
REMARK  7 active torsions:
REMARK  status: ('A' for Active; 'I' for Inactive)
REMARK    1  A    between atoms: C_1  and  C_2
REMARK    2  A    between atoms: C_2  and  C_4
REMARK    3  A    between atoms: C_2  and  O_13
REMARK    4  A    between atoms: C_4  and  C_6
REMARK    5  A    between atoms: C_9  and  N_12
REMARK    6  A    between atoms: O_13  and  C_14
REMARK    7  A    between atoms: C_14  and  C_16
REMARK                            x       y       z     vdW  Elec       q    Type
REMARK                         _______ _______ _______ _____ _____    ______ ____
ROOT
ATOM      1  C   UNL     1      -1.425   3.053  -3.581  0.00  0.00    +0.341 C 
ATOM      2  O   UNL     1      -2.490   2.584  -3.930  0.00  0.00    -0.245 OA
ENDROOT
BRANCH   1   3
ATOM      3  C   UNL     1      -1.319   3.766  -2.291  0.00  0.00    +0.073 A 
ATOM      4  C   UNL     1      -1.546   5.161  -2.211  0.00  0.00    +0.015 A 
ATOM      5  C   UNL     1      -1.877   5.918  -3.342  0.00  0.00    +0.011 A 
ATOM      6  C   UNL     1      -2.089   7.258  -3.217  0.00  0.00    +0.001 A 
ATOM      7  C   UNL     1      -1.979   7.886  -1.978  0.00  0.00    +0.002 A 
ATOM      8  C   UNL     1      -1.658   7.181  -0.860  0.00  0.00    +0.028 A 
ATOM      9  C   UNL     1      -1.431   5.795  -0.949  0.00  0.00    +0.072 A 
ATOM     10  N   UNL     1      -1.114   5.077   0.127  0.00  0.00    -0.251 NA
ATOM     11  C   UNL     1      -0.896   3.777   0.077  0.00  0.00    +0.046 A 
ATOM     12  C   UNL     1      -0.994   3.081  -1.120  0.00  0.00    -0.012 A 
ATOM     13  C   UNL     1      -0.762   1.597  -1.221  0.00  0.00    +0.038 C 
ATOM     14  C   UNL     1      -0.013   1.086   0.008  0.00  0.00    +0.005 C 
ATOM     15  C   UNL     1      -0.741   1.585   1.261  0.00  0.00    +0.006 C 
ATOM     16  C   UNL     1      -0.532   3.094   1.373  0.00  0.00    +0.056 C 
ENDBRANCH   1   3
BRANCH   1  17
ATOM     17  O   UNL     1      -0.341   2.924  -4.370  0.00  0.00    -0.450 OA
BRANCH  17  19
ATOM     18  C   UNL     1      -0.912   3.203  -6.721  0.00  0.00    +0.061 C 
ATOM     19  C   UNL     1      -0.519   2.212  -5.623  0.00  0.00    +0.244 C 
BRANCH  19  20
ATOM     20  C   UNL     1       0.771   1.530  -6.001  0.00  0.00    +0.203 C 
ATOM     21  O   UNL     1       1.806   1.843  -5.451  0.00  0.00    -0.288 OA
BRANCH  20  22
ATOM     22  C   UNL     1       0.774   0.488  -7.034  0.00  0.00    +0.021 A 
ATOM     23  C   UNL     1      -0.421   0.121  -7.666  0.00  0.00    +0.013 A 
ATOM     24  C   UNL     1      -0.412  -0.846  -8.630  0.00  0.00    +0.023 A 
ATOM     25  C   UNL     1       0.781  -1.475  -8.978  0.00  0.00    +0.025 A 
ATOM     26  C   UNL     1       1.971  -1.117  -8.348  0.00  0.00    +0.023 A 
ATOM     27  C   UNL     1       1.972  -0.148  -7.386  0.00  0.00    +0.013 A 
BRANCH  25  28
ATOM     28  N   UNL     1       0.785  -2.462  -9.955  0.00  0.00    -0.358 N 
ATOM     29  H   UNL     1       1.615  -2.901 -10.198  0.00  0.00    +0.142 HD
ATOM     30  H   UNL     1      -0.043  -2.712 -10.395  0.00  0.00    +0.142 HD
ENDBRANCH  25  28
ENDBRANCH  20  22
ENDBRANCH  19  20
ENDBRANCH  17  19
ENDBRANCH   1  17
TORSDOF 6
