REMARK  Name = ZINC49576871
REMARK  10 active torsions:
REMARK  status: ('A' for Active; 'I' for Inactive)
REMARK    1  A    between atoms: C_1  and  C_2
REMARK    2  A    between atoms: C_2  and  C_3
REMARK    3  A    between atoms: C_2  and  C_4
REMARK    4  A    between atoms: C_4  and  C_5
REMARK    5  A    between atoms: C_11  and  C_12
REMARK    6  A    between atoms: C_15  and  O_20
REMARK    7  A    between atoms: C_16  and  O_18
REMARK    8  A    between atoms: O_18  and  C_19
REMARK    9  A    between atoms: O_20  and  C_21
REMARK   10  A    between atoms: C_21  and  C_22
REMARK                            x       y       z     vdW  Elec       q    Type
REMARK                         _______ _______ _______ _____ _____    ______ ____
ROOT
ATOM      1  C   UNL     1      -1.073  -1.631   3.487  0.00  0.00    +0.100 C 
ATOM      2  N   UNL     1      -1.683  -0.496   3.296  0.00  0.00    -0.169 NA
ATOM      3  N   UNL     1      -2.543   0.021   4.241  0.00  0.00    -0.154 N 
ATOM      4  C   UNL     1      -3.320   1.191   4.097  0.00  0.00    +0.132 C 
ATOM      5  N   UNL     1      -3.649   1.696   2.938  0.00  0.00    -0.385 N 
ATOM      6  C   UNL     1      -3.729   1.793   5.398  0.00  0.00    +0.079 C 
ATOM      7  C   UNL     1      -3.868   3.153   5.556  0.00  0.00    +0.024 C 
ATOM      8  C   UNL     1      -3.976   0.847   6.514  0.00  0.00    +0.273 C 
ATOM      9  O   UNL     1      -4.719   1.144   7.436  0.00  0.00    -0.268 OA
ATOM     10  N   UNL     1      -3.357  -0.350   6.480  0.00  0.00    -0.152 NA
ATOM     11  C   UNL     1      -2.671  -0.686   5.417  0.00  0.00    +0.181 C 
ATOM     12  S   UNL     1      -1.671  -2.116   5.100  0.00  0.00    -0.038 S 
ATOM     13  H   UNL     1      -3.356   1.264   2.120  0.00  0.00    +0.157 HD
ATOM     14  H   UNL     1      -4.185   2.503   2.895  0.00  0.00    +0.157 HD
ENDROOT
BRANCH   7  15
ATOM     15  C   UNL     1      -4.086   3.717   6.890  0.00  0.00    -0.021 A 
ATOM     16  C   UNL     1      -3.441   3.160   8.003  0.00  0.00    +0.012 A 
ATOM     17  C   UNL     1      -3.648   3.693   9.255  0.00  0.00    +0.050 A 
ATOM     18  C   UNL     1      -4.494   4.782   9.420  0.00  0.00    +0.162 A 
ATOM     19  C   UNL     1      -5.139   5.344   8.318  0.00  0.00    +0.162 A 
ATOM     20  C   UNL     1      -4.935   4.821   7.057  0.00  0.00    +0.057 A 
BRANCH  19  21
ATOM     21  O   UNL     1      -5.967   6.410   8.485  0.00  0.00    -0.491 OA
ATOM     22  C   UNL     1      -6.595   6.934   7.313  0.00  0.00    +0.277 C 
ENDBRANCH  19  21
BRANCH  18  23
ATOM     23  O   UNL     1      -4.694   5.303  10.658  0.00  0.00    -0.484 OA
BRANCH  23  24
ATOM     24  C   UNL     1      -4.002   4.680  11.742  0.00  0.00    +0.266 C 
BRANCH  24  25
ATOM     25  C   UNL     1      -4.344   5.387  13.028  0.00  0.00    +0.008 A 
ATOM     26  C   UNL     1      -5.215   6.460  13.017  0.00  0.00    +0.008 A 
ATOM     27  C   UNL     1      -5.529   7.109  14.196  0.00  0.00    +0.000 A 
ATOM     28  C   UNL     1      -4.971   6.686  15.388  0.00  0.00    +0.001 A 
ATOM     29  C   UNL     1      -4.100   5.613  15.401  0.00  0.00    +0.020 A 
ATOM     30  C   UNL     1      -3.790   4.959  14.222  0.00  0.00    +0.047 A 
ATOM     31 CL   UNL     1      -2.701   3.608  14.238  0.00  0.00    -0.083 Cl
ENDBRANCH  24  25
ENDBRANCH  23  24
ENDBRANCH  18  23
ENDBRANCH   7  15
BRANCH   1  32
ATOM     32  C   UNL     1      -0.112  -2.353   2.578  0.00  0.00    +0.067 C 
BRANCH  32  34
ATOM     33  C   UNL     1       0.777  -0.213   1.643  0.00  0.00    +0.007 C 
ATOM     34  C   UNL     1       0.091  -1.537   1.300  0.00  0.00    -0.011 C 
ATOM     35  C   UNL     1       0.967  -2.327   0.325  0.00  0.00    +0.007 C 
ENDBRANCH  32  34
ENDBRANCH   1  32
TORSDOF 7
