REMARK  Name = ZINC03840778
REMARK  11 active torsions:
REMARK  status: ('A' for Active; 'I' for Inactive)
REMARK    1  A    between atoms: C_1  and  C_2
REMARK    2  A    between atoms: C_10  and  C_12
REMARK    3  A    between atoms: C_16  and  C_37
REMARK    4  A    between atoms: C_19  and  O_36
REMARK    5  A    between atoms: C_21  and  C_25
REMARK    6  A    between atoms: C_25  and  C_27
REMARK    7  A    between atoms: C_25  and  C_28
REMARK    8  A    between atoms: N_30  and  C_31
REMARK    9  A    between atoms: N_30  and  C_32
REMARK   10  A    between atoms: C_32  and  C_33
REMARK   11  A    between atoms: C_33  and  C_34
REMARK                            x       y       z     vdW  Elec       q    Type
REMARK                         _______ _______ _______ _____ _____    ______ ____
ROOT
ATOM      1  C   UNL     1      -1.200  -1.161   1.089  0.00  0.00    +0.014 C 
ATOM      2  C   UNL     1       0.119  -1.815   1.505  0.00  0.00    +0.042 C 
ATOM      3  C   UNL     1       1.159  -0.736   1.768  0.00  0.00    +0.057 A 
ATOM      4  C   UNL     1       2.438  -0.905   1.346  0.00  0.00    +0.015 A 
ATOM      5  S   UNL     1       3.228   0.586   1.891  0.00  0.00    -0.057 S 
ATOM      6  C   UNL     1       1.828   1.312   2.623  0.00  0.00    +0.165 A 
ATOM      7  N   UNL     1       0.901   0.403   2.408  0.00  0.00    -0.229 NA
ATOM      8  N   UNL     1       1.717   2.538   3.268  0.00  0.00    -0.264 N 
ATOM      9  C   UNL     1       2.796   3.337   3.388  0.00  0.00    +0.222 C 
ATOM     10  O   UNL     1       3.864   2.987   2.932  0.00  0.00    -0.275 OA
ATOM     11  C   UNL     1       3.005  -2.054   0.599  0.00  0.00    +0.051 C 
ATOM     12  C   UNL     1       2.022  -3.238   0.686  0.00  0.00    -0.022 C 
ATOM     13  C   UNL     1       0.609  -2.736   0.380  0.00  0.00    +0.033 C 
ATOM     14  C   UNL     1      -0.369  -3.912   0.290  0.00  0.00    +0.123 C 
ATOM     15  C   UNL     1       0.091  -4.906  -0.775  0.00  0.00    +0.029 C 
ATOM     16  C   UNL     1       1.478  -5.437  -0.400  0.00  0.00    +0.007 C 
ATOM     17  C   UNL     1       2.458  -4.266  -0.363  0.00  0.00    +0.008 C 
ATOM     18  C   UNL     1       2.063  -3.866   2.081  0.00  0.00    +0.012 C 
ATOM     19  H   UNL     1       0.863   2.818   3.633  0.00  0.00    +0.157 HD
ENDROOT
BRANCH   9  20
ATOM     20  C   UNL     1       2.675   4.666   4.088  0.00  0.00    +0.075 C 
ATOM     21  C   UNL     1       2.808   5.929   3.234  0.00  0.00    +0.013 C 
ATOM     22  C   UNL     1       3.935   5.528   4.189  0.00  0.00    +0.013 C 
ENDBRANCH   9  20
BRANCH  15  23
ATOM     23  C   UNL     1       0.162  -4.197  -2.129  0.00  0.00    +0.078 C 
ATOM     24  C   UNL     1      -1.246  -3.793  -2.568  0.00  0.00    +0.017 C 
BRANCH  23  25
ATOM     25  C   UNL     1       0.759  -5.129  -3.152  0.00  0.00    +0.219 C 
ATOM     26  O   UNL     1       0.747  -6.326  -2.962  0.00  0.00    -0.275 OA
ATOM     27  N   UNL     1       1.306  -4.630  -4.279  0.00  0.00    -0.303 N 
ATOM     28  C   UNL     1       1.375  -3.181  -4.481  0.00  0.00    +0.132 C 
BRANCH  27  29
ATOM     29  C   UNL     1       1.831  -5.538  -5.302  0.00  0.00    +0.122 C 
BRANCH  29  30
ATOM     30  C   UNL     1       0.721  -5.882  -6.298  0.00  0.00    +0.137 C 
BRANCH  30  31
ATOM     31  C   UNL     1       1.249  -6.794  -7.325  0.00  0.00    +0.064 C 
ATOM     32  N   UNL     1       1.656  -7.498  -8.118  0.00  0.00    -0.197 NA
ENDBRANCH  30  31
ENDBRANCH  29  30
ENDBRANCH  27  29
ENDBRANCH  23  25
ENDBRANCH  15  23
BRANCH  14  33
ATOM     33  O   UNL     1      -1.669  -3.421  -0.039  0.00  0.00    -0.391 OA
ATOM     34  H   UNL     1      -2.343  -4.111  -0.114  0.00  0.00    +0.210 HD
ENDBRANCH  14  33
TORSDOF 7
