REMARK  Name = ZINC38570550
REMARK  9 active torsions:
REMARK  status: ('A' for Active; 'I' for Inactive)
REMARK    1  A    between atoms: C_1  and  C_2
REMARK    2  A    between atoms: C_3  and  O_32
REMARK    3  A    between atoms: C_11  and  C_16
REMARK    4  A    between atoms: C_13  and  C_15
REMARK    5  A    between atoms: C_16  and  C_17
REMARK    6  A    between atoms: C_17  and  C_18
REMARK    7  A    between atoms: N_20  and  C_21
REMARK    8  A    between atoms: C_21  and  C_22
REMARK    9  A    between atoms: C_22  and  C_23
REMARK                            x       y       z     vdW  Elec       q    Type
REMARK                         _______ _______ _______ _____ _____    ______ ____
ROOT
ATOM      1  C   UNL     1      -2.421  -1.112   4.793  0.00  0.00    +0.096 C 
ENDROOT
BRANCH   1   2
ATOM      2  C   UNL     1      -3.922  -0.982   4.734  0.00  0.00    +0.213 C 
ATOM      3  O   UNL     1      -4.537  -1.472   3.811  0.00  0.00    -0.276 OA
ATOM      4  N   UNL     1      -4.580  -0.320   5.706  0.00  0.00    -0.315 N 
ATOM      5  H   UNL     1      -4.088   0.072   6.445  0.00  0.00    +0.149 HD
BRANCH   4   6
ATOM      6  C   UNL     1      -6.038  -0.194   5.649  0.00  0.00    +0.109 C 
BRANCH   6   7
ATOM      7  C   UNL     1      -6.530   0.596   6.863  0.00  0.00    +0.056 C 
BRANCH   7   8
ATOM      8  C   UNL     1      -8.030   0.726   6.804  0.00  0.00    -0.021 A 
ATOM      9  C   UNL     1      -9.010  -0.251   7.286  0.00  0.00    +0.003 A 
ATOM     10  C   UNL     1      -8.912  -1.501   7.900  0.00  0.00    +0.010 A 
ATOM     11  C   UNL     1     -10.047  -2.181   8.238  0.00  0.00    +0.001 A 
ATOM     12  C   UNL     1     -11.298  -1.640   7.976  0.00  0.00    +0.002 A 
ATOM     13  C   UNL     1     -11.418  -0.408   7.370  0.00  0.00    +0.026 A 
ATOM     14  C   UNL     1     -10.275   0.302   7.018  0.00  0.00    +0.047 A 
ATOM     15  N   UNL     1     -10.066   1.524   6.418  0.00  0.00    -0.360 N 
ATOM     16  C   UNL     1      -8.723   1.762   6.303  0.00  0.00    +0.087 A 
ATOM     17  H   UNL     1     -10.765   2.127   6.123  0.00  0.00    +0.165 HD
ENDBRANCH   7   8
ENDBRANCH   6   7
ENDBRANCH   4   6
ENDBRANCH   1   2
BRANCH   1  18
ATOM     18  C   UNL     1      -1.929  -1.902   3.579  0.00  0.00    +0.024 C 
BRANCH  18  29
ATOM     19  C   UNL     1      -0.018   1.503   0.010  0.00  0.00    +0.051 C 
ATOM     20  C   UNL     1       0.002  -0.004   0.002  0.00  0.00    +0.034 A 
ATOM     21  C   UNL     1       0.006  -0.688  -1.202  0.00  0.00    +0.123 A 
ATOM     22  C   UNL     1       0.026  -2.075  -1.207  0.00  0.00    +0.046 A 
ATOM     23  C   UNL     1       0.046  -2.768  -0.013  0.00  0.00    +0.011 A 
ATOM     24  C   UNL     1       0.044  -2.088   1.194  0.00  0.00    -0.001 A 
ATOM     25  C   UNL     1       0.023  -0.704   1.203  0.00  0.00    +0.141 A 
ATOM     26  O   UNL     1       0.005   0.007   2.364  0.00  0.00    -0.425 OA
ATOM     27  C   UNL     1       0.234  -0.666   3.509  0.00  0.00    +0.316 C 
ATOM     28  O   UNL     1       0.917  -0.201   4.390  0.00  0.00    -0.250 OA
ATOM     29  C   UNL     1      -0.406  -2.034   3.639  0.00  0.00    +0.106 C 
ATOM     30  C   UNL     1       0.077  -2.890   2.471  0.00  0.00    +0.033 C 
ATOM     31  C   UNL     1      -0.820  -4.120   2.321  0.00  0.00    +0.013 C 
BRANCH  21  32
ATOM     32  O   UNL     1      -0.011  -0.003  -2.376  0.00  0.00    -0.506 OA
ATOM     33  H   UNL     1       0.868   0.209  -2.720  0.00  0.00    +0.292 HD
ENDBRANCH  21  32
ENDBRANCH  18  29
ENDBRANCH   1  18
TORSDOF 7
