REMARK  Name = ZINC60371889
REMARK  8 active torsions:
REMARK  status: ('A' for Active; 'I' for Inactive)
REMARK    1  A    between atoms: C_1  and  C_2
REMARK    2  A    between atoms: C_5  and  N_9
REMARK    3  A    between atoms: C_7  and  C_8
REMARK    4  A    between atoms: C_12  and  C_16
REMARK    5  A    between atoms: N_18  and  C_19
REMARK    6  A    between atoms: C_24  and  C_25
REMARK    7  A    between atoms: C_29  and  C_36
REMARK    8  A    between atoms: C_32  and  C_35
REMARK                            x       y       z     vdW  Elec       q    Type
REMARK                         _______ _______ _______ _____ _____    ______ ____
ROOT
ATOM      1  C   UNL     1      -1.048  -6.712   1.794  0.00  0.00    +0.229 C 
ATOM      2  O   UNL     1      -2.236  -6.793   1.567  0.00  0.00    -0.275 OA
ATOM      3  N   UNL     1      -0.520  -7.349   2.858  0.00  0.00    -0.284 N 
ATOM      4  H   UNL     1       0.413  -7.220   3.087  0.00  0.00    +0.155 HD
ENDROOT
BRANCH   1   8
ATOM      5  N   UNL     1       0.322  -3.607   0.869  0.00  0.00    -0.271 N 
ATOM      6  C   UNL     1      -0.295  -3.900  -0.430  0.00  0.00    +0.115 C 
ATOM      7  C   UNL     1      -0.989  -5.269  -0.257  0.00  0.00    +0.041 C 
ATOM      8  C   UNL     1      -0.161  -5.900   0.886  0.00  0.00    +0.163 C 
ATOM      9  C   UNL     1       0.421  -4.715   1.624  0.00  0.00    +0.232 C 
ATOM     10  O   UNL     1       0.902  -4.757   2.737  0.00  0.00    -0.274 OA
BRANCH   5  15
ATOM     11  C   UNL     1       2.090   1.536   2.487  0.00  0.00    +0.044 C 
ATOM     12  C   UNL     1       1.621   0.170   2.057  0.00  0.00    -0.047 A 
ATOM     13  C   UNL     1       1.659  -0.886   2.950  0.00  0.00    +0.005 A 
ATOM     14  C   UNL     1       1.229  -2.139   2.560  0.00  0.00    +0.024 A 
ATOM     15  C   UNL     1       0.758  -2.338   1.268  0.00  0.00    +0.037 A 
ATOM     16  C   UNL     1       0.721  -1.277   0.374  0.00  0.00    +0.027 A 
ATOM     17  C   UNL     1       1.148  -0.025   0.772  0.00  0.00    -0.046 A 
ATOM     18  C   UNL     1       1.102   1.129  -0.196  0.00  0.00    +0.044 C 
ENDBRANCH   5  15
ENDBRANCH   1   8
BRANCH   3  19
ATOM     19  C   UNL     1      -1.316  -8.194   3.629  0.00  0.00    +0.046 A 
ATOM     20  C   UNL     1      -2.323  -8.941   3.033  0.00  0.00    +0.024 A 
ATOM     21  C   UNL     1      -3.110  -9.776   3.799  0.00  0.00    +0.002 A 
ATOM     22  C   UNL     1      -2.903  -9.877   5.165  0.00  0.00    +0.001 A 
ATOM     23  C   UNL     1      -1.908  -9.143   5.774  0.00  0.00    +0.015 A 
ATOM     24  C   UNL     1      -1.100  -8.298   5.011  0.00  0.00    +0.058 A 
BRANCH  24  25
ATOM     25  C   UNL     1      -0.029  -7.514   5.656  0.00  0.00    +0.248 C 
ATOM     26  O   UNL     1       0.020  -6.309   5.501  0.00  0.00    -0.270 OA
ATOM     27  N   UNL     1       0.895  -8.134   6.417  0.00  0.00    -0.297 N 
ATOM     28  C   UNL     1       0.929  -9.600   6.507  0.00  0.00    +0.111 C 
ATOM     29  C   UNL     1       2.340 -10.083   6.157  0.00  0.00    +0.004 C 
ATOM     30  C   UNL     1       3.355  -9.374   7.056  0.00  0.00    +0.009 C 
ATOM     31  C   UNL     1       3.287  -7.864   6.815  0.00  0.00    +0.004 C 
ATOM     32  C   UNL     1       1.891  -7.357   7.168  0.00  0.00    +0.111 C 
ATOM     33  C   UNL     1       4.325  -7.160   7.690  0.00  0.00    +0.009 C 
ATOM     34  C   UNL     1       2.432 -11.595   6.374  0.00  0.00    +0.009 C 
ENDBRANCH  24  25
ENDBRANCH   3  19
TORSDOF 4
