REMARK  Name = ZINC21721411
REMARK  8 active torsions:
REMARK  status: ('A' for Active; 'I' for Inactive)
REMARK    1  A    between atoms: C_1  and  C_2
REMARK    2  A    between atoms: C_9  and  S_11
REMARK    3  A    between atoms: S_11  and  C_12
REMARK    4  A    between atoms: C_12  and  C_13
REMARK    5  A    between atoms: C_15  and  C_18
REMARK    6  A    between atoms: C_18  and  C_19
REMARK    7  A    between atoms: C_19  and  C_20
REMARK    8  A    between atoms: N_22  and  C_23
REMARK                            x       y       z     vdW  Elec       q    Type
REMARK                         _______ _______ _______ _____ _____    ______ ____
ROOT
ATOM      1  C   UNL     1       5.505   2.809   0.560  0.00  0.00    +0.182 A 
ATOM      2  N   UNL     1       4.430   2.160   1.041  0.00  0.00    -0.195 NA
ATOM      3  C   UNL     1       3.751   1.773  -0.013  0.00  0.00    +0.228 A 
ATOM      4  O   UNL     1       4.431   2.189  -1.086  0.00  0.00    -0.338 OA
ATOM      5  N   UNL     1       5.428   2.784  -0.737  0.00  0.00    -0.060 NA
ENDROOT
BRANCH   1   6
ATOM      6  C   UNL     1       6.600   3.448   1.377  0.00  0.00    +0.158 C 
BRANCH   6   7
ATOM      7  S   UNL     1       7.911   2.237   1.679  0.00  0.00    -0.059 S 
BRANCH   7  16
ATOM      8  C   UNL     1      13.571   5.318   5.824  0.00  0.00    +0.044 C 
ATOM      9  C   UNL     1      12.276   5.173   5.067  0.00  0.00    -0.048 A 
ATOM     10  C   UNL     1      11.413   6.253   4.966  0.00  0.00    +0.007 A 
ATOM     11  C   UNL     1      10.223   6.136   4.276  0.00  0.00    +0.049 A 
ATOM     12  C   UNL     1       9.886   4.932   3.680  0.00  0.00    +0.156 A 
ATOM     13  C   UNL     1      10.756   3.836   3.780  0.00  0.00    +0.111 A 
ATOM     14  C   UNL     1      11.956   3.969   4.480  0.00  0.00    +0.035 A 
ATOM     15  N   UNL     1      10.166   2.807   3.112  0.00  0.00    -0.203 NA
ATOM     16  C   UNL     1       9.025   3.223   2.624  0.00  0.00    +0.258 A 
ATOM     17  O   UNL     1       8.823   4.511   2.955  0.00  0.00    -0.431 OA
ENDBRANCH   7  16
ENDBRANCH   6   7
ENDBRANCH   1   6
BRANCH   3  18
ATOM     18  C   UNL     1       2.457   1.002  -0.013  0.00  0.00    +0.108 C 
BRANCH  18  19
ATOM     19  C   UNL     1       1.280   1.980   0.007  0.00  0.00    +0.105 C 
BRANCH  19  20
ATOM     20  C   UNL     1      -0.014   1.209   0.007  0.00  0.00    +0.218 C 
ATOM     21  O   UNL     1       0.002  -0.004  -0.008  0.00  0.00    -0.275 OA
ATOM     22  N   UNL     1      -1.191   1.867   0.018  0.00  0.00    -0.285 N 
ATOM     23  H   UNL     1      -1.207   2.963   0.108  0.00  0.00    +0.155 HD
BRANCH  22  24
ATOM     24  C   UNL     1      -2.391   1.155  -0.086  0.00  0.00    +0.033 A 
ATOM     25  C   UNL     1      -3.468   1.704  -0.769  0.00  0.00    +0.024 A 
ATOM     26  C   UNL     1      -4.651   0.998  -0.874  0.00  0.00    +0.017 A 
ATOM     27  C   UNL     1      -4.766  -0.252  -0.290  0.00  0.00    +0.018 A 
ATOM     28  C   UNL     1      -3.696  -0.799   0.396  0.00  0.00    +0.017 A 
ATOM     29  C   UNL     1      -2.510  -0.099   0.499  0.00  0.00    +0.024 A 
ATOM     30 BR   UNL     1      -6.388  -1.213  -0.431  0.00  0.00    -0.050 Br
ENDBRANCH  22  24
ENDBRANCH  19  20
ENDBRANCH  18  19
ENDBRANCH   3  18
TORSDOF 7
