REMARK  Name = ZINC00983832
REMARK  6 active torsions:
REMARK  status: ('A' for Active; 'I' for Inactive)
REMARK    1  A    between atoms: C_4  and  C_7
REMARK    2  A    between atoms: C_10  and  C_12
REMARK    3  A    between atoms: N_14  and  N_15
REMARK    4  A    between atoms: C_16  and  C_18
REMARK    5  A    between atoms: C_21  and  C_22
REMARK    6  A    between atoms: C_21  and  C_28
REMARK                            x       y       z     vdW  Elec       q    Type
REMARK                         _______ _______ _______ _____ _____    ______ ____
ROOT
ATOM      1  N   UNL     1       1.525  -6.062   3.214  0.00  0.00    -0.234 N 
ATOM      2  C   UNL     1       1.678  -6.542   4.465  0.00  0.00    +0.233 C 
ATOM      3  O   UNL     1       2.187  -5.850   5.321  0.00  0.00    -0.274 OA
ATOM      4  H   UNL     1       1.118  -6.615   2.529  0.00  0.00    +0.173 HD
ENDROOT
BRANCH   1   7
ATOM      5  C   UNL     1       1.802  -4.286   1.654  0.00  0.00    +0.233 C 
ATOM      6  O   UNL     1       1.293  -4.977   0.797  0.00  0.00    -0.274 OA
ATOM      7  N   UNL     1       1.955  -4.765   2.904  0.00  0.00    -0.234 N 
ATOM      8  H   UNL     1       2.362  -4.212   3.589  0.00  0.00    +0.173 HD
BRANCH   5  11
ATOM      9  C   UNL     1       2.063  -2.405  -0.117  0.00  0.00    +0.032 C 
ATOM     10  C   UNL     1       3.467  -2.750   0.385  0.00  0.00    +0.022 C 
ATOM     11  C   UNL     1       2.264  -2.891   1.320  0.00  0.00    +0.084 C 
BRANCH   9  15
ATOM     12  C   UNL     1       1.131   1.725  -0.688  0.00  0.00    +0.000 A 
ATOM     13  C   UNL     1       0.250   0.751  -1.121  0.00  0.00    +0.000 A 
ATOM     14  C   UNL     1       0.552  -0.585  -0.936  0.00  0.00    +0.004 A 
ATOM     15  C   UNL     1       1.735  -0.948  -0.319  0.00  0.00    -0.044 A 
ATOM     16  C   UNL     1       2.616   0.025   0.113  0.00  0.00    +0.004 A 
ATOM     17  C   UNL     1       2.315   1.362  -0.073  0.00  0.00    +0.000 A 
ENDBRANCH   9  15
ENDBRANCH   5  11
ENDBRANCH   1   7
BRANCH   2  18
ATOM     18  C   UNL     1       1.216  -7.937   4.798  0.00  0.00    +0.092 C 
ATOM     19  C   UNL     1       0.827  -8.224   6.250  0.00  0.00    +0.031 C 
ATOM     20  C   UNL     1       2.129  -8.791   5.681  0.00  0.00    +0.033 C 
BRANCH  20  21
ATOM     21  C   UNL     1       2.179 -10.271   5.402  0.00  0.00    -0.036 A 
ATOM     22  C   UNL     1       1.526 -10.790   4.300  0.00  0.00    +0.004 A 
ATOM     23  C   UNL     1       1.576 -12.147   4.041  0.00  0.00    +0.000 A 
ATOM     24  C   UNL     1       2.272 -12.986   4.890  0.00  0.00    +0.000 A 
ATOM     25  C   UNL     1       2.922 -12.469   5.995  0.00  0.00    +0.000 A 
ATOM     26  C   UNL     1       2.876 -11.111   6.251  0.00  0.00    +0.004 A 
ENDBRANCH  20  21
BRANCH  20  27
ATOM     27  C   UNL     1       3.421  -8.173   6.149  0.00  0.00    -0.036 A 
ATOM     28  C   UNL     1       4.402  -7.843   5.233  0.00  0.00    +0.004 A 
ATOM     29  C   UNL     1       5.585  -7.272   5.662  0.00  0.00    +0.000 A 
ATOM     30  C   UNL     1       5.791  -7.039   7.009  0.00  0.00    +0.000 A 
ATOM     31  C   UNL     1       4.812  -7.374   7.926  0.00  0.00    +0.000 A 
ATOM     32  C   UNL     1       3.627  -7.941   7.496  0.00  0.00    +0.004 A 
ENDBRANCH  20  27
ENDBRANCH   2  18
TORSDOF 6
