REMARK  Name = ZINC20720143
REMARK  3 active torsions:
REMARK  status: ('A' for Active; 'I' for Inactive)
REMARK    1  A    between atoms: C_7  and  C_11
REMARK    2  A    between atoms: C_24  and  C_27
REMARK    3  A    between atoms: N_29  and  C_30
REMARK                            x       y       z     vdW  Elec       q    Type
REMARK                         _______ _______ _______ _____ _____    ______ ____
ROOT
ATOM      1  C   UNL     1      -1.228   3.201  -7.377  0.00  0.00    +0.107 C 
ATOM      2  C   UNL     1      -0.167   3.391  -8.448  0.00  0.00    +0.029 C 
ATOM      3  C   UNL     1       0.887   4.468  -8.015  0.00  0.00    +0.033 C 
ATOM      4  C   UNL     1       2.165   3.996  -8.685  0.00  0.00    -0.030 C 
ATOM      5  C   UNL     1       2.090   2.720  -8.968  0.00  0.00    -0.023 C 
ATOM      6  C   UNL     1       0.750   2.153  -8.528  0.00  0.00    +0.049 C 
ATOM      7  C   UNL     1       0.934   1.522  -7.173  0.00  0.00    -0.019 A 
ATOM      8  C   UNL     1       1.790   0.433  -7.082  0.00  0.00    +0.006 A 
ATOM      9  C   UNL     1       2.003  -0.206  -5.874  0.00  0.00    +0.001 A 
ATOM     10  C   UNL     1       1.367   0.236  -4.734  0.00  0.00    +0.015 A 
ATOM     11  C   UNL     1       0.500   1.326  -4.806  0.00  0.00    +0.058 A 
ATOM     12  C   UNL     1       0.289   1.976  -6.038  0.00  0.00    +0.044 A 
ATOM     13  N   UNL     1      -0.569   3.066  -6.060  0.00  0.00    -0.336 N 
ATOM     14  H   UNL     1      -0.791   3.784  -5.257  0.00  0.00    +0.147 HD
ENDROOT
BRANCH   1  21
ATOM     15  C   UNL     1      -4.773   2.353 -10.323  0.00  0.00    +0.001 A 
ATOM     16  C   UNL     1      -5.217   1.039 -10.272  0.00  0.00    +0.002 A 
ATOM     17  C   UNL     1      -4.628   0.131  -9.419  0.00  0.00    +0.026 A 
ATOM     18  C   UNL     1      -3.579   0.534  -8.599  0.00  0.00    +0.047 A 
ATOM     19  C   UNL     1      -3.133   1.867  -8.655  0.00  0.00    +0.005 A 
ATOM     20  C   UNL     1      -3.744   2.770  -9.527  0.00  0.00    +0.010 A 
ATOM     21  C   UNL     1      -2.037   1.968  -7.688  0.00  0.00    -0.002 A 
ATOM     22  C   UNL     1      -1.887   0.754  -7.136  0.00  0.00    +0.089 A 
ATOM     23  N   UNL     1      -2.803  -0.115  -7.664  0.00  0.00    -0.360 N 
ATOM     24  H   UNL     1      -2.977  -1.179  -7.448  0.00  0.00    +0.165 HD
ENDBRANCH   1  21
BRANCH  11  25
ATOM     25  C   UNL     1      -0.190   1.802  -3.593  0.00  0.00    +0.246 C 
ATOM     26  O   UNL     1      -0.847   2.824  -3.629  0.00  0.00    -0.270 OA
ATOM     27  N   UNL     1      -0.092   1.103  -2.445  0.00  0.00    -0.308 N 
ATOM     28  H   UNL     1       0.502   0.178  -2.412  0.00  0.00    +0.149 HD
BRANCH  27  29
ATOM     29  C   UNL     1      -0.778   1.576  -1.239  0.00  0.00    +0.073 C 
ATOM     30  C   UNL     1      -0.060   1.037   0.000  0.00  0.00    +0.022 C 
ATOM     31  C   UNL     1      -0.777   1.530   1.259  0.00  0.00    +0.002 C 
ATOM     32  C   UNL     1      -2.224   1.033   1.251  0.00  0.00    +0.000 C 
ATOM     33  C   UNL     1      -2.941   1.571   0.011  0.00  0.00    +0.002 C 
ATOM     34  C   UNL     1      -2.225   1.078  -1.248  0.00  0.00    +0.022 C 
ENDBRANCH  27  29
ENDBRANCH  11  25
TORSDOF 3
