REMARK  Name = ZINC35190670
REMARK  7 active torsions:
REMARK  status: ('A' for Active; 'I' for Inactive)
REMARK    1  A    between atoms: C_4  and  N_12
REMARK    2  A    between atoms: N_12  and  C_13
REMARK    3  A    between atoms: C_13  and  C_14
REMARK    4  A    between atoms: C_14  and  C_15
REMARK    5  A    between atoms: C_15  and  C_16
REMARK    6  A    between atoms: C_16  and  N_17
REMARK    7  A    between atoms: C_18  and  C_20
REMARK                            x       y       z     vdW  Elec       q    Type
REMARK                         _______ _______ _______ _____ _____    ______ ____
ROOT
ATOM      1  C   UNL     1       4.663   5.735  -0.011  0.00  0.00    +0.020 C 
ENDROOT
BRANCH   1   2
ATOM      2  C   UNL     1       4.912   4.226  -0.021  0.00  0.00    +0.101 C 
BRANCH   2   3
ATOM      3  N   UNL     1       3.628   3.519  -0.013  0.00  0.00    -0.343 N 
ATOM      4  H   UNL     1       2.798   4.022  -0.003  0.00  0.00    +0.146 HD
BRANCH   3   8
ATOM      5  C   UNL     1      -0.017   1.389   0.010  0.00  0.00    +0.021 A 
ATOM      6  C   UNL     1       1.144   2.103   0.002  0.00  0.00    +0.013 A 
ATOM      7  C   UNL     1       2.372   1.428  -0.013  0.00  0.00    +0.019 A 
ATOM      8  C   UNL     1       3.600   2.133  -0.020  0.00  0.00    +0.038 A 
ATOM      9  C   UNL     1       4.772   1.394  -0.035  0.00  0.00    +0.041 A 
ATOM     10  C   UNL     1       4.711   0.007  -0.042  0.00  0.00    +0.085 A 
ATOM     11  N   UNL     1       3.566  -0.636  -0.036  0.00  0.00    -0.361 N 
ATOM     12  C   UNL     1       2.396   0.013  -0.021  0.00  0.00    +0.050 A 
ATOM     13  C   UNL     1       1.180  -0.690  -0.013  0.00  0.00    +0.046 A 
ATOM     14  C   UNL     1       0.002  -0.004   0.002  0.00  0.00    +0.043 A 
ATOM     15 CL   UNL     1      -1.497  -0.879   0.012  0.00  0.00    -0.083 Cl
ATOM     16  H   UNL     1       3.569  -1.606  -0.041  0.00  0.00    +0.165 HD
ENDBRANCH   3   8
ENDBRANCH   2   3
ENDBRANCH   1   2
BRANCH   1  17
ATOM     17  C   UNL     1       6.004   6.473  -0.019  0.00  0.00    +0.020 C 
BRANCH  17  18
ATOM     18  C   UNL     1       5.755   7.983  -0.009  0.00  0.00    +0.104 C 
BRANCH  18  19
ATOM     19  N   UNL     1       7.039   8.689  -0.017  0.00  0.00    -0.315 N 
ATOM     20  C   UNL     1       7.066  10.036  -0.010  0.00  0.00    +0.219 C 
ATOM     21  O   UNL     1       6.029  10.664   0.002  0.00  0.00    -0.275 OA
ATOM     22  H   UNL     1       7.868   8.187  -0.027  0.00  0.00    +0.149 HD
BRANCH  20  23
ATOM     23  C   UNL     1       8.387  10.763  -0.018  0.00  0.00    +0.048 C 
ATOM     24  C   UNL     1       9.192  10.370   1.222  0.00  0.00    +0.019 C 
ATOM     25  C   UNL     1      10.533  11.108   1.213  0.00  0.00    -0.009 C 
ATOM     26  C   UNL     1      10.284  12.618   1.224  0.00  0.00    +0.007 C 
ATOM     27  C   UNL     1       9.479  13.010  -0.017  0.00  0.00    -0.009 C 
ATOM     28  C   UNL     1       8.138  12.273  -0.008  0.00  0.00    +0.019 C 
ATOM     29  C   UNL     1      10.262  12.630  -1.275  0.00  0.00    +0.007 C 
ATOM     30  C   UNL     1      10.510  11.121  -1.285  0.00  0.00    -0.009 C 
ATOM     31  C   UNL     1      11.316  10.728  -0.045  0.00  0.00    +0.007 C 
ATOM     32  C   UNL     1       9.170  10.383  -1.277  0.00  0.00    +0.019 C 
ENDBRANCH  20  23
ENDBRANCH  18  19
ENDBRANCH  17  18
ENDBRANCH   1  17
TORSDOF 7
