REMARK  Name = ZINC39440168
REMARK  11 active torsions:
REMARK  status: ('A' for Active; 'I' for Inactive)
REMARK    1  A    between atoms: C_1  and  C_2
REMARK    2  A    between atoms: C_2  and  N_3
REMARK    3  A    between atoms: C_11  and  C_12
REMARK    4  A    between atoms: C_15  and  C_32
REMARK    5  A    between atoms: C_18  and  C_20
REMARK    6  A    between atoms: N_22  and  C_30
REMARK    7  A    between atoms: C_30  and  C_31
REMARK    8  A    between atoms: N_34  and  C_35
REMARK    9  A    between atoms: N_34  and  C_37
REMARK   10  A    between atoms: C_35  and  C_36
REMARK   11  A    between atoms: C_37  and  C_38
REMARK                            x       y       z     vdW  Elec       q    Type
REMARK                         _______ _______ _______ _____ _____    ______ ____
ROOT
ATOM      1  C   UNL     1       2.404  -0.960  -0.738  0.00  0.00    +0.037 C 
ATOM      2  C   UNL     1       3.753  -1.257  -0.825  0.00  0.00    -0.044 C 
ATOM      3  C   UNL     1       4.274  -2.020  -2.014  0.00  0.00    +0.048 C 
ATOM      4  C   UNL     1       5.501  -2.835  -1.596  0.00  0.00    +0.084 C 
ATOM      5  C   UNL     1       6.557  -1.885  -1.024  0.00  0.00    +0.048 C 
ATOM      6  C   UNL     1       5.968  -1.125   0.136  0.00  0.00    -0.044 C 
ATOM      7  C   UNL     1       4.612  -0.843   0.182  0.00  0.00    +0.007 C 
ENDROOT
BRANCH   6   8
ATOM      8  C   UNL     1       6.792  -0.701   1.164  0.00  0.00    +0.034 C 
ATOM      9  C   UNL     1       8.177  -0.857   1.060  0.00  0.00    +0.073 C 
ATOM     10  N   UNL     1       9.120  -0.642   1.991  0.00  0.00    -0.294 N 
ATOM     11  C   UNL     1      10.441  -0.845   1.722  0.00  0.00    +0.048 A 
ATOM     12  C   UNL     1      11.538  -0.663   2.590  0.00  0.00    +0.024 A 
ATOM     13  C   UNL     1      12.819  -0.911   2.166  0.00  0.00    +0.002 A 
ATOM     14  C   UNL     1      13.081  -1.347   0.877  0.00  0.00    +0.001 A 
ATOM     15  C   UNL     1      12.027  -1.537   0.000  0.00  0.00    +0.017 A 
ATOM     16  C   UNL     1      10.743  -1.290   0.420  0.00  0.00    +0.035 A 
ATOM     17  S   UNL     1       9.142  -1.399  -0.342  0.00  0.00    -0.072 S 
BRANCH  10  18
ATOM     18  C   UNL     1       8.722  -0.179   3.323  0.00  0.00    +0.108 C 
ATOM     19  C   UNL     1       8.463  -1.387   4.226  0.00  0.00    +0.025 C 
ENDBRANCH  10  18
ENDBRANCH   6   8
BRANCH   1  28
ATOM     20  N   UNL     1       0.228  -1.097  -1.903  0.00  0.00    -0.335 N 
ATOM     21  C   UNL     1      -0.442  -1.366  -3.059  0.00  0.00    +0.057 A 
ATOM     22  C   UNL     1      -1.832  -1.297  -3.288  0.00  0.00    +0.027 A 
ATOM     23  C   UNL     1      -2.358  -1.601  -4.518  0.00  0.00    +0.002 A 
ATOM     24  C   UNL     1      -1.547  -1.985  -5.575  0.00  0.00    +0.001 A 
ATOM     25  C   UNL     1      -0.179  -2.062  -5.383  0.00  0.00    +0.017 A 
ATOM     26  C   UNL     1       0.353  -1.758  -4.154  0.00  0.00    +0.038 A 
ATOM     27  S   UNL     1       1.997  -1.724  -3.482  0.00  0.00    -0.070 S 
ATOM     28  C   UNL     1       1.564  -1.200  -1.830  0.00  0.00    +0.081 A 
BRANCH  20  30
ATOM     29  C   UNL     1      -0.659   0.841  -0.704  0.00  0.00    +0.027 C 
ATOM     30  C   UNL     1      -0.525  -0.683  -0.717  0.00  0.00    +0.119 C 
ENDBRANCH  20  30
ENDBRANCH   1  28
BRANCH   4  31
ATOM     31  C   UNL     1       6.062  -3.553  -2.796  0.00  0.00    +0.219 C 
ATOM     32  O   UNL     1       5.836  -3.137  -3.913  0.00  0.00    -0.275 OA
ATOM     33  N   UNL     1       6.816  -4.658  -2.628  0.00  0.00    -0.302 N 
BRANCH  33  34
ATOM     34  C   UNL     1       7.431  -5.308  -3.788  0.00  0.00    +0.104 C 
ATOM     35  C   UNL     1       8.862  -4.794  -3.962  0.00  0.00    +0.024 C 
ENDBRANCH  33  34
BRANCH  33  36
ATOM     36  C   UNL     1       7.020  -5.209  -1.286  0.00  0.00    +0.104 C 
ATOM     37  C   UNL     1       6.000  -6.320  -1.030  0.00  0.00    +0.024 C 
ENDBRANCH  33  36
ENDBRANCH   4  31
TORSDOF 7
