REMARK  Name = ZINC07607103
REMARK  11 active torsions:
REMARK  status: ('A' for Active; 'I' for Inactive)
REMARK    1  A    between atoms: C_1  and  C_2
REMARK    2  A    between atoms: C_3  and  C_29
REMARK    3  A    between atoms: N_4  and  C_23
REMARK    4  A    between atoms: C_5  and  N_9
REMARK    5  A    between atoms: C_6  and  C_7
REMARK    6  A    between atoms: C_10  and  C_12
REMARK    7  A    between atoms: C_12  and  N_51
REMARK    8  A    between atoms: C_13  and  C_15
REMARK    9  A    between atoms: C_13  and  C_16
REMARK   10  A    between atoms: C_13  and  N_51
REMARK   11  A    between atoms: C_23  and  C_24
REMARK                            x       y       z     vdW  Elec       q    Type
REMARK                         _______ _______ _______ _____ _____    ______ ____
ROOT
ATOM      1  N   UNL     1      -0.038   1.642  -2.452  0.00  0.00    -0.272 N 
ATOM      2  C   UNL     1       1.102   2.314  -2.192  0.00  0.00    +0.201 C 
ATOM      3  O   UNL     1       1.489   3.171  -2.958  0.00  0.00    -0.278 OA
ATOM      4  H   UNL     1      -0.310   0.910  -1.878  0.00  0.00    +0.156 HD
ENDROOT
BRANCH   1   9
ATOM      5  C   UNL     1      -1.817   2.263  -7.141  0.00  0.00    +0.047 C 
ATOM      6  C   UNL     1      -1.651   2.296  -5.644  0.00  0.00    -0.011 A 
ATOM      7  C   UNL     1      -2.490   2.855  -4.757  0.00  0.00    +0.022 A 
ATOM      8  N   UNL     1      -1.997   2.674  -3.492  0.00  0.00    -0.324 N 
ATOM      9  C   UNL     1      -0.820   1.999  -3.541  0.00  0.00    +0.124 A 
ATOM     10  C   UNL     1      -0.541   1.724  -4.872  0.00  0.00    +0.095 A 
ATOM     11  C   UNL     1      -3.775   3.564  -5.098  0.00  0.00    +0.064 C 
BRANCH  10  12
ATOM     12  C   UNL     1       0.598   1.025  -5.388  0.00  0.00    +0.103 C 
ATOM     13  N   UNL     1       1.501   0.471  -5.797  0.00  0.00    -0.191 NA
ENDBRANCH  10  12
BRANCH   8  14
ATOM     14  C   UNL     1      -2.644   3.144  -2.264  0.00  0.00    +0.197 C 
BRANCH  14  15
ATOM     15  C   UNL     1      -2.065   4.478  -1.870  0.00  0.00    +0.124 A 
ATOM     16  C   UNL     1      -2.520   5.681  -2.263  0.00  0.00    +0.046 A 
ATOM     17  C   UNL     1      -1.688   6.651  -1.659  0.00  0.00    +0.041 A 
ATOM     18  C   UNL     1      -0.769   5.983  -0.938  0.00  0.00    +0.195 A 
ATOM     19  O   UNL     1      -1.002   4.667  -1.070  0.00  0.00    -0.466 OA
ENDBRANCH  14  15
ENDBRANCH   8  14
ENDBRANCH   1   9
BRANCH   2  20
ATOM     20  C   UNL     1       1.895   1.999  -0.950  0.00  0.00    +0.016 C 
BRANCH  20  21
ATOM     21  N   UNL     1       3.086   2.868  -0.905  0.00  0.00    +0.389 N 
ATOM     22  H   UNL     1       2.789   3.851  -0.889  0.00  0.00    -0.084 HD
ATOM     23  H   UNL     1       3.662   2.698  -1.738  0.00  0.00    -0.084 HD
BRANCH  21  24
ATOM     24  C   UNL     1       3.883   2.582   0.303  0.00  0.00    -0.043 C 
ATOM     25  C   UNL     1       4.826   1.409   0.026  0.00  0.00    -0.009 C 
BRANCH  24  26
ATOM     26  C   UNL     1       4.691   3.802   0.663  0.00  0.00    -0.062 A 
ATOM     27  C   UNL     1       5.288   4.554  -0.331  0.00  0.00    +0.003 A 
ATOM     28  C   UNL     1       6.024   5.676  -0.002  0.00  0.00    +0.020 A 
ATOM     29  C   UNL     1       6.173   6.040   1.325  0.00  0.00    +0.041 A 
ATOM     30  C   UNL     1       5.581   5.284   2.320  0.00  0.00    +0.020 A 
ATOM     31  C   UNL     1       4.840   4.165   1.989  0.00  0.00    +0.003 A 
ATOM     32 CL   UNL     1       7.105   7.445   1.740  0.00  0.00    -0.084 Cl
ENDBRANCH  24  26
ENDBRANCH  21  24
ENDBRANCH  20  21
ENDBRANCH   2  20
TORSDOF 8
