REMARK  Name = ZINC17078806
REMARK  6 active torsions:
REMARK  status: ('A' for Active; 'I' for Inactive)
REMARK    1  A    between atoms: C_10  and  C_11
REMARK    2  A    between atoms: C_11  and  O_12
REMARK    3  A    between atoms: O_12  and  C_13
REMARK    4  A    between atoms: C_17  and  C_19
REMARK    5  A    between atoms: N_20  and  N_21
REMARK    6  A    between atoms: C_22  and  C_23
REMARK                            x       y       z     vdW  Elec       q    Type
REMARK                         _______ _______ _______ _____ _____    ______ ____
ROOT
ATOM      1  C   UNL     1      -4.945   3.324   0.091  0.00  0.00    +0.122 A 
ATOM      2  C   UNL     1      -5.178   4.693   0.094  0.00  0.00    +0.046 A 
ATOM      3  C   UNL     1      -6.472   5.181   0.101  0.00  0.00    +0.004 A 
ATOM      4  C   UNL     1      -7.542   4.311   0.105  0.00  0.00    +0.010 A 
ATOM      5  C   UNL     1      -7.319   2.930   0.102  0.00  0.00    -0.002 A 
ATOM      6  C   UNL     1      -6.010   2.440   0.089  0.00  0.00    +0.055 A 
ENDROOT
BRANCH   5   7
ATOM      7  C   UNL     1      -8.457   1.998   0.106  0.00  0.00    +0.140 C 
ATOM      8  N   UNL     1      -9.680   2.460   0.112  0.00  0.00    -0.180 NA
BRANCH   8   9
ATOM      9  N   UNL     1     -10.678   1.642   0.116  0.00  0.00    -0.263 N 
ATOM     10  C   UNL     1     -11.909   2.107   0.122  0.00  0.00    +0.143 C 
ATOM     11  N   UNL     1     -12.132   3.467   0.126  0.00  0.00    -0.342 N 
ATOM     12  H   UNL     1     -13.161   3.856   0.131  0.00  0.00    +0.144 HD
ATOM     13  H   UNL     1     -11.281   4.164   0.123  0.00  0.00    +0.144 HD
ATOM     14  H   UNL     1     -10.500   0.557   0.113  0.00  0.00    +0.190 HD
BRANCH  10  15
ATOM     15  C   UNL     1     -13.051   1.171   0.126  0.00  0.00    +0.187 A 
ATOM     16  C   UNL     1     -13.041  -0.307   0.012  0.00  0.00    +0.191 A 
ATOM     17  N   UNL     1     -14.317  -0.606   0.076  0.00  0.00    -0.033 NA
ATOM     18  O   UNL     1     -14.964   0.407   0.190  0.00  0.00    -0.240 OA
ATOM     19  N   UNL     1     -14.337   1.440   0.226  0.00  0.00    -0.044 NA
ATOM     20  N   UNL     1     -11.954  -1.160  -0.124  0.00  0.00    -0.339 N 
ATOM     21  H   UNL     1     -12.113  -2.246  -0.197  0.00  0.00    +0.144 HD
ATOM     22  H   UNL     1     -10.934  -0.750  -0.160  0.00  0.00    +0.144 HD
ENDBRANCH  10  15
ENDBRANCH   8   9
ENDBRANCH   5   7
BRANCH   1  23
ATOM     23  O   UNL     1      -3.671   2.851   0.084  0.00  0.00    -0.487 OA
BRANCH  23  24
ATOM     24  C   UNL     1      -2.620   3.820   0.080  0.00  0.00    +0.265 C 
BRANCH  24  34
ATOM     25  C   UNL     1       2.285   5.284   0.057  0.00  0.00    +0.001 A 
ATOM     26  C   UNL     1       1.062   5.952   0.065  0.00  0.00    +0.001 A 
ATOM     27  C   UNL     1      -0.113   5.265   0.069  0.00  0.00    +0.009 A 
ATOM     28  C   UNL     1      -0.096   3.860   0.067  0.00  0.00    -0.011 A 
ATOM     29  C   UNL     1       1.148   3.180   0.059  0.00  0.00    -0.018 A 
ATOM     30  C   UNL     1       2.340   3.924   0.054  0.00  0.00    +0.008 A 
ATOM     31  C   UNL     1       1.165   1.775   0.056  0.00  0.00    +0.008 A 
ATOM     32  C   UNL     1      -0.010   1.087   0.060  0.00  0.00    +0.001 A 
ATOM     33  C   UNL     1      -1.233   1.756   0.062  0.00  0.00    +0.007 A 
ATOM     34  C   UNL     1      -1.288   3.116   0.072  0.00  0.00    -0.003 A 
ENDBRANCH  24  34
ENDBRANCH  23  24
ENDBRANCH   1  23
TORSDOF 6
