REMARK  Name = ZINC01822024
REMARK  8 active torsions:
REMARK  status: ('A' for Active; 'I' for Inactive)
REMARK    1  A    between atoms: C_1  and  C_2
REMARK    2  A    between atoms: C_2  and  C_3
REMARK    3  A    between atoms: C_2  and  C_4
REMARK    4  A    between atoms: C_4  and  C_5
REMARK    5  A    between atoms: C_11  and  S_15
REMARK    6  A    between atoms: S_15  and  C_16
REMARK    7  A    between atoms: C_16  and  C_17
REMARK    8  A    between atoms: N_19  and  C_20
REMARK                            x       y       z     vdW  Elec       q    Type
REMARK                         _______ _______ _______ _____ _____    ______ ____
ROOT
ATOM      1  C   UNL     1      -1.926  -0.075  -1.218  0.00  0.00    +0.046 A 
ATOM      2  C   UNL     1      -2.413   1.228  -1.283  0.00  0.00    -0.022 A 
ATOM      3  C   UNL     1      -2.972   1.686  -2.447  0.00  0.00    -0.031 A 
ATOM      4  C   UNL     1      -3.050   0.819  -3.565  0.00  0.00    +0.037 A 
ATOM      5  C   UNL     1      -3.615   1.119  -4.894  0.00  0.00    +0.092 A 
ATOM      6  C   UNL     1      -3.566   0.077  -5.828  0.00  0.00    +0.072 A 
ATOM      7  C   UNL     1      -4.069   0.246  -7.112  0.00  0.00    +0.115 A 
ATOM      8  N   UNL     1      -4.598   1.427  -7.432  0.00  0.00    -0.228 NA
ATOM      9  C   UNL     1      -4.636   2.398  -6.539  0.00  0.00    +0.223 A 
ATOM     10  N   UNL     1      -4.172   2.274  -5.321  0.00  0.00    -0.234 NA
ATOM     11  S   UNL     1      -2.793  -1.264  -4.965  0.00  0.00    -0.064 S 
ATOM     12  C   UNL     1      -2.532  -0.476  -3.394  0.00  0.00    +0.111 A 
ATOM     13  N   UNL     1      -1.993  -0.875  -2.262  0.00  0.00    -0.244 NA
ATOM     14  C   UNL     1      -3.509   3.082  -2.607  0.00  0.00    +0.036 C 
ATOM     15  C   UNL     1      -3.740   3.725  -1.240  0.00  0.00    +0.005 C 
ATOM     16  C   UNL     1      -2.463   3.561  -0.407  0.00  0.00    +0.005 C 
ATOM     17  C   UNL     1      -2.303   2.085  -0.049  0.00  0.00    +0.037 C 
ENDROOT
BRANCH   1  18
ATOM     18  C   UNL     1      -1.308  -0.575   0.063  0.00  0.00    +0.058 C 
BRANCH  18  20
ATOM     19  C   UNL     1      -2.814  -2.566   0.153  0.00  0.00    +0.007 C 
ATOM     20  C   UNL     1      -2.369  -1.302   0.891  0.00  0.00    -0.011 C 
ATOM     21  C   UNL     1      -1.781  -1.686   2.250  0.00  0.00    +0.007 C 
ENDBRANCH  18  20
ENDBRANCH   1  18
BRANCH   7  22
ATOM     22  S   UNL     1      -4.006  -1.066  -8.286  0.00  0.00    -0.095 S 
BRANCH  22  23
ATOM     23  C   UNL     1      -4.770  -0.360  -9.773  0.00  0.00    +0.172 C 
BRANCH  23  24
ATOM     24  C   UNL     1      -4.780  -1.393 -10.871  0.00  0.00    +0.227 C 
ATOM     25  O   UNL     1      -4.319  -2.496 -10.670  0.00  0.00    -0.275 OA
ATOM     26  N   UNL     1      -5.303  -1.090 -12.076  0.00  0.00    -0.285 N 
ATOM     27  H   UNL     1      -5.736  -0.233 -12.215  0.00  0.00    +0.155 HD
BRANCH  26  28
ATOM     28  C   UNL     1      -5.221  -2.011 -13.126  0.00  0.00    +0.033 A 
ATOM     29  C   UNL     1      -5.040  -1.567 -14.429  0.00  0.00    +0.024 A 
ATOM     30  C   UNL     1      -4.958  -2.478 -15.463  0.00  0.00    +0.017 A 
ATOM     31  C   UNL     1      -5.057  -3.833 -15.202  0.00  0.00    +0.018 A 
ATOM     32  C   UNL     1      -5.237  -4.279 -13.905  0.00  0.00    +0.017 A 
ATOM     33  C   UNL     1      -5.314  -3.372 -12.866  0.00  0.00    +0.024 A 
ATOM     34 BR   UNL     1      -4.945  -5.079 -16.621  0.00  0.00    -0.050 Br
ENDBRANCH  26  28
ENDBRANCH  23  24
ENDBRANCH  22  23
ENDBRANCH   7  22
TORSDOF 6
