REMARK  Name = ZINC05548528
REMARK  6 active torsions:
REMARK  status: ('A' for Active; 'I' for Inactive)
REMARK    1  A    between atoms: C_1  and  C_2
REMARK    2  A    between atoms: C_2  and  C_3
REMARK    3  A    between atoms: C_6  and  S_9
REMARK    4  A    between atoms: N_7  and  N_8
REMARK    5  A    between atoms: S_9  and  C_10
REMARK    6  A    between atoms: C_10  and  C_11
REMARK                            x       y       z     vdW  Elec       q    Type
REMARK                         _______ _______ _______ _____ _____    ______ ____
ROOT
ATOM      1  S   UNL     1       0.002  -0.004   0.002  0.00  0.00    -0.080 S 
ENDROOT
BRANCH   1   5
ATOM      2  C   UNL     1       1.832  -1.234  -3.216  0.00  0.00    +0.151 A 
ATOM      3  N   UNL     1       1.888   0.062  -3.338  0.00  0.00    -0.132 NA
ATOM      4  N   UNL     1       1.316   0.625  -2.334  0.00  0.00    -0.121 NA
ATOM      5  C   UNL     1       0.859  -0.290  -1.510  0.00  0.00    +0.209 A 
ATOM      6  N   UNL     1       1.180  -1.505  -2.045  0.00  0.00    -0.228 N 
BRANCH   6   7
ATOM      7  N   UNL     1       0.904  -2.736  -1.520  0.00  0.00    -0.295 N 
ATOM      8  H   UNL     1       0.011  -3.075  -1.844  0.00  0.00    +0.163 HD
ATOM      9  H   UNL     1       1.639  -3.393  -1.733  0.00  0.00    +0.163 HD
ENDBRANCH   6   7
BRANCH   2  11
ATOM     10  C   UNL     1       3.833  -2.578  -3.801  0.00  0.00    +0.012 C 
ATOM     11  C   UNL     1       2.389  -2.247  -4.183  0.00  0.00    +0.074 C 
ENDBRANCH   2  11
ENDBRANCH   1   5
BRANCH   1  12
ATOM     12  C   UNL     1      -0.022   1.806   0.012  0.00  0.00    +0.115 C 
BRANCH  12  13
ATOM     13  C   UNL     1      -0.728   2.292   1.252  0.00  0.00    +0.001 A 
ATOM     14  C   UNL     1      -2.094   2.509   1.230  0.00  0.00    +0.046 A 
ATOM     15  C   UNL     1      -2.743   2.950   2.370  0.00  0.00    +0.022 A 
ATOM     16  C   UNL     1      -2.024   3.184   3.528  0.00  0.00    +0.023 A 
ATOM     17  C   UNL     1      -0.658   2.972   3.549  0.00  0.00    +0.060 A 
ATOM     18  C   UNL     1      -0.009   2.526   2.410  0.00  0.00    +0.065 A 
ATOM     19 CL   UNL     1       1.706   2.260   2.435  0.00  0.00    -0.082 Cl
ATOM     20 CL   UNL     1       0.244   3.266   5.003  0.00  0.00    -0.082 Cl
ATOM     21 CL   UNL     1      -2.996   2.223  -0.225  0.00  0.00    -0.083 Cl
ENDBRANCH  12  13
ENDBRANCH   1  12
TORSDOF 5
