REMARK  Name = ZINC32622667
REMARK  6 active torsions:
REMARK  status: ('A' for Active; 'I' for Inactive)
REMARK    1  A    between atoms: C_5  and  C_7
REMARK    2  A    between atoms: C_7  and  C_9
REMARK    3  A    between atoms: C_7  and  N_25
REMARK    4  A    between atoms: C_9  and  N_10
REMARK    5  A    between atoms: C_11  and  C_13
REMARK    6  A    between atoms: C_15  and  C_18
REMARK                            x       y       z     vdW  Elec       q    Type
REMARK                         _______ _______ _______ _____ _____    ______ ____
ROOT
ATOM      1  N   UNL     1       4.349  -0.632  -0.428  0.00  0.00    -0.311 N 
ATOM      2  C   UNL     1       4.002   0.571  -0.926  0.00  0.00    +0.266 C 
ATOM      3  O   UNL     1       4.857   1.325  -1.346  0.00  0.00    -0.268 OA
ATOM      4  H   UNL     1       3.575  -1.314  -0.048  0.00  0.00    +0.149 HD
ENDROOT
BRANCH   2   5
ATOM      5  C   UNL     1       2.575   0.975  -0.962  0.00  0.00    +0.168 A 
ATOM      6  C   UNL     1       2.049   2.199  -1.451  0.00  0.00    +0.086 A 
ATOM      7  C   UNL     1       0.701   2.075  -1.260  0.00  0.00    +0.168 A 
ATOM      8  O   UNL     1       0.507   0.866  -0.705  0.00  0.00    -0.354 OA
ATOM      9  N   UNL     1       1.548   0.273  -0.547  0.00  0.00    -0.073 NA
BRANCH   7  10
ATOM     10  C   UNL     1      -0.338   3.070  -1.601  0.00  0.00    +0.020 A 
ATOM     11  C   UNL     1       0.022   4.292  -2.172  0.00  0.00    +0.013 A 
ATOM     12  C   UNL     1      -0.952   5.213  -2.493  0.00  0.00    +0.016 A 
ATOM     13  C   UNL     1      -2.284   4.934  -2.241  0.00  0.00    +0.018 A 
ATOM     14  C   UNL     1      -2.647   3.726  -1.670  0.00  0.00    +0.016 A 
ATOM     15  C   UNL     1      -1.683   2.794  -1.349  0.00  0.00    +0.013 A 
ATOM     16 BR   UNL     1      -3.613   6.207  -2.677  0.00  0.00    -0.050 Br
ENDBRANCH   7  10
ENDBRANCH   2   5
BRANCH   1  17
ATOM     17  C   UNL     1       5.758  -1.031  -0.393  0.00  0.00    +0.094 C 
BRANCH  17  18
ATOM     18  C   UNL     1       5.865  -2.488   0.060  0.00  0.00    -0.019 C 
BRANCH  18  23
ATOM     19  C   UNL     1       9.306  -3.783  -0.795  0.00  0.00    +0.000 A 
ATOM     20  C   UNL     1       9.982  -3.580   0.394  0.00  0.00    +0.001 A 
ATOM     21  C   UNL     1       9.325  -3.024   1.476  0.00  0.00    +0.020 A 
ATOM     22  C   UNL     1       7.992  -2.670   1.368  0.00  0.00    +0.043 A 
ATOM     23  C   UNL     1       7.317  -2.873   0.178  0.00  0.00    -0.041 A 
ATOM     24  C   UNL     1       7.973  -3.434  -0.902  0.00  0.00    +0.003 A 
ATOM     25 CL   UNL     1       7.167  -1.972   2.727  0.00  0.00    -0.083 Cl
ENDBRANCH  18  23
BRANCH  18  26
ATOM     26  N   UNL     1       5.206  -3.357  -0.925  0.00  0.00    +0.385 N 
ATOM     27  C   UNL     1       5.455  -4.789  -0.622  0.00  0.00    -0.078 C 
ATOM     28  C   UNL     1       4.315  -5.515  -1.379  0.00  0.00    -0.020 C 
ATOM     29  C   UNL     1       3.114  -4.559  -1.195  0.00  0.00    -0.020 C 
ATOM     30  C   UNL     1       3.738  -3.185  -0.885  0.00  0.00    -0.078 C 
ATOM     31  H   UNL     1       5.620  -3.067  -1.902  0.00  0.00    -0.081 HD
ENDBRANCH  18  26
ENDBRANCH  17  18
ENDBRANCH   1  17
TORSDOF 6
