REMARK  Name = ZINC13691500
REMARK  9 active torsions:
REMARK  status: ('A' for Active; 'I' for Inactive)
REMARK    1  A    between atoms: C_1  and  C_2
REMARK    2  A    between atoms: N_8  and  C_11
REMARK    3  A    between atoms: C_14  and  O_33
REMARK    4  A    between atoms: C_15  and  S_17
REMARK    5  A    between atoms: S_17  and  N_20
REMARK    6  A    between atoms: N_20  and  C_21
REMARK    7  A    between atoms: C_21  and  C_22
REMARK    8  A    between atoms: C_22  and  C_23
REMARK    9  A    between atoms: O_33  and  C_34
REMARK                            x       y       z     vdW  Elec       q    Type
REMARK                         _______ _______ _______ _____ _____    ______ ____
ROOT
ATOM      1  C   UNL     1       1.214  -0.682  -0.013  0.00  0.00    +0.061 A 
ATOM      2  C   UNL     1       0.002  -0.004   0.002  0.00  0.00    +0.029 A 
ATOM      3  C   UNL     1      -0.017   1.376   0.010  0.00  0.00    +0.049 A 
ATOM      4  C   UNL     1       1.175   2.087   0.002  0.00  0.00    +0.146 A 
ATOM      5  C   UNL     1       2.386   1.411  -0.013  0.00  0.00    +0.148 A 
ATOM      6  C   UNL     1       2.406   0.030  -0.021  0.00  0.00    +0.057 A 
ENDROOT
BRANCH   1  13
ATOM      7  C   UNL     1       2.891  -4.840  -0.910  0.00  0.00    +0.019 C 
ATOM      8  C   UNL     1       2.091  -4.347   0.297  0.00  0.00    +0.097 C 
ATOM      9  C   UNL     1       0.589  -4.688   0.102  0.00  0.00    +0.201 C 
ATOM     10  S   UNL     1       0.015  -3.082  -0.588  0.00  0.00    +0.053 S 
ATOM     11  O   UNL     1      -1.171  -2.646   0.061  0.00  0.00    -0.155 OA
ATOM     12  O   UNL     1       0.133  -3.067  -2.004  0.00  0.00    -0.155 OA
ATOM     13  N   UNL     1       1.234  -2.083  -0.021  0.00  0.00    -0.143 N 
ATOM     14  C   UNL     1       2.235  -2.861   0.418  0.00  0.00    +0.243 C 
ATOM     15  O   UNL     1       3.232  -2.372   0.906  0.00  0.00    -0.273 OA
ENDBRANCH   1  13
BRANCH   5  16
ATOM     16  S   UNL     1       3.899   2.314  -0.022  0.00  0.00    +0.062 S 
ATOM     17  O   UNL     1       3.798   3.286   1.010  0.00  0.00    -0.153 OA
ATOM     18  O   UNL     1       4.945   1.353  -0.064  0.00  0.00    -0.153 OA
BRANCH  16  19
ATOM     19  N   UNL     1       3.964   3.146  -1.452  0.00  0.00    -0.190 NA
ATOM     20  H   UNL     1       4.648   2.935  -2.106  0.00  0.00    +0.148 HD
BRANCH  19  21
ATOM     21  C   UNL     1       2.987   4.203  -1.729  0.00  0.00    +0.110 C 
BRANCH  21  22
ATOM     22  C   UNL     1       3.474   5.051  -2.906  0.00  0.00    +0.054 C 
BRANCH  22  23
ATOM     23  C   UNL     1       2.469   6.137  -3.192  0.00  0.00    -0.021 A 
ATOM     24  C   UNL     1       1.478   6.091  -4.095  0.00  0.00    +0.087 A 
ATOM     25  N   UNL     1       0.769   7.261  -4.071  0.00  0.00    -0.360 N 
ATOM     26  H   UNL     1       0.006   7.462  -4.635  0.00  0.00    +0.165 HD
ATOM     27  C   UNL     1       1.301   8.111  -3.127  0.00  0.00    +0.047 A 
ATOM     28  C   UNL     1       2.386   7.442  -2.531  0.00  0.00    +0.003 A 
ATOM     29  C   UNL     1       3.120   8.068  -1.522  0.00  0.00    +0.010 A 
ATOM     30  C   UNL     1       2.780   9.327  -1.116  0.00  0.00    +0.001 A 
ATOM     31  C   UNL     1       1.708   9.990  -1.699  0.00  0.00    +0.002 A 
ATOM     32  C   UNL     1       0.975   9.394  -2.701  0.00  0.00    +0.026 A 
ENDBRANCH  22  23
ENDBRANCH  21  22
ENDBRANCH  19  21
ENDBRANCH  16  19
ENDBRANCH   5  16
BRANCH   4  33
ATOM     33  O   UNL     1       1.156   3.446   0.009  0.00  0.00    -0.493 OA
ATOM     34  C   UNL     1      -0.126   4.077   0.024  0.00  0.00    +0.277 C 
ENDBRANCH   4  33
TORSDOF 7
