REMARK  Name = ZINC24287210
REMARK  8 active torsions:
REMARK  status: ('A' for Active; 'I' for Inactive)
REMARK    1  A    between atoms: C_1  and  C_2
REMARK    2  A    between atoms: C_2  and  C_3
REMARK    3  A    between atoms: C_2  and  C_4
REMARK    4  A    between atoms: C_2  and  N_5
REMARK    5  A    between atoms: C_6  and  C_8
REMARK    6  A    between atoms: C_8  and  N_9
REMARK    7  A    between atoms: C_10  and  C_12
REMARK    8  A    between atoms: C_18  and  C_20
REMARK                            x       y       z     vdW  Elec       q    Type
REMARK                         _______ _______ _______ _____ _____    ______ ____
ROOT
ATOM      1  C   UNL     1       6.115   0.100  -3.825  0.00  0.00    +0.087 C 
ATOM      2  C   UNL     1       6.665  -0.411  -2.492  0.00  0.00    +0.013 C 
ATOM      3  C   UNL     1       8.088   0.116  -2.291  0.00  0.00    +0.001 C 
ATOM      4  C   UNL     1       8.979  -0.376  -3.433  0.00  0.00    +0.001 C 
ATOM      5  C   UNL     1       8.430   0.135  -4.766  0.00  0.00    +0.013 C 
ATOM      6  C   UNL     1       7.007  -0.392  -4.966  0.00  0.00    +0.087 C 
ENDROOT
BRANCH   6   7
ATOM      7  C   UNL     1       7.026  -1.899  -4.976  0.00  0.00    +0.224 C 
ATOM      8  O   UNL     1       6.598  -2.516  -4.023  0.00  0.00    -0.275 OA
ATOM      9  N   UNL     1       7.518  -2.560  -6.042  0.00  0.00    -0.271 N 
ATOM     10  C   UNL     1       8.160  -1.930  -7.199  0.00  0.00    +0.118 C 
ATOM     11  C   UNL     1       8.543  -3.091  -8.130  0.00  0.00    +0.056 C 
ATOM     12  C   UNL     1       8.074  -4.332  -7.404  0.00  0.00    -0.024 A 
ATOM     13  C   UNL     1       7.497  -3.949  -6.203  0.00  0.00    +0.039 A 
ATOM     14  C   UNL     1       6.991  -4.931  -5.350  0.00  0.00    +0.024 A 
ATOM     15  C   UNL     1       7.070  -6.263  -5.700  0.00  0.00    +0.002 A 
ATOM     16  C   UNL     1       7.650  -6.635  -6.898  0.00  0.00    +0.000 A 
ATOM     17  C   UNL     1       8.146  -5.667  -7.752  0.00  0.00    +0.005 A 
ENDBRANCH   6   7
BRANCH   1  19
ATOM     18  N   UNL     1       3.750  -0.110  -3.133  0.00  0.00    -0.306 N 
ATOM     19  C   UNL     1       4.714  -0.419  -4.022  0.00  0.00    +0.217 C 
ATOM     20  O   UNL     1       4.455  -1.113  -4.982  0.00  0.00    -0.275 OA
ATOM     21  H   UNL     1       3.958   0.445  -2.365  0.00  0.00    +0.149 HD
BRANCH  18  22
ATOM     22  C   UNL     1       2.388  -0.615  -3.325  0.00  0.00    +0.200 C 
BRANCH  22  24
ATOM     23  N   UNL     1       0.206  -0.472  -2.167  0.00  0.00    -0.309 N 
ATOM     24  C   UNL     1       1.510  -0.130  -2.200  0.00  0.00    +0.231 C 
ATOM     25  O   UNL     1       1.976   0.568  -1.325  0.00  0.00    -0.274 OA
ATOM     26  H   UNL     1      -0.166  -1.031  -2.868  0.00  0.00    +0.149 HD
BRANCH  23  28
ATOM     27  C   UNL     1      -0.667   1.529  -1.065  0.00  0.00    +0.031 C 
ATOM     28  C   UNL     1      -0.647  -0.001  -1.074  0.00  0.00    +0.026 C 
ATOM     29  C   UNL     1      -0.098  -0.512   0.259  0.00  0.00    +0.031 C 
ATOM     30  C   UNL     1      -2.070  -0.528  -1.275  0.00  0.00    +0.031 C 
ENDBRANCH  23  28
ENDBRANCH  22  24
ENDBRANCH  18  22
ENDBRANCH   1  19
TORSDOF 5
