REMARK  Name = ZINC38680612
REMARK  11 active torsions:
REMARK  status: ('A' for Active; 'I' for Inactive)
REMARK    1  A    between atoms: C_1  and  C_2
REMARK    2  A    between atoms: C_2  and  C_3
REMARK    3  A    between atoms: C_2  and  C_4
REMARK    4  A    between atoms: C_7  and  O_10
REMARK    5  A    between atoms: O_10  and  C_11
REMARK    6  A    between atoms: C_11  and  C_12
REMARK    7  A    between atoms: C_12  and  O_14
REMARK    8  A    between atoms: O_14  and  C_15
REMARK    9  A    between atoms: C_22  and  N_36
REMARK   10  A    between atoms: C_23  and  C_34
REMARK   11  A    between atoms: C_24  and  C_26
REMARK                            x       y       z     vdW  Elec       q    Type
REMARK                         _______ _______ _______ _____ _____    ______ ____
ROOT
ATOM      1  C   UNL     1      -8.983  -4.420  -1.657  0.00  0.00    +0.135 A 
ATOM      2  C   UNL     1      -9.750  -3.997  -0.580  0.00  0.00    +0.047 A 
ATOM      3  C   UNL     1     -11.050  -4.442  -0.443  0.00  0.00    +0.012 A 
ATOM      4  C   UNL     1     -11.593  -5.310  -1.374  0.00  0.00    +0.008 A 
ATOM      5  C   UNL     1     -10.831  -5.735  -2.451  0.00  0.00    +0.138 A 
ATOM      6  C   UNL     1      -9.525  -5.284  -2.594  0.00  0.00    +0.093 A 
ATOM      7  O   UNL     1     -11.344  -6.585  -3.374  0.00  0.00    -0.441 OA
ATOM      8  C   UNL     1     -12.428  -7.322  -3.077  0.00  0.00    +0.199 C 
ATOM      9  C   UNL     1     -13.260  -6.995  -2.060  0.00  0.00    +0.098 C 
ATOM     10  C   UNL     1     -13.012  -5.784  -1.206  0.00  0.00    +0.102 C 
ENDROOT
BRANCH  10  11
ATOM     11  C   UNL     1     -13.957  -4.683  -1.615  0.00  0.00    +0.019 A 
ATOM     12  C   UNL     1     -13.924  -4.186  -2.907  0.00  0.00    +0.129 A 
ATOM     13  C   UNL     1     -14.793  -3.175  -3.280  0.00  0.00    +0.039 A 
ATOM     14  C   UNL     1     -15.693  -2.662  -2.365  0.00  0.00    +0.004 A 
ATOM     15  C   UNL     1     -15.725  -3.159  -1.075  0.00  0.00    +0.020 A 
ATOM     16  C   UNL     1     -14.861  -4.173  -0.701  0.00  0.00    +0.048 A 
ATOM     17 CL   UNL     1     -14.909  -4.801   0.916  0.00  0.00    -0.083 Cl
ATOM     18  F   UNL     1     -13.045  -4.686  -3.801  0.00  0.00    -0.205 F 
ENDBRANCH  10  11
BRANCH   8  19
ATOM     19  N   UNL     1     -12.700  -8.438  -3.828  0.00  0.00    -0.328 N 
ATOM     20  H   UNL     1     -12.114  -8.685  -4.560  0.00  0.00    +0.145 HD
ATOM     21  H   UNL     1     -13.479  -8.980  -3.626  0.00  0.00    +0.145 HD
ENDBRANCH   8  19
BRANCH   9  22
ATOM     22  C   UNL     1     -14.399  -7.821  -1.793  0.00  0.00    +0.101 C 
ATOM     23  N   UNL     1     -15.303  -8.475  -1.581  0.00  0.00    -0.191 NA
ENDBRANCH   9  22
BRANCH   1  24
ATOM     24  O   UNL     1      -7.703  -3.983  -1.793  0.00  0.00    -0.423 OA
BRANCH  24  25
ATOM     25  C   UNL     1      -6.760  -4.540  -1.016  0.00  0.00    +0.350 C 
ATOM     26  O   UNL     1      -7.073  -5.337  -0.164  0.00  0.00    -0.247 OA
BRANCH  25  27
ATOM     27  C   UNL     1      -5.312  -4.170  -1.207  0.00  0.00    +0.349 C 
BRANCH  27  28
ATOM     28  O   UNL     1      -4.509  -4.889  -0.268  0.00  0.00    -0.481 OA
BRANCH  28  32
ATOM     29  C   UNL     1      -0.440  -4.222  -0.385  0.00  0.00    -0.045 A 
ATOM     30  C   UNL     1      -0.968  -5.109   0.535  0.00  0.00    +0.007 A 
ATOM     31  C   UNL     1      -2.330  -5.334   0.577  0.00  0.00    +0.046 A 
ATOM     32  C   UNL     1      -3.169  -4.669  -0.306  0.00  0.00    +0.121 A 
ATOM     33  C   UNL     1      -2.637  -3.780  -1.229  0.00  0.00    +0.046 A 
ATOM     34  C   UNL     1      -1.274  -3.554  -1.263  0.00  0.00    +0.007 A 
BRANCH  29  36
ATOM     35  C   UNL     1       1.515  -3.439   0.924  0.00  0.00    +0.012 C 
ATOM     36  C   UNL     1       1.047  -3.979  -0.428  0.00  0.00    +0.013 C 
ATOM     37  C   UNL     1       1.770  -5.293  -0.730  0.00  0.00    +0.012 C 
ENDBRANCH  29  36
ENDBRANCH  28  32
ENDBRANCH  27  28
ENDBRANCH  25  27
ENDBRANCH  24  25
ENDBRANCH   1  24
TORSDOF 9
