REMARK  Name = ZINC39653153
REMARK  14 active torsions:
REMARK  status: ('A' for Active; 'I' for Inactive)
REMARK    1  A    between atoms: C_1  and  C_2
REMARK    2  A    between atoms: C_2  and  C_3
REMARK    3  A    between atoms: C_2  and  C_4
REMARK    4  A    between atoms: C_4  and  C_6
REMARK    5  A    between atoms: C_4  and  O_34
REMARK    6  A    between atoms: C_10  and  C_19
REMARK    7  A    between atoms: N_21  and  C_22
REMARK    8  A    between atoms: C_22  and  C_23
REMARK    9  A    between atoms: C_23  and  C_24
REMARK   10  A    between atoms: C_26  and  O_32
REMARK   11  A    between atoms: C_28  and  O_30
REMARK   12  A    between atoms: O_30  and  C_31
REMARK   13  A    between atoms: O_32  and  C_33
REMARK   14  A    between atoms: O_34  and  C_35
REMARK                            x       y       z     vdW  Elec       q    Type
REMARK                         _______ _______ _______ _____ _____    ______ ____
ROOT
ATOM      1  C   UNL     1      -2.012  -0.054  -1.132  0.00  0.00    +0.257 C 
ATOM      2  O   UNL     1      -2.987   0.655  -1.002  0.00  0.00    -0.272 OA
ATOM      3  N   UNL     1      -1.669  -0.512  -2.352  0.00  0.00    -0.297 N 
ATOM      4  C   UNL     1      -0.527  -1.387  -2.706  0.00  0.00    +0.121 C 
ATOM      5  C   UNL     1      -1.089  -2.348  -3.777  0.00  0.00    +0.100 C 
ATOM      6  C   UNL     1      -2.282  -1.597  -4.391  0.00  0.00    -0.004 C 
ATOM      7  C   UNL     1      -2.352  -0.258  -3.643  0.00  0.00    +0.115 C 
ATOM      8  C   UNL     1      -2.050  -1.361  -5.880  0.00  0.00    -0.010 C 
ATOM      9  C   UNL     1      -3.275  -0.665  -6.479  0.00  0.00    -0.082 C 
ATOM     10  N   UNL     1      -4.464  -1.502  -6.276  0.00  0.00    +0.379 N 
ATOM     11  C   UNL     1      -4.734  -1.647  -4.840  0.00  0.00    -0.082 C 
ATOM     12  C   UNL     1      -3.571  -2.385  -4.172  0.00  0.00    -0.010 C 
ATOM     13  H   UNL     1      -5.258  -1.071  -6.724  0.00  0.00    -0.086 HD
ATOM     14  H   UNL     1      -4.306  -2.413  -6.681  0.00  0.00    -0.086 HD
ENDROOT
BRANCH   5  15
ATOM     15  C   UNL     1      -0.046  -2.629  -4.829  0.00  0.00    +0.218 C 
ATOM     16  O   UNL     1       0.833  -1.821  -5.043  0.00  0.00    -0.275 OA
ATOM     17  N   UNL     1      -0.091  -3.778  -5.532  0.00  0.00    -0.315 N 
ATOM     18  H   UNL     1      -0.794  -4.424  -5.361  0.00  0.00    +0.149 HD
BRANCH  17  19
ATOM     19  C   UNL     1       0.923  -4.051  -6.554  0.00  0.00    +0.109 C 
BRANCH  19  20
ATOM     20  C   UNL     1       0.644  -5.411  -7.198  0.00  0.00    +0.054 C 
BRANCH  20  21
ATOM     21  C   UNL     1       1.687  -5.691  -8.249  0.00  0.00    -0.039 A 
ATOM     22  C   UNL     1       1.478  -5.284  -9.553  0.00  0.00    +0.049 A 
ATOM     23  C   UNL     1       2.437  -5.542 -10.523  0.00  0.00    +0.124 A 
ATOM     24  C   UNL     1       3.604  -6.208 -10.183  0.00  0.00    +0.091 A 
ATOM     25  C   UNL     1       3.811  -6.615  -8.875  0.00  0.00    +0.124 A 
ATOM     26  C   UNL     1       2.852  -6.351  -7.907  0.00  0.00    +0.049 A 
BRANCH  25  27
ATOM     27  O   UNL     1       4.954  -7.269  -8.538  0.00  0.00    -0.495 OA
ATOM     28  C   UNL     1       5.899  -7.503  -9.584  0.00  0.00    +0.277 C 
ENDBRANCH  25  27
BRANCH  23  29
ATOM     29  O   UNL     1       2.231  -5.141 -11.806  0.00  0.00    -0.495 OA
ATOM     30  C   UNL     1       3.260  -5.440 -12.752  0.00  0.00    +0.277 C 
ENDBRANCH  23  29
ENDBRANCH  20  21
ENDBRANCH  19  20
ENDBRANCH  17  19
ENDBRANCH   5  15
BRANCH   1  31
ATOM     31  C   UNL     1      -1.185  -0.425   0.072  0.00  0.00    +0.261 C 
BRANCH  31  33
ATOM     32  C   UNL     1       0.112   1.708  -0.031  0.00  0.00    +0.011 C 
ATOM     33  C   UNL     1       0.213   0.182  -0.064  0.00  0.00    +0.033 C 
ATOM     34  C   UNL     1       1.091  -0.296   1.095  0.00  0.00    +0.011 C 
ENDBRANCH  31  33
BRANCH  31  35
ATOM     35  O   UNL     1      -1.810   0.079   1.254  0.00  0.00    -0.479 OA
BRANCH  35  36
ATOM     36  C   UNL     1      -1.779  -0.716   2.356  0.00  0.00    +0.122 A 
ATOM     37  C   UNL     1      -2.470  -0.345   3.500  0.00  0.00    +0.045 A 
ATOM     38  C   UNL     1      -2.436  -1.155   4.618  0.00  0.00    +0.004 A 
ATOM     39  C   UNL     1      -1.714  -2.333   4.599  0.00  0.00    +0.000 A 
ATOM     40  C   UNL     1      -1.024  -2.705   3.460  0.00  0.00    +0.004 A 
ATOM     41  C   UNL     1      -1.059  -1.902   2.336  0.00  0.00    +0.045 A 
ENDBRANCH  35  36
ENDBRANCH  31  35
ENDBRANCH   1  31
TORSDOF 10
