REMARK  Name = ZINC01895984
REMARK  8 active torsions:
REMARK  status: ('A' for Active; 'I' for Inactive)
REMARK    1  A    between atoms: C_1  and  C_2
REMARK    2  A    between atoms: C_3  and  C_30
REMARK    3  A    between atoms: C_7  and  S_11
REMARK    4  A    between atoms: S_11  and  C_12
REMARK    5  A    between atoms: C_12  and  C_13
REMARK    6  A    between atoms: N_15  and  C_16
REMARK    7  A    between atoms: C_17  and  C_27
REMARK    8  A    between atoms: C_19  and  C_21
REMARK                            x       y       z     vdW  Elec       q    Type
REMARK                         _______ _______ _______ _____ _____    ______ ____
ROOT
ATOM      1  C   UNL     1      -5.309   3.366  -0.974  0.00  0.00    +0.228 C 
ATOM      2  O   UNL     1      -6.215   2.575  -0.821  0.00  0.00    -0.275 OA
ATOM      3  N   UNL     1      -4.066   2.923  -1.250  0.00  0.00    -0.279 N 
ATOM      4  H   UNL     1      -3.342   3.557  -1.373  0.00  0.00    +0.155 HD
ENDROOT
BRANCH   3   5
ATOM      5  C   UNL     1      -3.824   1.564  -1.357  0.00  0.00    +0.084 A 
ATOM      6  C   UNL     1      -2.622   0.916  -1.633  0.00  0.00    +0.066 A 
ATOM      7  C   UNL     1      -2.635  -0.478  -1.684  0.00  0.00    +0.031 A 
ATOM      8  C   UNL     1      -3.822  -1.108  -1.466  0.00  0.00    +0.022 A 
ATOM      9  S   UNL     1      -4.942   0.251  -1.186  0.00  0.00    -0.073 S 
BRANCH   8  10
ATOM     10  C   UNL     1      -4.111  -2.557  -1.464  0.00  0.00    -0.011 A 
ATOM     11  C   UNL     1      -3.090  -3.476  -1.714  0.00  0.00    +0.009 A 
ATOM     12  C   UNL     1      -3.365  -4.828  -1.703  0.00  0.00    +0.001 A 
ATOM     13  C   UNL     1      -4.652  -5.273  -1.458  0.00  0.00    +0.000 A 
ATOM     14  C   UNL     1      -5.669  -4.368  -1.216  0.00  0.00    +0.001 A 
ATOM     15  C   UNL     1      -5.407  -3.013  -1.217  0.00  0.00    +0.009 A 
ENDBRANCH   8  10
BRANCH   6  16
ATOM     16  C   UNL     1      -1.385   1.672  -1.856  0.00  0.00    +0.244 C 
ATOM     17  O   UNL     1      -1.398   2.888  -1.806  0.00  0.00    -0.270 OA
ATOM     18  N   UNL     1      -0.234   1.020  -2.116  0.00  0.00    -0.325 N 
ATOM     19  H   UNL     1      -0.224   0.051  -2.155  0.00  0.00    +0.145 HD
ATOM     20  H   UNL     1       0.583   1.521  -2.267  0.00  0.00    +0.145 HD
ENDBRANCH   6  16
ENDBRANCH   3   5
BRANCH   1  21
ATOM     21  C   UNL     1      -5.573   4.846  -0.857  0.00  0.00    +0.172 C 
BRANCH  21  22
ATOM     22  S   UNL     1      -7.323   5.119  -0.484  0.00  0.00    -0.096 S 
BRANCH  22  29
ATOM     23  C   UNL     1     -10.140   5.561   0.116  0.00  0.00    +0.045 C 
ATOM     24  C   UNL     1      -9.890   7.047   0.128  0.00  0.00    -0.029 A 
ATOM     25  C   UNL     1     -10.894   7.902   0.373  0.00  0.00    -0.008 A 
ATOM     26  S   UNL     1     -10.112   9.501   0.279  0.00  0.00    -0.074 S 
ATOM     27  C   UNL     1      -8.457   8.978  -0.086  0.00  0.00    +0.113 A 
ATOM     28  C   UNL     1      -8.560   7.570  -0.131  0.00  0.00    +0.043 A 
ATOM     29  C   UNL     1      -7.348   6.879  -0.405  0.00  0.00    +0.109 A 
ATOM     30  N   UNL     1      -6.239   7.575  -0.604  0.00  0.00    -0.229 NA
ATOM     31  C   UNL     1      -6.218   8.894  -0.552  0.00  0.00    +0.223 A 
ATOM     32  N   UNL     1      -7.309   9.590  -0.297  0.00  0.00    -0.228 NA
ATOM     33  C   UNL     1     -12.340   7.586   0.659  0.00  0.00    +0.052 C 
ENDBRANCH  22  29
ENDBRANCH  21  22
ENDBRANCH   1  21
TORSDOF 6
