REMARK  Name = ZINC05364378
REMARK  7 active torsions:
REMARK  status: ('A' for Active; 'I' for Inactive)
REMARK    1  A    between atoms: C_1  and  C_2
REMARK    2  A    between atoms: C_6  and  C_8
REMARK    3  A    between atoms: C_8  and  C_24
REMARK    4  A    between atoms: C_10  and  C_12
REMARK    5  A    between atoms: N_14  and  N_15
REMARK    6  A    between atoms: N_15  and  C_16
REMARK    7  A    between atoms: C_28  and  C_30
REMARK                            x       y       z     vdW  Elec       q    Type
REMARK                         _______ _______ _______ _____ _____    ______ ____
ROOT
ATOM      1  C   UNL     1       0.762  -4.526   3.697  0.00  0.00    +0.033 C 
ATOM      2  C   UNL     1       0.629  -3.287   2.810  0.00  0.00    +0.031 C 
ATOM      3  C   UNL     1      -0.437  -4.383   2.757  0.00  0.00    +0.092 C 
ENDROOT
BRANCH   1   9
ATOM      4  C   UNL     1       5.015  -5.679   1.325  0.00  0.00    +0.044 C 
ATOM      5  C   UNL     1       3.853  -6.088   2.193  0.00  0.00    -0.050 A 
ATOM      6  C   UNL     1       3.755  -7.388   2.651  0.00  0.00    +0.003 A 
ATOM      7  C   UNL     1       2.689  -7.763   3.447  0.00  0.00    +0.001 A 
ATOM      8  C   UNL     1       1.720  -6.837   3.786  0.00  0.00    +0.004 A 
ATOM      9  C   UNL     1       1.818  -5.536   3.329  0.00  0.00    -0.036 A 
ATOM     10  C   UNL     1       2.886  -5.160   2.536  0.00  0.00    +0.008 A 
ENDBRANCH   1   9
BRANCH   1  11
ATOM     11  C   UNL     1       0.513  -4.356   5.174  0.00  0.00    -0.036 A 
ATOM     12  C   UNL     1      -0.746  -4.592   5.694  0.00  0.00    +0.004 A 
ATOM     13  C   UNL     1      -0.974  -4.435   7.049  0.00  0.00    +0.001 A 
ATOM     14  C   UNL     1       0.057  -4.043   7.882  0.00  0.00    +0.003 A 
ATOM     15  C   UNL     1       1.315  -3.807   7.362  0.00  0.00    -0.050 A 
ATOM     16  C   UNL     1       1.544  -3.968   6.008  0.00  0.00    +0.008 A 
ATOM     17  C   UNL     1       2.438  -3.379   8.271  0.00  0.00    +0.044 C 
ENDBRANCH   1  11
BRANCH   3  18
ATOM     18  C   UNL     1      -0.471  -5.263   1.534  0.00  0.00    +0.233 C 
ATOM     19  O   UNL     1      -0.077  -4.836   0.469  0.00  0.00    -0.274 OA
ATOM     20  N   UNL     1      -0.940  -6.523   1.623  0.00  0.00    -0.237 N 
ATOM     21  H   UNL     1      -1.255  -6.864   2.475  0.00  0.00    +0.173 HD
BRANCH  20  22
ATOM     22  N   UNL     1      -0.972  -7.341   0.486  0.00  0.00    -0.271 N 
ATOM     23  H   UNL     1      -0.656  -6.999  -0.365  0.00  0.00    +0.169 HD
BRANCH  22  24
ATOM     24  C   UNL     1      -1.438  -8.595   0.575  0.00  0.00    +0.099 C 
ATOM     25  C   UNL     1      -1.469  -9.411  -0.559  0.00  0.00    +0.037 C 
ATOM     26  C   UNL     1      -1.009  -8.932  -1.806  0.00  0.00    +0.013 C 
ATOM     27  C   UNL     1      -1.048  -9.740  -2.897  0.00  0.00    +0.001 C 
ATOM     28  C   UNL     1      -1.534 -11.042  -2.821  0.00  0.00    +0.004 C 
ATOM     29  C   UNL     1      -1.992 -11.565  -1.651  0.00  0.00    +0.051 C 
ATOM     30  C   UNL     1      -1.976 -10.786  -0.481  0.00  0.00    +0.187 C 
ATOM     31  O   UNL     1      -2.380 -11.244   0.579  0.00  0.00    -0.287 OA
ENDBRANCH  22  24
ENDBRANCH  20  22
ENDBRANCH   3  18
TORSDOF 5
