REMARK  Name = ZINC59816114
REMARK  8 active torsions:
REMARK  status: ('A' for Active; 'I' for Inactive)
REMARK    1  A    between atoms: C_1  and  C_2
REMARK    2  A    between atoms: C_9  and  C_11
REMARK    3  A    between atoms: C_11  and  S_12
REMARK    4  A    between atoms: S_12  and  C_13
REMARK    5  A    between atoms: N_18  and  N_19
REMARK    6  A    between atoms: C_20  and  C_21
REMARK    7  A    between atoms: C_20  and  C_22
REMARK    8  A    between atoms: C_25  and  N_28
REMARK                            x       y       z     vdW  Elec       q    Type
REMARK                         _______ _______ _______ _____ _____    ______ ____
ROOT
ATOM      1  C   UNL     1       0.154  -6.758   3.284  0.00  0.00    +0.211 A 
ATOM      2  N   UNL     1      -0.191  -7.732   4.133  0.00  0.00    -0.186 NA
ATOM      3  C   UNL     1       0.119  -8.902   3.613  0.00  0.00    +0.232 A 
ATOM      4  N   UNL     1       0.675  -8.687   2.402  0.00  0.00    -0.245 N 
ATOM      5  N   UNL     1       0.681  -7.296   2.210  0.00  0.00    -0.144 NA
ATOM      6  N   UNL     1      -0.090 -10.135   4.205  0.00  0.00    -0.205 N 
ATOM      7  H   UNL     1       0.173 -10.945   3.741  0.00  0.00    +0.177 HD
ATOM      8  H   UNL     1       1.002  -9.360   1.785  0.00  0.00    +0.192 HD
ENDROOT
BRANCH   6   9
ATOM      9  N   UNL     1      -0.681 -10.212   5.472  0.00  0.00    -0.184 NA
ATOM     10  C   UNL     1      -0.877 -11.370   6.027  0.00  0.00    +0.063 C 
ATOM     11  C   UNL     1      -0.468 -12.629   5.308  0.00  0.00    +0.068 C 
BRANCH  10  12
ATOM     12  C   UNL     1      -1.499 -11.452   7.361  0.00  0.00    -0.002 A 
ATOM     13  C   UNL     1      -1.705 -12.696   7.963  0.00  0.00    +0.011 A 
ATOM     14  C   UNL     1      -2.287 -12.769   9.209  0.00  0.00    +0.023 A 
ATOM     15  C   UNL     1      -2.669 -11.606   9.869  0.00  0.00    +0.025 A 
ATOM     16  C   UNL     1      -2.466 -10.366   9.273  0.00  0.00    +0.023 A 
ATOM     17  C   UNL     1      -1.879 -10.285   8.030  0.00  0.00    +0.011 A 
BRANCH  15  18
ATOM     18  N   UNL     1      -3.259 -11.683  11.132  0.00  0.00    -0.358 N 
ATOM     19  H   UNL     1      -3.401 -12.548  11.548  0.00  0.00    +0.142 HD
ATOM     20  H   UNL     1      -3.526 -10.873  11.593  0.00  0.00    +0.142 HD
ENDBRANCH  15  18
ENDBRANCH  10  12
ENDBRANCH   6   9
BRANCH   1  21
ATOM     21  S   UNL     1      -0.072  -5.033   3.559  0.00  0.00    -0.075 S 
BRANCH  21  22
ATOM     22  C   UNL     1       0.581  -4.259   2.055  0.00  0.00    +0.173 C 
BRANCH  22  30
ATOM     23  C   UNL     1      -0.019   1.526   0.010  0.00  0.00    +0.009 C 
ATOM     24  C   UNL     1       0.002  -0.004   0.002  0.00  0.00    +0.003 C 
ATOM     25  C   UNL     1       0.720  -0.498  -1.256  0.00  0.00    +0.006 C 
ATOM     26  C   UNL     1       0.712  -2.028  -1.282  0.00  0.00    +0.019 C 
ATOM     27  C   UNL     1       1.463  -2.559  -0.057  0.00  0.00    +0.108 C 
ATOM     28  N   UNL     1       0.869  -1.973   1.153  0.00  0.00    -0.301 N 
ATOM     29  C   UNL     1       0.744  -0.512   1.242  0.00  0.00    +0.111 C 
ATOM     30  C   UNL     1       0.447  -2.761   2.161  0.00  0.00    +0.226 C 
ATOM     31  O   UNL     1      -0.042  -2.265   3.154  0.00  0.00    -0.275 OA
ENDBRANCH  22  30
ENDBRANCH  21  22
ENDBRANCH   1  21
TORSDOF 6
