REMARK  Name = ZINC05001585
REMARK  10 active torsions:
REMARK  status: ('A' for Active; 'I' for Inactive)
REMARK    1  A    between atoms: C_1  and  C_2
REMARK    2  A    between atoms: C_7  and  C_31
REMARK    3  A    between atoms: C_10  and  C_12
REMARK    4  A    between atoms: C_12  and  N_67
REMARK    5  A    between atoms: C_16  and  C_18
REMARK    6  A    between atoms: C_21  and  S_24
REMARK    7  A    between atoms: N_22  and  C_23
REMARK    8  A    between atoms: S_24  and  C_25
REMARK    9  A    between atoms: C_25  and  C_26
REMARK   10  A    between atoms: C_26  and  N_69
REMARK                            x       y       z     vdW  Elec       q    Type
REMARK                         _______ _______ _______ _____ _____    ______ ____
ROOT
ATOM      1  C   UNL     1       1.861  -2.728   2.454  0.00  0.00    -0.077 C 
ATOM      2  C   UNL     1       2.739  -3.940   2.854  0.00  0.00    -0.020 C 
ATOM      3  C   UNL     1       3.068  -3.614   4.334  0.00  0.00    -0.009 C 
ATOM      4  C   UNL     1       3.204  -2.077   4.330  0.00  0.00    +0.002 C 
ATOM      5  N   UNL     1       2.479  -1.582   3.146  0.00  0.00    +0.392 N 
ATOM      6  H   UNL     1       3.140  -1.119   2.511  0.00  0.00    -0.080 HD
ENDROOT
BRANCH   4   7
ATOM      7  C   UNL     1       2.613  -1.503   5.592  0.00  0.00    +0.120 A 
ATOM      8  N   UNL     1       1.345  -1.411   5.879  0.00  0.00    -0.135 NA
ATOM      9  N   UNL     1       1.192  -0.875   7.037  0.00  0.00    -0.123 NA
ATOM     10  C   UNL     1       2.365  -0.585   7.552  0.00  0.00    +0.191 A 
ATOM     11  N   UNL     1       3.308  -0.977   6.646  0.00  0.00    -0.310 N 
ATOM     12  C   UNL     1       4.762  -0.858   6.776  0.00  0.00    +0.152 C 
BRANCH  10  13
ATOM     13  S   UNL     1       2.664   0.167   9.117  0.00  0.00    -0.088 S 
BRANCH  13  14
ATOM     14  C   UNL     1       0.962   0.374   9.697  0.00  0.00    +0.059 C 
BRANCH  14  15
ATOM     15  C   UNL     1       0.970   1.029  11.080  0.00  0.00    -0.068 C 
BRANCH  15  20
ATOM     16  C   UNL     1      -1.157  -0.085  11.480  0.00  0.00    -0.079 C 
ATOM     17  C   UNL     1      -2.336   0.136  12.461  0.00  0.00    -0.020 C 
ATOM     18  C   UNL     1      -1.688   0.953  13.602  0.00  0.00    -0.020 C 
ATOM     19  C   UNL     1      -0.441   1.603  12.973  0.00  0.00    -0.079 C 
ATOM     20  N   UNL     1      -0.432   1.192  11.568  0.00  0.00    +0.380 N 
ATOM     21  H   UNL     1      -0.907   1.901  10.996  0.00  0.00    -0.082 HD
ENDBRANCH  15  20
ENDBRANCH  14  15
ENDBRANCH  13  14
ENDBRANCH  10  13
ENDBRANCH   4   7
BRANCH   5  22
ATOM     22  C   UNL     1       1.436  -0.606   3.558  0.00  0.00    +0.020 C 
BRANCH  22  30
ATOM     23  C   UNL     1      -0.014   1.084   0.008  0.00  0.00    +0.028 C 
ATOM     24  C   UNL     1      -0.730   1.579   1.267  0.00  0.00    +0.073 C 
ATOM     25  C   UNL     1      -0.628   3.105   1.350  0.00  0.00    +0.022 C 
ATOM     26  C   UNL     1      -1.222   3.580   2.677  0.00  0.00    +0.004 C 
ATOM     27  C   UNL     1      -0.427   2.979   3.839  0.00  0.00    +0.022 C 
ATOM     28  C   UNL     1      -0.526   1.452   3.784  0.00  0.00    +0.073 C 
ATOM     29  N   UNL     1      -0.092   0.997   2.456  0.00  0.00    -0.297 N 
ATOM     30  C   UNL     1       0.872   0.064   2.331  0.00  0.00    +0.199 C 
ATOM     31  O   UNL     1       1.286  -0.238   1.231  0.00  0.00    -0.278 OA
ATOM     32  C   UNL     1      -1.975   1.023   4.025  0.00  0.00    +0.028 C 
ENDBRANCH  22  30
ENDBRANCH   5  22
TORSDOF 7
