REMARK  Name = ZINC27645523
REMARK  7 active torsions:
REMARK  status: ('A' for Active; 'I' for Inactive)
REMARK    1  A    between atoms: C_5  and  C_7
REMARK    2  A    between atoms: C_7  and  N_8
REMARK    3  A    between atoms: N_8  and  C_9
REMARK    4  A    between atoms: C_9  and  C_10
REMARK    5  A    between atoms: C_10  and  N_11
REMARK    6  A    between atoms: N_11  and  S_12
REMARK    7  A    between atoms: S_12  and  C_15
REMARK                            x       y       z     vdW  Elec       q    Type
REMARK                         _______ _______ _______ _____ _____    ______ ____
ROOT
ATOM      1  C   UNL     1      -1.125   3.309  -1.574  0.00  0.00    +0.087 C 
ENDROOT
BRANCH   1   2
ATOM      2  N   UNL     1      -0.897   1.885  -1.312  0.00  0.00    -0.192 NA
ATOM      3  H   UNL     1      -1.442   1.126  -1.892  0.00  0.00    +0.148 HD
BRANCH   2   4
ATOM      4  S   UNL     1      -0.017   1.417   0.010  0.00  0.00    +0.058 S 
ATOM      5  O   UNL     1       0.002  -0.004   0.002  0.00  0.00    -0.153 OA
ATOM      6  O   UNL     1       1.172   2.195   0.003  0.00  0.00    -0.153 OA
BRANCH   4   7
ATOM      7  C   UNL     1      -0.927   1.900   1.439  0.00  0.00    +0.105 A 
ATOM      8  C   UNL     1      -0.717   3.145   2.004  0.00  0.00    +0.030 A 
ATOM      9  C   UNL     1      -1.434   3.527   3.122  0.00  0.00    +0.022 A 
ATOM     10  C   UNL     1      -2.354   2.659   3.683  0.00  0.00    +0.041 A 
ATOM     11  C   UNL     1      -2.559   1.411   3.121  0.00  0.00    +0.022 A 
ATOM     12  C   UNL     1      -1.846   1.033   2.000  0.00  0.00    +0.030 A 
ATOM     13 CL   UNL     1      -3.251   3.135   5.091  0.00  0.00    -0.084 Cl
ENDBRANCH   4   7
ENDBRANCH   2   4
ENDBRANCH   1   2
BRANCH   1  14
ATOM     14  C   UNL     1      -1.622   3.491  -3.009  0.00  0.00    -0.065 C 
BRANCH  14  15
ATOM     15  N   UNL     1      -1.850   4.918  -3.272  0.00  0.00    +0.383 N 
ATOM     16  H   UNL     1      -0.903   5.459  -3.126  0.00  0.00    -0.085 HD
ATOM     17  H   UNL     1      -2.600   5.292  -2.559  0.00  0.00    -0.085 HD
BRANCH  15  18
ATOM     18  C   UNL     1      -2.329   5.131  -4.644  0.00  0.00    -0.046 C 
BRANCH  18  23
ATOM     19  C   UNL     1      -4.031   8.480  -5.019  0.00  0.00    +0.000 A 
ATOM     20  C   UNL     1      -2.958   9.305  -5.301  0.00  0.00    +0.001 A 
ATOM     21  C   UNL     1      -1.682   8.780  -5.372  0.00  0.00    +0.015 A 
ATOM     22  C   UNL     1      -1.477   7.429  -5.159  0.00  0.00    +0.019 A 
ATOM     23  C   UNL     1      -2.551   6.604  -4.875  0.00  0.00    -0.050 A 
ATOM     24  C   UNL     1      -3.828   7.129  -4.810  0.00  0.00    +0.003 A 
ATOM     25 BR   UNL     1       0.269   6.710  -5.255  0.00  0.00    -0.050 Br
ENDBRANCH  18  23
ENDBRANCH  15  18
ENDBRANCH  14  15
ENDBRANCH   1  14
TORSDOF 7
