REMARK  Name = ZINC07651687
REMARK  8 active torsions:
REMARK  status: ('A' for Active; 'I' for Inactive)
REMARK    1  A    between atoms: C_1  and  C_2
REMARK    2  A    between atoms: C_2  and  C_4
REMARK    3  A    between atoms: C_2  and  O_23
REMARK    4  A    between atoms: N_6  and  C_7
REMARK    5  A    between atoms: O_23  and  C_24
REMARK    6  A    between atoms: C_24  and  C_26
REMARK    7  A    between atoms: C_27  and  C_28
REMARK    8  A    between atoms: C_27  and  C_29
REMARK                            x       y       z     vdW  Elec       q    Type
REMARK                         _______ _______ _______ _____ _____    ______ ____
ROOT
ATOM      1  C   UNL     1      -0.685   1.204   0.756  0.00  0.00    +0.034 A 
ATOM      2  C   UNL     1      -0.769  -0.039   0.140  0.00  0.00    +0.024 A 
ATOM      3  C   UNL     1       0.345  -0.849   0.049  0.00  0.00    +0.014 A 
ATOM      4  C   UNL     1       1.563  -0.421   0.575  0.00  0.00    +0.033 A 
ATOM      5  C   UNL     1       1.653   0.837   1.200  0.00  0.00    +0.035 A 
ATOM      6  C   UNL     1       0.525   1.645   1.287  0.00  0.00    +0.035 A 
ATOM      7  C   UNL     1       2.942   1.296   1.760  0.00  0.00    +0.195 C 
ATOM      8  O   UNL     1       3.019   2.381   2.299  0.00  0.00    -0.287 OA
ATOM      9  C   UNL     1       4.136   0.431   1.662  0.00  0.00    +0.033 A 
ATOM     10  C   UNL     1       5.354   0.853   2.187  0.00  0.00    +0.012 A 
ATOM     11  C   UNL     1       6.467   0.036   2.092  0.00  0.00    +0.001 A 
ATOM     12  C   UNL     1       6.378  -1.200   1.478  0.00  0.00    +0.001 A 
ATOM     13  C   UNL     1       5.175  -1.635   0.951  0.00  0.00    +0.012 A 
ATOM     14  C   UNL     1       4.046  -0.826   1.038  0.00  0.00    +0.033 A 
ATOM     15  C   UNL     1       2.756  -1.284   0.478  0.00  0.00    +0.195 C 
ATOM     16  O   UNL     1       2.679  -2.370  -0.061  0.00  0.00    -0.287 OA
ENDROOT
BRANCH   1  19
ATOM     17  C   UNL     1      -1.702   3.350   0.744  0.00  0.00    +0.258 C 
ATOM     18  O   UNL     1      -0.623   3.848   0.501  0.00  0.00    -0.271 OA
ATOM     19  N   UNL     1      -1.818   2.012   0.849  0.00  0.00    -0.282 N 
ATOM     20  H   UNL     1      -2.690   1.610   0.988  0.00  0.00    +0.155 HD
BRANCH  17  22
ATOM     21  C   UNL     1      -3.413   4.110   2.370  0.00  0.00    +0.062 C 
ATOM     22  C   UNL     1      -2.913   4.228   0.929  0.00  0.00    +0.259 C 
BRANCH  22  23
ATOM     23  O   UNL     1      -2.556   5.609   0.653  0.00  0.00    -0.449 OA
BRANCH  23  24
ATOM     24  C   UNL     1      -3.528   6.405   0.164  0.00  0.00    +0.333 C 
ATOM     25  O   UNL     1      -4.642   5.958  -0.026  0.00  0.00    -0.246 OA
BRANCH  24  26
ATOM     26  C   UNL     1      -3.240   7.814  -0.139  0.00  0.00    +0.090 C 
ATOM     27  C   UNL     1      -4.161   8.569  -0.734  0.00  0.00    -0.069 C 
ATOM     28  C   UNL     1      -5.428   7.941  -1.255  0.00  0.00    +0.039 C 
ATOM     29  C   UNL     1      -3.937  10.051  -0.885  0.00  0.00    +0.039 C 
ENDBRANCH  24  26
ENDBRANCH  23  24
ENDBRANCH  22  23
ENDBRANCH  17  22
ENDBRANCH   1  19
TORSDOF 5
