REMARK  Name = ZINC12540854
REMARK  8 active torsions:
REMARK  status: ('A' for Active; 'I' for Inactive)
REMARK    1  A    between atoms: C_1  and  C_2
REMARK    2  A    between atoms: C_2  and  N_3
REMARK    3  A    between atoms: C_5  and  C_24
REMARK    4  A    between atoms: C_11  and  N_15
REMARK    5  A    between atoms: C_21  and  C_23
REMARK    6  A    between atoms: N_26  and  C_27
REMARK    7  A    between atoms: C_27  and  C_29
REMARK    8  A    between atoms: C_27  and  C_30
REMARK                            x       y       z     vdW  Elec       q    Type
REMARK                         _______ _______ _______ _____ _____    ______ ____
ROOT
ATOM      1  N   UNL     1      -0.112   5.523  -0.031  0.00  0.00    -0.346 N 
ATOM      2  C   UNL     1       1.003   6.265  -0.049  0.00  0.00    +0.103 A 
ATOM      3  C   UNL     1       2.261   5.700  -0.059  0.00  0.00    +0.100 A 
ATOM      4  C   UNL     1       2.384   4.234  -0.051  0.00  0.00    +0.202 A 
ATOM      5  O   UNL     1       3.473   3.687  -0.060  0.00  0.00    -0.286 OA
ATOM      6  C   UNL     1       1.135   3.454  -0.032  0.00  0.00    +0.049 A 
ATOM      7  C   UNL     1      -0.091   4.144  -0.023  0.00  0.00    +0.055 A 
ATOM      8  C   UNL     1      -1.277   3.421  -0.004  0.00  0.00    +0.052 A 
ATOM      9  C   UNL     1      -1.239   2.036  -0.002  0.00  0.00    +0.067 A 
ATOM     10  C   UNL     1      -0.017   1.359  -0.006  0.00  0.00    +0.145 A 
ATOM     11  C   UNL     1       1.157   2.057  -0.024  0.00  0.00    +0.054 A 
ATOM     12  F   UNL     1       0.004   0.008   0.002  0.00  0.00    -0.204 F 
ENDROOT
BRANCH   9  13
ATOM     13  N   UNL     1      -2.429   1.312   0.010  0.00  0.00    -0.325 N 
ATOM     14  C   UNL     1      -3.196   1.539  -1.222  0.00  0.00    +0.124 C 
ATOM     15  C   UNL     1      -4.402   0.593  -1.251  0.00  0.00    +0.126 C 
ATOM     16  N   UNL     1      -5.162   0.767  -0.004  0.00  0.00    -0.299 N 
ATOM     17  C   UNL     1      -4.434   0.690   1.272  0.00  0.00    +0.126 C 
ATOM     18  C   UNL     1      -3.227   1.632   1.201  0.00  0.00    +0.124 C 
ATOM     19  C   UNL     1      -6.491   0.992  -0.029  0.00  0.00    +0.213 C 
ATOM     20  O   UNL     1      -7.058   1.153  -1.089  0.00  0.00    -0.276 OA
ATOM     21  C   UNL     1      -7.271   1.042   1.259  0.00  0.00    +0.109 C 
ENDBRANCH   9  13
BRANCH   3  22
ATOM     22  C   UNL     1       3.462   6.550  -0.078  0.00  0.00    +0.249 C 
ATOM     23  O   UNL     1       4.567   6.042  -0.087  0.00  0.00    -0.270 OA
ATOM     24  N   UNL     1       3.338   7.892  -0.086  0.00  0.00    -0.308 N 
ATOM     25  H   UNL     1       2.456   8.298  -0.078  0.00  0.00    +0.149 HD
BRANCH  24  26
ATOM     26  C   UNL     1       4.533   8.739  -0.104  0.00  0.00    +0.076 C 
ATOM     27  C   UNL     1       5.038   8.940   1.326  0.00  0.00    +0.028 C 
BRANCH  26  28
ATOM     28  C   UNL     1       4.188  10.096  -0.719  0.00  0.00    -0.010 C 
ATOM     29  C   UNL     1       3.098  10.772   0.116  0.00  0.00    +0.012 C 
ATOM     30  C   UNL     1       2.752  12.129  -0.498  0.00  0.00    -0.010 C 
ATOM     31  C   UNL     1       4.001  13.013  -0.518  0.00  0.00    +0.007 C 
ATOM     32  C   UNL     1       5.090  12.338  -1.353  0.00  0.00    -0.010 C 
ATOM     33  C   UNL     1       5.436  10.980  -0.738  0.00  0.00    +0.012 C 
ATOM     34  C   UNL     1       4.586  12.137  -2.783  0.00  0.00    +0.007 C 
ATOM     35  C   UNL     1       3.337  11.253  -2.764  0.00  0.00    -0.010 C 
ATOM     36  C   UNL     1       2.247  11.928  -1.929  0.00  0.00    +0.007 C 
ATOM     37  C   UNL     1       3.683   9.895  -2.149  0.00  0.00    +0.012 C 
ENDBRANCH  26  28
ENDBRANCH  24  26
ENDBRANCH   3  22
BRANCH   1  39
ATOM     38  C   UNL     1      -1.902   6.341   1.422  0.00  0.00    +0.027 C 
ATOM     39  C   UNL     1      -1.409   6.205  -0.020  0.00  0.00    +0.118 C 
ENDBRANCH   1  39
TORSDOF 5
