REMARK  Name = ZINC09387030
REMARK  10 active torsions:
REMARK  status: ('A' for Active; 'I' for Inactive)
REMARK    1  A    between atoms: C_1  and  C_2
REMARK    2  A    between atoms: C_2  and  C_4
REMARK    3  A    between atoms: C_2  and  N_11
REMARK    4  A    between atoms: C_12  and  C_14
REMARK    5  A    between atoms: C_14  and  C_16
REMARK    6  A    between atoms: C_14  and  N_21
REMARK    7  A    between atoms: C_16  and  C_17
REMARK    8  A    between atoms: C_17  and  C_18
REMARK    9  A    between atoms: N_21  and  S_22
REMARK   10  A    between atoms: S_22  and  C_25
REMARK                            x       y       z     vdW  Elec       q    Type
REMARK                         _______ _______ _______ _____ _____    ______ ____
ROOT
ATOM      1  C   UNL     1      -0.063   8.434  -2.279  0.00  0.00    +0.162 C 
ENDROOT
BRANCH   1   3
ATOM      2  N   UNL     1      -1.141   8.560  -4.501  0.00  0.00    -0.307 N 
ATOM      3  C   UNL     1      -0.136   8.951  -3.692  0.00  0.00    +0.232 C 
ATOM      4  O   UNL     1       0.709   9.718  -4.102  0.00  0.00    -0.274 OA
ATOM      5  H   UNL     1      -1.817   7.946  -4.174  0.00  0.00    +0.149 HD
BRANCH   2   7
ATOM      6  C   UNL     1      -0.406   8.143  -6.797  0.00  0.00    +0.033 C 
ATOM      7  C   UNL     1      -1.212   9.062  -5.876  0.00  0.00    +0.102 C 
BRANCH   7   8
ATOM      8  C   UNL     1      -2.649   9.090  -6.327  0.00  0.00    -0.009 A 
ATOM      9  C   UNL     1      -3.563   8.210  -5.778  0.00  0.00    +0.007 A 
ATOM     10  C   UNL     1      -4.883   8.239  -6.189  0.00  0.00    +0.000 A 
ATOM     11  C   UNL     1      -5.288   9.142  -7.154  0.00  0.00    +0.001 A 
ATOM     12  C   UNL     1      -4.374  10.019  -7.707  0.00  0.00    +0.020 A 
ATOM     13  C   UNL     1      -3.054   9.994  -7.293  0.00  0.00    +0.046 A 
ATOM     14 CL   UNL     1      -1.905  11.095  -7.987  0.00  0.00    -0.083 Cl
ENDBRANCH   7   8
ENDBRANCH   2   7
ENDBRANCH   1   3
BRANCH   1  15
ATOM     15  N   UNL     1       1.111   9.003  -1.611  0.00  0.00    -0.178 NA
ATOM     16  H   UNL     1       1.979   8.584  -1.718  0.00  0.00    +0.149 HD
BRANCH  15  17
ATOM     17  S   UNL     1       0.955  10.359  -0.674  0.00  0.00    +0.059 S 
ATOM     18  O   UNL     1       0.254  11.315  -1.457  0.00  0.00    -0.153 OA
ATOM     19  O   UNL     1       2.237  10.620  -0.120  0.00  0.00    -0.153 OA
BRANCH  17  20
ATOM     20  C   UNL     1      -0.100   9.942   0.674  0.00  0.00    +0.106 A 
ATOM     21  C   UNL     1       0.441   9.336   1.807  0.00  0.00    +0.029 A 
ATOM     22  C   UNL     1      -0.346   9.001   2.866  0.00  0.00    +0.010 A 
ATOM     23  C   UNL     1      -1.725   9.269   2.820  0.00  0.00    -0.018 A 
ATOM     24  C   UNL     1      -2.570   8.937   3.893  0.00  0.00    +0.008 A 
ATOM     25  C   UNL     1      -3.900   9.211   3.813  0.00  0.00    +0.001 A 
ATOM     26  C   UNL     1      -4.442   9.811   2.678  0.00  0.00    +0.001 A 
ATOM     27  C   UNL     1      -3.654  10.152   1.621  0.00  0.00    +0.008 A 
ATOM     28  C   UNL     1      -2.275   9.884   1.668  0.00  0.00    -0.016 A 
ATOM     29  C   UNL     1      -1.431  10.216   0.594  0.00  0.00    +0.037 A 
ENDBRANCH  17  20
ENDBRANCH  15  17
ENDBRANCH   1  15
BRANCH   1  30
ATOM     30  C   UNL     1       0.050   6.909  -2.298  0.00  0.00    +0.039 C 
BRANCH  30  31
ATOM     31  C   UNL     1      -0.009   6.374  -0.866  0.00  0.00    +0.097 C 
BRANCH  31  32
ATOM     32  C   UNL     1       0.206   4.883  -0.876  0.00  0.00    +0.211 C 
ATOM     33  O   UNL     1       0.483   4.318  -1.913  0.00  0.00    -0.276 OA
ATOM     34  N   UNL     1       0.091   4.177   0.266  0.00  0.00    -0.329 N 
ATOM     35  H   UNL     1      -0.205   4.615   1.079  0.00  0.00    +0.145 HD
ATOM     36  H   UNL     1       0.304   3.231   0.275  0.00  0.00    +0.145 HD
ENDBRANCH  31  32
ENDBRANCH  30  31
ENDBRANCH   1  30
TORSDOF 9
