REMARK  Name = ZINC16739985
REMARK  15 active torsions:
REMARK  status: ('A' for Active; 'I' for Inactive)
REMARK    1  A    between atoms: C_1  and  C_2
REMARK    2  A    between atoms: C_8  and  S_10
REMARK    3  A    between atoms: S_10  and  C_11
REMARK    4  A    between atoms: C_11  and  C_13
REMARK    5  A    between atoms: C_11  and  C_14
REMARK    6  A    between atoms: C_14  and  C_16
REMARK    7  A    between atoms: C_18  and  C_27
REMARK    8  A    between atoms: C_19  and  O_26
REMARK    9  A    between atoms: C_20  and  C_22
REMARK   10  A    between atoms: C_22  and  C_23
REMARK   11  A    between atoms: C_22  and  C_24
REMARK   12  A    between atoms: C_22  and  C_25
REMARK   13  A    between atoms: C_27  and  C_28
REMARK   14  A    between atoms: C_27  and  C_29
REMARK   15  A    between atoms: C_27  and  C_30
REMARK                            x       y       z     vdW  Elec       q    Type
REMARK                         _______ _______ _______ _____ _____    ______ ____
ROOT
ATOM      1  C   UNL     1       1.801  -0.155   3.481  0.00  0.00    +0.019 A 
ATOM      2  C   UNL     1       1.325   0.174   4.756  0.00  0.00    +0.019 A 
ATOM      3  C   UNL     1       0.200   0.947   4.887  0.00  0.00    +0.000 A 
ATOM      4  C   UNL     1      -0.465   1.408   3.757  0.00  0.00    +0.124 A 
ATOM      5  C   UNL     1       0.000   1.080   2.488  0.00  0.00    +0.000 A 
ATOM      6  C   UNL     1       1.124   0.308   2.346  0.00  0.00    +0.019 A 
ENDROOT
BRANCH   5   7
ATOM      7  C   UNL     1      -0.729   1.579   1.267  0.00  0.00    -0.009 C 
ATOM      8  C   UNL     1      -0.013   1.086   0.008  0.00  0.00    +0.015 C 
ATOM      9  C   UNL     1      -0.750   3.109   1.275  0.00  0.00    +0.015 C 
ATOM     10  C   UNL     1      -2.164   1.050   1.278  0.00  0.00    +0.015 C 
ENDBRANCH   5   7
BRANCH   3  11
ATOM     11  C   UNL     1      -0.313   1.302   6.259  0.00  0.00    -0.009 C 
ATOM     12  C   UNL     1       0.596   0.680   7.321  0.00  0.00    +0.015 C 
ATOM     13  C   UNL     1      -0.321   2.823   6.423  0.00  0.00    +0.015 C 
ATOM     14  C   UNL     1      -1.735   0.764   6.427  0.00  0.00    +0.015 C 
ENDBRANCH   3  11
BRANCH   1  15
ATOM     15  C   UNL     1       3.005  -0.983   3.335  0.00  0.00    +0.176 C 
ATOM     16  O   UNL     1       3.415  -1.267   2.229  0.00  0.00    -0.291 OA
BRANCH  15  17
ATOM     17  C   UNL     1       3.731  -1.480   4.558  0.00  0.00    +0.122 C 
ATOM     18  C   UNL     1       4.707  -0.406   5.043  0.00  0.00    +0.028 C 
BRANCH  17  19
ATOM     19  S   UNL     1       4.647  -2.985   4.146  0.00  0.00    -0.077 S 
BRANCH  19  27
ATOM     20  C   UNL     1       5.040  -2.060   9.161  0.00  0.00    +0.066 C 
ATOM     21  C   UNL     1       5.398  -2.951   8.000  0.00  0.00    +0.046 A 
ATOM     22  C   UNL     1       6.173  -4.056   8.203  0.00  0.00    +0.093 A 
ATOM     23  C   UNL     1       6.494  -4.873   7.105  0.00  0.00    +0.252 A 
ATOM     24  O   UNL     1       7.184  -5.869   7.251  0.00  0.00    -0.268 OA
ATOM     25  N   UNL     1       6.024  -4.535   5.885  0.00  0.00    -0.302 N 
ATOM     26  H   UNL     1       6.233  -5.084   5.113  0.00  0.00    +0.171 HD
ATOM     27  C   UNL     1       5.256  -3.419   5.742  0.00  0.00    +0.170 A 
ATOM     28  N   UNL     1       4.964  -2.656   6.777  0.00  0.00    -0.228 NA
ENDBRANCH  19  27
ENDBRANCH  17  19
ENDBRANCH  15  17
ENDBRANCH   1  15
BRANCH   4  29
ATOM     29  O   UNL     1      -1.575   2.177   3.892  0.00  0.00    -0.506 OA
ATOM     30  H   UNL     1      -2.399   1.673   3.934  0.00  0.00    +0.292 HD
ENDBRANCH   4  29
TORSDOF 7
