REMARK  Name = ZINC39686576
REMARK  9 active torsions:
REMARK  status: ('A' for Active; 'I' for Inactive)
REMARK    1  A    between atoms: C_1  and  C_2
REMARK    2  A    between atoms: C_6  and  C_9
REMARK    3  A    between atoms: C_13  and  C_22
REMARK    4  A    between atoms: N_24  and  C_25
REMARK    5  A    between atoms: C_25  and  C_27
REMARK    6  A    between atoms: C_25  and  C_28
REMARK    7  A    between atoms: C_28  and  C_29
REMARK    8  A    between atoms: C_34  and  O_35
REMARK    9  A    between atoms: O_35  and  C_36
REMARK                            x       y       z     vdW  Elec       q    Type
REMARK                         _______ _______ _______ _____ _____    ______ ____
ROOT
ATOM      1  C   UNL     1       0.086  -2.896   2.597  0.00  0.00    +0.251 C 
ATOM      2  O   UNL     1       1.130  -3.248   3.110  0.00  0.00    -0.270 OA
ATOM      3  N   UNL     1      -1.090  -3.268   3.141  0.00  0.00    -0.296 N 
ATOM      4  C   UNL     1      -2.455  -2.946   2.660  0.00  0.00    +0.121 C 
ATOM      5  C   UNL     1      -3.264  -4.243   2.883  0.00  0.00    +0.100 C 
ATOM      6  C   UNL     1      -2.509  -4.989   3.997  0.00  0.00    -0.004 C 
ATOM      7  C   UNL     1      -1.311  -4.096   4.351  0.00  0.00    +0.115 C 
ATOM      8  C   UNL     1      -3.410  -5.172   5.214  0.00  0.00    -0.010 C 
ATOM      9  C   UNL     1      -2.658  -5.967   6.285  0.00  0.00    -0.082 C 
ATOM     10  N   UNL     1      -2.264  -7.272   5.742  0.00  0.00    +0.379 N 
ATOM     11  C   UNL     1      -1.324  -7.089   4.630  0.00  0.00    -0.082 C 
ATOM     12  C   UNL     1      -2.020  -6.342   3.489  0.00  0.00    -0.010 C 
ATOM     13  H   UNL     1      -1.823  -7.818   6.468  0.00  0.00    -0.086 HD
ATOM     14  H   UNL     1      -3.084  -7.759   5.412  0.00  0.00    -0.086 HD
ENDROOT
BRANCH   1  20
ATOM     15  C   UNL     1       0.143   1.609   0.444  0.00  0.00    +0.047 C 
ATOM     16  C   UNL     1       0.133   0.106   0.337  0.00  0.00    -0.014 A 
ATOM     17  C   UNL     1       0.142  -0.496  -0.908  0.00  0.00    +0.007 A 
ATOM     18  C   UNL     1       0.132  -1.875  -1.017  0.00  0.00    +0.021 A 
ATOM     19  C   UNL     1       0.114  -2.662   0.117  0.00  0.00    +0.056 A 
ATOM     20  C   UNL     1       0.105  -2.062   1.379  0.00  0.00    +0.091 A 
ATOM     21  C   UNL     1       0.120  -0.667   1.483  0.00  0.00    +0.140 A 
ATOM     22  F   UNL     1       0.117  -0.077   2.698  0.00  0.00    -0.204 F 
ATOM     23 CL   UNL     1       0.102  -4.392  -0.024  0.00  0.00    -0.083 Cl
ENDBRANCH   1  20
BRANCH   5  24
ATOM     24  C   UNL     1      -4.667  -3.917   3.324  0.00  0.00    +0.218 C 
ATOM     25  O   UNL     1      -4.881  -2.918   3.977  0.00  0.00    -0.275 OA
ATOM     26  N   UNL     1      -5.685  -4.737   2.993  0.00  0.00    -0.312 N 
ATOM     27  H   UNL     1      -5.513  -5.537   2.472  0.00  0.00    +0.149 HD
BRANCH  26  28
ATOM     28  C   UNL     1      -7.049  -4.420   3.422  0.00  0.00    +0.074 C 
ATOM     29  C   UNL     1      -7.275  -4.952   4.839  0.00  0.00    +0.028 C 
BRANCH  28  30
ATOM     30  C   UNL     1      -8.049  -5.075   2.466  0.00  0.00    +0.060 C 
BRANCH  30  31
ATOM     31  C   UNL     1      -7.909  -4.463   1.096  0.00  0.00    -0.004 A 
ATOM     32  C   UNL     1      -8.729  -3.416   0.720  0.00  0.00    +0.007 A 
ATOM     33  C   UNL     1      -8.602  -2.854  -0.537  0.00  0.00    +0.000 A 
ATOM     34  C   UNL     1      -7.653  -3.337  -1.420  0.00  0.00    +0.004 A 
ATOM     35  C   UNL     1      -6.831  -4.383  -1.048  0.00  0.00    +0.046 A 
ATOM     36  C   UNL     1      -6.953  -4.945   0.215  0.00  0.00    +0.123 A 
BRANCH  36  37
ATOM     37  O   UNL     1      -6.141  -5.970   0.585  0.00  0.00    -0.495 OA
ATOM     38  C   UNL     1      -5.180  -6.415  -0.374  0.00  0.00    +0.277 C 
ENDBRANCH  36  37
ENDBRANCH  30  31
ENDBRANCH  28  30
ENDBRANCH  26  28
ENDBRANCH   5  24
TORSDOF 6
