REMARK  Name = ZINC60093088
REMARK  12 active torsions:
REMARK  status: ('A' for Active; 'I' for Inactive)
REMARK    1  A    between atoms: C_1  and  C_2
REMARK    2  A    between atoms: C_2  and  C_4
REMARK    3  A    between atoms: C_2  and  C_25
REMARK    4  A    between atoms: C_4  and  N_5
REMARK    5  A    between atoms: C_6  and  C_8
REMARK    6  A    between atoms: C_8  and  C_10
REMARK    7  A    between atoms: C_8  and  N_14
REMARK    8  A    between atoms: C_10  and  C_11
REMARK    9  A    between atoms: C_11  and  C_12
REMARK   10  A    between atoms: C_11  and  C_13
REMARK   11  A    between atoms: C_15  and  C_17
REMARK   12  A    between atoms: C_25  and  N_26
REMARK                            x       y       z     vdW  Elec       q    Type
REMARK                         _______ _______ _______ _____ _____    ______ ____
ROOT
ATOM      1  C   UNL     1       4.464  -0.044   2.143  0.00  0.00    +0.159 C 
ENDROOT
BRANCH   1   3
ATOM      2  N   UNL     1       2.200   0.745   1.535  0.00  0.00    -0.314 N 
ATOM      3  C   UNL     1       2.964  -0.069   2.289  0.00  0.00    +0.233 C 
ATOM      4  O   UNL     1       2.446  -0.822   3.086  0.00  0.00    -0.274 OA
ATOM      5  H   UNL     1       2.616   1.380   0.932  0.00  0.00    +0.149 HD
BRANCH   2   6
ATOM      6  C   UNL     1       0.739   0.670   1.626  0.00  0.00    +0.105 C 
BRANCH   6   8
ATOM      7  C   UNL     1       0.479   3.106   1.135  0.00  0.00    +0.007 C 
ATOM      8  C   UNL     1       0.116   1.693   0.674  0.00  0.00    -0.014 C 
BRANCH   8   9
ATOM      9  C   UNL     1      -1.405   1.530   0.676  0.00  0.00    -0.074 C 
BRANCH   9  10
ATOM     10  N   UNL     1      -1.995   2.429  -0.326  0.00  0.00    +0.380 N 
ATOM     11  C   UNL     1      -1.638   1.975  -1.694  0.00  0.00    -0.079 C 
ATOM     12  C   UNL     1      -2.735   2.620  -2.579  0.00  0.00    -0.020 C 
ATOM     13  C   UNL     1      -3.999   2.514  -1.695  0.00  0.00    -0.020 C 
ATOM     14  C   UNL     1      -3.471   2.373  -0.255  0.00  0.00    -0.079 C 
ATOM     15  H   UNL     1      -1.675   3.374  -0.177  0.00  0.00    -0.082 HD
ENDBRANCH   9  10
ENDBRANCH   8   9
ENDBRANCH   6   8
ENDBRANCH   2   6
ENDBRANCH   1   3
BRANCH   1  16
ATOM     16  N   UNL     1       5.076  -0.778   3.253  0.00  0.00    -0.300 N 
ATOM     17  C   UNL     1       6.358  -0.541   3.592  0.00  0.00    +0.246 C 
ATOM     18  O   UNL     1       6.981   0.342   3.035  0.00  0.00    -0.270 OA
ATOM     19  H   UNL     1       4.557  -1.435   3.744  0.00  0.00    +0.150 HD
BRANCH  17  20
ATOM     20  C   UNL     1       7.008  -1.355   4.640  0.00  0.00    +0.055 A 
ATOM     21  C   UNL     1       6.297  -2.374   5.277  0.00  0.00    +0.016 A 
ATOM     22  C   UNL     1       6.908  -3.131   6.254  0.00  0.00    +0.021 A 
ATOM     23  C   UNL     1       8.225  -2.881   6.606  0.00  0.00    +0.042 A 
ATOM     24  C   UNL     1       8.936  -1.873   5.979  0.00  0.00    +0.040 A 
ATOM     25  C   UNL     1       8.337  -1.112   4.994  0.00  0.00    +0.054 A 
ATOM     26 CL   UNL     1       9.232   0.148   4.203  0.00  0.00    -0.083 Cl
ATOM     27 CL   UNL     1       8.987  -3.838   7.838  0.00  0.00    -0.083 Cl
ENDBRANCH  17  20
ENDBRANCH   1  16
BRANCH   1  28
ATOM     28  C   UNL     1       4.858  -0.701   0.818  0.00  0.00    +0.034 C 
BRANCH  28  29
ATOM     29  C   UNL     1       4.248   0.087  -0.343  0.00  0.00    -0.015 C 
ATOM     30  C   UNL     1       4.883   1.477  -0.406  0.00  0.00    +0.007 C 
ATOM     31  C   UNL     1       4.511  -0.654  -1.656  0.00  0.00    +0.007 C 
ENDBRANCH  28  29
ENDBRANCH   1  28
TORSDOF 9
