REMARK  Name = ZINC05854524
REMARK  11 active torsions:
REMARK  status: ('A' for Active; 'I' for Inactive)
REMARK    1  A    between atoms: C_1  and  C_2
REMARK    2  A    between atoms: C_2  and  C_28
REMARK    3  A    between atoms: C_3  and  C_4
REMARK    4  A    between atoms: C_4  and  C_5
REMARK    5  A    between atoms: C_6  and  O_26
REMARK    6  A    between atoms: C_10  and  O_11
REMARK    7  A    between atoms: O_11  and  C_12
REMARK    8  A    between atoms: C_14  and  C_18
REMARK    9  A    between atoms: C_21  and  O_25
REMARK   10  A    between atoms: C_23  and  O_24
REMARK   11  A    between atoms: O_26  and  C_27
REMARK                            x       y       z     vdW  Elec       q    Type
REMARK                         _______ _______ _______ _____ _____    ______ ____
ROOT
ATOM      1  C   UNL     1       5.719   6.876  -1.688  0.00  0.00    +0.040 A 
ATOM      2  C   UNL     1       6.573   6.896  -0.595  0.00  0.00    +0.131 A 
ATOM      3  C   UNL     1       6.366   6.024   0.460  0.00  0.00    +0.092 A 
ATOM      4  C   UNL     1       5.303   5.127   0.430  0.00  0.00    +0.131 A 
ATOM      5  C   UNL     1       4.449   5.109  -0.658  0.00  0.00    +0.037 A 
ATOM      6  C   UNL     1       4.660   5.984  -1.718  0.00  0.00    +0.134 A 
ATOM      7  C   UNL     1       3.283   4.156  -0.727  0.00  0.00    +0.054 C 
ATOM      8  C   UNL     1       3.485   3.021   0.280  0.00  0.00    +0.065 C 
ATOM      9  C   UNL     1       3.874   3.637   1.630  0.00  0.00    +0.237 C 
ATOM     10  O   UNL     1       5.140   4.282   1.481  0.00  0.00    -0.491 OA
ENDROOT
BRANCH   8  11
ATOM     11  C   UNL     1       2.204   2.240   0.429  0.00  0.00    +0.001 A 
ATOM     12  C   UNL     1       1.057   2.873   0.869  0.00  0.00    +0.011 A 
ATOM     13  C   UNL     1      -0.119   2.161   1.007  0.00  0.00    +0.046 A 
ATOM     14  C   UNL     1      -0.152   0.808   0.698  0.00  0.00    +0.120 A 
ATOM     15  C   UNL     1       0.999   0.170   0.262  0.00  0.00    +0.091 A 
ATOM     16  C   UNL     1       2.177   0.887   0.124  0.00  0.00    +0.124 A 
BRANCH  16  17
ATOM     17  O   UNL     1       3.305   0.265  -0.309  0.00  0.00    -0.506 OA
ATOM     18  H   UNL     1       3.417   0.278  -1.270  0.00  0.00    +0.292 HD
ENDBRANCH  16  17
BRANCH  14  19
ATOM     19  O   UNL     1      -1.310   0.109   0.828  0.00  0.00    -0.507 OA
ATOM     20  H   UNL     1      -1.435  -0.286   1.701  0.00  0.00    +0.292 HD
ENDBRANCH  14  19
ENDBRANCH   8  11
BRANCH   6  21
ATOM     21  O   UNL     1       3.822   5.964  -2.788  0.00  0.00    -0.494 OA
ATOM     22  C   UNL     1       2.679   6.819  -2.733  0.00  0.00    +0.277 C 
ENDBRANCH   6  21
BRANCH   2  23
ATOM     23  O   UNL     1       7.613   7.771  -0.561  0.00  0.00    -0.495 OA
ATOM     24  C   UNL     1       8.452   7.735   0.595  0.00  0.00    +0.277 C 
ENDBRANCH   2  23
BRANCH   1  25
ATOM     25  C   UNL     1       5.943   7.822  -2.839  0.00  0.00    +0.069 C 
BRANCH  25  28
ATOM     26  C   UNL     1       8.208   9.199  -3.802  0.00  0.00    +0.038 C 
ATOM     27  C   UNL     1       7.934   7.787  -4.252  0.00  0.00    -0.079 C 
ATOM     28  C   UNL     1       6.848   7.172  -3.854  0.00  0.00    -0.023 C 
ATOM     29  C   UNL     1       8.910   7.082  -5.159  0.00  0.00    +0.038 C 
ENDBRANCH  25  28
ENDBRANCH   1  25
TORSDOF 7
