REMARK  Name = ZINC20058116
REMARK  12 active torsions:
REMARK  status: ('A' for Active; 'I' for Inactive)
REMARK    1  A    between atoms: C_1  and  C_2
REMARK    2  A    between atoms: C_2  and  C_3
REMARK    3  A    between atoms: C_2  and  O_4
REMARK    4  A    between atoms: O_4  and  C_5
REMARK    5  A    between atoms: C_8  and  C_11
REMARK    6  A    between atoms: C_20  and  C_28
REMARK    7  A    between atoms: C_21  and  N_27
REMARK    8  A    between atoms: C_22  and  C_23
REMARK    9  A    between atoms: C_22  and  C_25
REMARK   10  A    between atoms: C_30  and  O_32
REMARK   11  A    between atoms: O_32  and  C_33
REMARK   12  A    between atoms: C_33  and  C_34
REMARK                            x       y       z     vdW  Elec       q    Type
REMARK                         _______ _______ _______ _____ _____    ______ ____
ROOT
ATOM      1  C   UNL     1       0.055  -2.611  -3.667  0.00  0.00    +0.068 C 
ATOM      2  C   UNL     1       0.707  -2.858  -2.306  0.00  0.00    +0.048 C 
ATOM      3  C   UNL     1       1.660  -1.754  -1.928  0.00  0.00    +0.120 C 
ATOM      4  N   UNL     1       1.099  -0.893  -0.881  0.00  0.00    -0.263 N 
ATOM      5  C   UNL     1       0.589  -1.555   0.334  0.00  0.00    +0.138 C 
ATOM      6  C   UNL     1      -0.441  -2.563  -0.112  0.00  0.00    -0.003 C 
ATOM      7  C   UNL     1      -0.377  -3.122  -1.304  0.00  0.00    -0.026 C 
ATOM      8  C   UNL     1      -1.445  -4.074  -1.713  0.00  0.00    +0.074 C 
ATOM      9  C   UNL     1      -1.573  -4.404  -3.022  0.00  0.00    +0.054 C 
ATOM     10  C   UNL     1      -0.675  -3.882  -4.103  0.00  0.00    +0.188 C 
ATOM     11  C   UNL     1       1.046   0.446  -1.026  0.00  0.00    +0.403 C 
ATOM     12  O   UNL     1       1.474   0.965  -2.038  0.00  0.00    -0.226 OA
ENDROOT
BRANCH   1  16
ATOM     13  C   UNL     1       3.063  -1.631  -6.539  0.00  0.00    +0.121 A 
ATOM     14  C   UNL     1       1.888  -0.896  -6.486  0.00  0.00    +0.046 A 
ATOM     15  C   UNL     1       0.917  -1.215  -5.557  0.00  0.00    +0.007 A 
ATOM     16  C   UNL     1       1.116  -2.265  -4.680  0.00  0.00    -0.041 A 
ATOM     17  C   UNL     1       2.289  -2.995  -4.727  0.00  0.00    +0.007 A 
ATOM     18  C   UNL     1       3.261  -2.684  -5.658  0.00  0.00    +0.046 A 
BRANCH  13  19
ATOM     19  O   UNL     1       4.020  -1.319  -7.453  0.00  0.00    -0.489 OA
BRANCH  19  21
ATOM     20  C   UNL     1       4.012   1.071  -7.807  0.00  0.00    +0.051 C 
ATOM     21  C   UNL     1       3.701  -0.303  -8.405  0.00  0.00    +0.167 C 
ATOM     22  C   UNL     1       4.536  -0.509  -9.670  0.00  0.00    +0.051 C 
ENDBRANCH  19  21
ENDBRANCH  13  19
ENDBRANCH   1  16
BRANCH   9  23
ATOM     23  N   UNL     1      -2.577  -5.261  -3.376  0.00  0.00    -0.358 N 
ATOM     24  H   UNL     1      -2.708  -5.549  -4.430  0.00  0.00    +0.142 HD
ATOM     25  H   UNL     1      -3.254  -5.663  -2.608  0.00  0.00    +0.142 HD
ENDBRANCH   9  23
BRANCH  10  26
ATOM     26  C   UNL     1       0.319  -4.914  -4.441  0.00  0.00    +0.091 C 
ATOM     27  N   UNL     1       1.085  -5.710  -4.702  0.00  0.00    -0.194 NA
ENDBRANCH  10  26
BRANCH  10  28
ATOM     28  C   UNL     1      -1.483  -3.585  -5.297  0.00  0.00    +0.091 C 
ATOM     29  N   UNL     1      -2.107  -3.355  -6.218  0.00  0.00    -0.194 NA
ENDBRANCH  10  28
BRANCH   8  30
ATOM     30  C   UNL     1      -2.328  -4.635  -0.735  0.00  0.00    +0.101 C 
ATOM     31  N   UNL     1      -3.029  -5.080   0.041  0.00  0.00    -0.191 NA
ENDBRANCH   8  30
BRANCH  11  32
ATOM     32  O   UNL     1       0.520   1.208  -0.050  0.00  0.00    -0.445 OA
BRANCH  32  33
ATOM     33  C   UNL     1       0.496   2.643  -0.274  0.00  0.00    +0.269 C 
BRANCH  33  34
ATOM     34  C   UNL     1      -0.124   3.327   0.917  0.00  0.00    -0.010 A 
ATOM     35  C   UNL     1      -1.488   3.549   0.954  0.00  0.00    +0.007 A 
ATOM     36  C   UNL     1      -2.057   4.173   2.048  0.00  0.00    +0.000 A 
ATOM     37  C   UNL     1      -1.261   4.584   3.101  0.00  0.00    +0.000 A 
ATOM     38  C   UNL     1       0.103   4.367   3.062  0.00  0.00    +0.000 A 
ATOM     39  C   UNL     1       0.672   3.739   1.970  0.00  0.00    +0.007 A 
ENDBRANCH  33  34
ENDBRANCH  32  33
ENDBRANCH  11  32
TORSDOF 10
