REMARK  Name = ZINC54601041
REMARK  2 active torsions:
REMARK  status: ('A' for Active; 'I' for Inactive)
REMARK    1  A    between atoms: C_8  and  C_11
REMARK    2  A    between atoms: C_11  and  N_12
REMARK                            x       y       z     vdW  Elec       q    Type
REMARK                         _______ _______ _______ _____ _____    ______ ____
ROOT
ATOM      1  N   UNL     1       5.222  -3.192  -0.158  0.00  0.00    +0.386 N 
ATOM      2  C   UNL     1       5.305  -3.445  -1.596  0.00  0.00    -0.061 C 
ATOM      3  C   UNL     1       4.795  -4.845  -1.929  0.00  0.00    -0.015 C 
ATOM      4  C   UNL     1       5.615  -5.883  -1.156  0.00  0.00    -0.003 C 
ATOM      5  C   UNL     1       5.501  -5.584   0.342  0.00  0.00    -0.015 C 
ATOM      6  C   UNL     1       5.978  -4.176   0.616  0.00  0.00    -0.061 C 
ATOM      7  C   UNL     1       7.468  -4.087   0.282  0.00  0.00    +0.059 C 
ATOM      8  C   UNL     1       7.628  -4.193  -1.220  0.00  0.00    +0.130 C 
ATOM      9  O   UNL     1       8.424  -4.955  -1.714  0.00  0.00    -0.298 OA
ATOM     10  C   UNL     1       6.751  -3.306  -2.079  0.00  0.00    +0.059 C 
ATOM     11  H   UNL     1       5.589  -2.272   0.034  0.00  0.00    -0.081 HD
ENDROOT
BRANCH   1  12
ATOM     12  C   UNL     1       3.813  -3.240   0.254  0.00  0.00    -0.033 C 
BRANCH  12  20
ATOM     13  C   UNL     1      -0.017   1.379   0.010  0.00  0.00    +0.000 A 
ATOM     14  C   UNL     1       1.174   2.082   0.002  0.00  0.00    +0.004 A 
ATOM     15  C   UNL     1       2.379   1.411  -0.009  0.00  0.00    +0.046 A 
ATOM     16  C   UNL     1       2.407   0.019  -0.013  0.00  0.00    +0.124 A 
ATOM     17  C   UNL     1       1.204  -0.676  -0.013  0.00  0.00    -0.002 A 
ATOM     18  C   UNL     1       0.002  -0.004   0.002  0.00  0.00    +0.007 A 
ATOM     19  C   UNL     1       1.545  -2.154  -0.043  0.00  0.00    +0.081 C 
ATOM     20  C   UNL     1       3.035  -2.130  -0.457  0.00  0.00    +0.161 C 
ATOM     21  O   UNL     1       3.469  -0.834  -0.012  0.00  0.00    -0.490 OA
ENDBRANCH  12  20
ENDBRANCH   1  12
TORSDOF 2
