REMARK  Name = ZINC14989328
REMARK  4 active torsions:
REMARK  status: ('A' for Active; 'I' for Inactive)
REMARK    1  A    between atoms: C_8  and  N_55
REMARK    2  A    between atoms: C_10  and  N_55
REMARK    3  A    between atoms: N_21  and  C_24
REMARK    4  A    between atoms: C_24  and  C_25
REMARK                            x       y       z     vdW  Elec       q    Type
REMARK                         _______ _______ _______ _____ _____    ______ ____
ROOT
ATOM      1  C   UNL     1       5.286   0.641   0.335  0.00  0.00    -0.066 C 
ATOM      2  C   UNL     1       4.342  -0.232  -0.498  0.00  0.00    -0.011 C 
ATOM      3  C   UNL     1       2.901  -0.038  -0.024  0.00  0.00    +0.035 C 
ATOM      4  C   UNL     1       2.582   1.454  -0.013  0.00  0.00    -0.023 A 
ATOM      5  C   UNL     1       3.572   2.371  -0.019  0.00  0.00    -0.006 A 
ATOM      6  S   UNL     1       2.747   3.939  -0.005  0.00  0.00    -0.073 S 
ATOM      7  C   UNL     1       1.070   3.357   0.009  0.00  0.00    +0.116 A 
ATOM      8  C   UNL     1       1.210   1.960   0.001  0.00  0.00    +0.076 A 
ATOM      9  C   UNL     1      -0.015   1.215   0.009  0.00  0.00    +0.263 A 
ATOM     10  O   UNL     1       0.002  -0.004   0.002  0.00  0.00    -0.267 OA
ATOM     11  N   UNL     1      -1.183   1.883   0.018  0.00  0.00    -0.294 N 
ATOM     12  C   UNL     1      -1.220   3.240   0.030  0.00  0.00    +0.203 A 
ATOM     13  N   UNL     1      -0.122   3.947   0.023  0.00  0.00    -0.230 NA
ATOM     14  C   UNL     1       5.048   2.113  -0.033  0.00  0.00    +0.027 C 
ENDROOT
BRANCH   1  15
ATOM     15  N   UNL     1       6.682   0.274   0.033  0.00  0.00    +0.383 N 
ATOM     16  H   UNL     1       6.739  -0.738  -0.131  0.00  0.00    -0.085 HD
ATOM     17  H   UNL     1       6.989   0.774  -0.809  0.00  0.00    -0.085 HD
BRANCH  15  25
ATOM     18  C   UNL     1      12.049   1.479   2.489  0.00  0.00    +0.000 A 
ATOM     19  C   UNL     1      11.610   2.788   2.420  0.00  0.00    +0.000 A 
ATOM     20  C   UNL     1      10.341   3.065   1.950  0.00  0.00    +0.004 A 
ATOM     21  C   UNL     1       9.506   2.036   1.548  0.00  0.00    -0.046 A 
ATOM     22  C   UNL     1       9.945   0.727   1.617  0.00  0.00    -0.046 A 
ATOM     23  C   UNL     1      11.217   0.451   2.089  0.00  0.00    +0.004 A 
ATOM     24  C   UNL     1       8.857  -0.204   1.125  0.00  0.00    +0.020 C 
ATOM     25  C   UNL     1       7.562   0.634   1.161  0.00  0.00    -0.063 C 
ATOM     26  C   UNL     1       8.090   2.076   1.007  0.00  0.00    +0.020 C 
ENDBRANCH  15  25
ENDBRANCH   1  15
BRANCH  11  27
ATOM     27  C   UNL     1      -2.440   1.131   0.020  0.00  0.00    +0.164 C 
BRANCH  27  28
ATOM     28  C   UNL     1      -2.864   0.866   1.442  0.00  0.00    +0.008 A 
ATOM     29  C   UNL     1      -3.903   1.586   1.999  0.00  0.00    +0.008 A 
ATOM     30  C   UNL     1      -4.293   1.343   3.303  0.00  0.00    +0.000 A 
ATOM     31  C   UNL     1      -3.644   0.378   4.051  0.00  0.00    +0.003 A 
ATOM     32  C   UNL     1      -2.605  -0.344   3.495  0.00  0.00    +0.039 A 
ATOM     33  C   UNL     1      -2.216  -0.104   2.188  0.00  0.00    +0.128 A 
ATOM     34  F   UNL     1      -1.204  -0.813   1.643  0.00  0.00    -0.205 F 
ENDBRANCH  27  28
ENDBRANCH  11  27
TORSDOF 4
