REMARK  Name = ZINC63994281
REMARK  9 active torsions:
REMARK  status: ('A' for Active; 'I' for Inactive)
REMARK    1  A    between atoms: C_1  and  C_2
REMARK    2  A    between atoms: C_2  and  C_4
REMARK    3  A    between atoms: C_2  and  N_15
REMARK    4  A    between atoms: C_4  and  C_5
REMARK    5  A    between atoms: C_5  and  C_6
REMARK    6  A    between atoms: N_23  and  C_28
REMARK    7  A    between atoms: N_26  and  C_27
REMARK    8  A    between atoms: C_28  and  C_29
REMARK    9  A    between atoms: C_29  and  C_30
REMARK                            x       y       z     vdW  Elec       q    Type
REMARK                         _______ _______ _______ _____ _____    ______ ____
ROOT
ATOM      1  N   UNL     1       0.307  -0.740   1.091  0.00  0.00    +0.382 N 
ATOM      2  C   UNL     1       0.543  -2.189   1.092  0.00  0.00    -0.076 C 
ATOM      3  C   UNL     1       1.016  -2.631   2.480  0.00  0.00    +0.017 C 
ATOM      4  C   UNL     1       2.298  -1.886   2.836  0.00  0.00    +0.112 C 
ATOM      5  C   UNL     1       2.082  -0.378   2.742  0.00  0.00    +0.017 C 
ATOM      6  C   UNL     1       1.566  -0.028   1.343  0.00  0.00    -0.076 C 
ATOM      7  C   UNL     1       2.764  -2.268   4.221  0.00  0.00    +0.247 C 
ATOM      8  O   UNL     1       2.170  -2.109   5.266  0.00  0.00    -0.273 OA
ATOM      9  N   UNL     1       3.982  -2.824   4.050  0.00  0.00    -0.224 N 
ATOM     10  C   UNL     1       4.339  -2.842   2.760  0.00  0.00    +0.312 C 
ATOM     11  O   UNL     1       5.392  -3.294   2.357  0.00  0.00    -0.252 OA
ATOM     12  N   UNL     1       3.399  -2.304   1.959  0.00  0.00    -0.274 N 
ATOM     13  C   UNL     1       3.462  -2.164   0.502  0.00  0.00    +0.134 C 
ATOM     14  H   UNL     1      -0.358  -0.510   1.814  0.00  0.00    -0.081 HD
ENDROOT
BRANCH   1  16
ATOM     15  C   UNL     1       0.839  -0.536  -1.291  0.00  0.00    -0.013 C 
ATOM     16  C   UNL     1      -0.230  -0.333  -0.214  0.00  0.00    -0.071 C 
BRANCH  16  17
ATOM     17  C   UNL     1      -0.630   1.143  -0.164  0.00  0.00    -0.011 C 
BRANCH  17  18
ATOM     18  C   UNL     1      -1.762   1.330   0.848  0.00  0.00    +0.031 C 
BRANCH  18  19
ATOM     19  C   UNL     1      -2.244   2.757   0.803  0.00  0.00    -0.042 C 
ATOM     20  C   UNL     1      -3.291   3.240   0.095  0.00  0.00    -0.001 A 
ATOM     21  C   UNL     1      -4.255   2.606  -0.812  0.00  0.00    +0.010 A 
ATOM     22  C   UNL     1      -5.213   3.368  -1.387  0.00  0.00    +0.001 A 
ATOM     23  C   UNL     1      -5.308   4.744  -1.139  0.00  0.00    +0.002 A 
ATOM     24  C   UNL     1      -4.459   5.398  -0.318  0.00  0.00    +0.026 A 
ATOM     25  C   UNL     1      -3.413   4.695   0.341  0.00  0.00    +0.043 A 
ATOM     26  N   UNL     1      -2.478   5.096   1.169  0.00  0.00    -0.380 N 
ATOM     27  C   UNL     1      -1.661   3.938   1.547  0.00  0.00    +0.144 C 
ATOM     28  H   UNL     1      -2.351   6.005   1.482  0.00  0.00    +0.160 HD
ENDBRANCH  18  19
ENDBRANCH  17  18
ENDBRANCH  16  17
ENDBRANCH   1  16
BRANCH   9  29
ATOM     29  C   UNL     1       4.811  -3.343   5.141  0.00  0.00    +0.122 C 
BRANCH  29  30
ATOM     30  C   UNL     1       4.486  -4.820   5.371  0.00  0.00    +0.054 C 
BRANCH  30  31
ATOM     31  C   UNL     1       5.338  -5.354   6.493  0.00  0.00    -0.046 A 
ATOM     32  C   UNL     1       6.577  -5.902   6.219  0.00  0.00    +0.004 A 
ATOM     33  C   UNL     1       7.359  -6.391   7.249  0.00  0.00    +0.000 A 
ATOM     34  C   UNL     1       6.903  -6.332   8.552  0.00  0.00    +0.000 A 
ATOM     35  C   UNL     1       5.664  -5.783   8.826  0.00  0.00    +0.000 A 
ATOM     36  C   UNL     1       4.884  -5.290   7.797  0.00  0.00    +0.004 A 
ENDBRANCH  30  31
ENDBRANCH  29  30
ENDBRANCH   9  29
TORSDOF 7
