REMARK  Name = ZINC59850276
REMARK  11 active torsions:
REMARK  status: ('A' for Active; 'I' for Inactive)
REMARK    1  A    between atoms: C_1  and  C_2
REMARK    2  A    between atoms: C_2  and  O_3
REMARK    3  A    between atoms: O_3  and  C_4
REMARK    4  A    between atoms: N_6  and  C_7
REMARK    5  A    between atoms: C_7  and  C_9
REMARK    6  A    between atoms: C_7  and  C_13
REMARK    7  A    between atoms: C_9  and  C_10
REMARK    8  A    between atoms: C_10  and  C_11
REMARK    9  A    between atoms: C_10  and  C_12
REMARK   10  A    between atoms: C_13  and  N_14
REMARK   11  A    between atoms: C_15  and  C_17
REMARK                            x       y       z     vdW  Elec       q    Type
REMARK                         _______ _______ _______ _____ _____    ______ ____
ROOT
ATOM      1  N   UNL     1      -4.191  -3.584   1.874  0.00  0.00    -0.308 N 
ATOM      2  C   UNL     1      -5.314  -3.707   2.609  0.00  0.00    +0.262 C 
ATOM      3  O   UNL     1      -6.301  -4.233   2.128  0.00  0.00    -0.269 OA
ATOM      4  H   UNL     1      -3.405  -3.164   2.257  0.00  0.00    +0.149 HD
ENDROOT
BRANCH   2   5
ATOM      5  C   UNL     1      -5.348  -3.206   3.989  0.00  0.00    +0.121 A 
ATOM      6  C   UNL     1      -6.416  -3.276   4.828  0.00  0.00    +0.078 A 
ATOM      7  C   UNL     1      -6.037  -2.684   6.059  0.00  0.00    +0.020 A 
ATOM      8  C   UNL     1      -6.707  -2.473   7.271  0.00  0.00    +0.031 A 
ATOM      9  C   UNL     1      -6.063  -1.858   8.305  0.00  0.00    +0.042 A 
ATOM     10  C   UNL     1      -4.745  -1.437   8.167  0.00  0.00    +0.022 A 
ATOM     11  C   UNL     1      -4.066  -1.632   6.986  0.00  0.00    +0.028 A 
ATOM     12  C   UNL     1      -4.702  -2.258   5.917  0.00  0.00    +0.049 A 
ATOM     13  N   UNL     1      -4.296  -2.591   4.645  0.00  0.00    -0.349 N 
ATOM     14  H   UNL     1      -3.418  -2.421   4.270  0.00  0.00    +0.166 HD
ATOM     15 CL   UNL     1      -6.896  -1.598   9.806  0.00  0.00    -0.084 Cl
ATOM     16 CL   UNL     1      -7.965  -3.968   4.459  0.00  0.00    -0.081 Cl
ENDBRANCH   2   5
BRANCH   1  17
ATOM     17  C   UNL     1      -4.157  -4.084   0.498  0.00  0.00    +0.127 C 
BRANCH  17  18
ATOM     18  C   UNL     1      -2.776  -3.822  -0.107  0.00  0.00    +0.093 C 
BRANCH  18  21
ATOM     19  C   UNL     1      -1.173  -1.989  -0.034  0.00  0.00    +0.401 C 
ATOM     20  O   UNL     1      -0.276  -2.808  -0.068  0.00  0.00    -0.226 OA
ATOM     21  N   UNL     1      -2.457  -2.397   0.005  0.00  0.00    -0.277 N 
ATOM     22  H   UNL     1      -3.169  -1.746   0.107  0.00  0.00    +0.152 HD
BRANCH  19  23
ATOM     23  O   UNL     1      -0.884  -0.674  -0.034  0.00  0.00    -0.451 OA
BRANCH  23  25
ATOM     24  C   UNL     1       0.628   1.211  -0.071  0.00  0.00    +0.048 C 
ATOM     25  C   UNL     1       0.498  -0.313  -0.077  0.00  0.00    +0.230 C 
ENDBRANCH  23  25
ENDBRANCH  19  23
ENDBRANCH  18  21
BRANCH  18  26
ATOM     26  C   UNL     1      -2.779  -4.230  -1.581  0.00  0.00    +0.027 C 
BRANCH  26  27
ATOM     27  C   UNL     1      -2.968  -5.744  -1.691  0.00  0.00    -0.015 C 
ATOM     28  C   UNL     1      -3.100  -6.136  -3.164  0.00  0.00    +0.007 C 
ATOM     29  C   UNL     1      -1.758  -6.455  -1.081  0.00  0.00    +0.007 C 
ENDBRANCH  26  27
ENDBRANCH  18  26
ENDBRANCH  17  18
ENDBRANCH   1  17
TORSDOF 8
