REMARK  Name = ZINC35705138
REMARK  14 active torsions:
REMARK  status: ('A' for Active; 'I' for Inactive)
REMARK    1  A    between atoms: C_1  and  C_2
REMARK    2  A    between atoms: C_2  and  O_3
REMARK    3  A    between atoms: O_3  and  C_4
REMARK    4  A    between atoms: C_4  and  C_6
REMARK    5  A    between atoms: C_7  and  C_32
REMARK    6  A    between atoms: C_11  and  C_13
REMARK    7  A    between atoms: C_18  and  O_19
REMARK    8  A    between atoms: O_19  and  C_20
REMARK    9  A    between atoms: C_21  and  C_24
REMARK   10  A    between atoms: C_25  and  N_27
REMARK   11  A    between atoms: N_27  and  C_28
REMARK   12  A    between atoms: C_28  and  C_29
REMARK   13  A    between atoms: C_29  and  O_30
REMARK   14  A    between atoms: O_30  and  C_31
REMARK                            x       y       z     vdW  Elec       q    Type
REMARK                         _______ _______ _______ _____ _____    ______ ____
ROOT
ATOM      1  C   UNL     1       1.520  -2.258   2.657  0.00  0.00    +0.092 C 
ATOM      2  C   UNL     1       1.800  -3.575   2.969  0.00  0.00    +0.158 C 
ATOM      3  N   UNL     1       2.568  -3.869   4.005  0.00  0.00    -0.220 NA
ATOM      4  C   UNL     1       3.120  -2.982   4.808  0.00  0.00    +0.166 C 
ATOM      5  N   UNL     1       2.968  -1.631   4.670  0.00  0.00    -0.267 N 
ATOM      6  C   UNL     1       2.124  -1.182   3.531  0.00  0.00    +0.153 C 
ATOM      7  C   UNL     1       3.612  -0.831   5.593  0.00  0.00    +0.048 C 
ATOM      8  C   UNL     1       4.339  -1.442   6.554  0.00  0.00    +0.072 C 
ATOM      9  S   UNL     1       4.109  -3.163   6.151  0.00  0.00    -0.060 S 
ENDROOT
BRANCH   6  10
ATOM     10  C   UNL     1       0.998  -0.353   4.091  0.00  0.00    +0.020 A 
ATOM     11  C   UNL     1       0.449  -0.672   5.318  0.00  0.00    +0.009 A 
ATOM     12  C   UNL     1      -0.585   0.088   5.833  0.00  0.00    +0.001 A 
ATOM     13  C   UNL     1      -1.071   1.170   5.122  0.00  0.00    +0.004 A 
ATOM     14  C   UNL     1      -0.525   1.494   3.895  0.00  0.00    +0.046 A 
ATOM     15  C   UNL     1       0.516   0.735   3.379  0.00  0.00    +0.125 A 
BRANCH  15  16
ATOM     16  O   UNL     1       1.059   1.055   2.175  0.00  0.00    -0.495 OA
ATOM     17  C   UNL     1       0.586   2.248   1.546  0.00  0.00    +0.277 C 
ENDBRANCH  15  16
ENDBRANCH   6  10
BRANCH   2  18
ATOM     18  C   UNL     1       1.225  -4.683   2.125  0.00  0.00    +0.435 C 
ATOM     19  F   UNL     1       0.572  -4.134   1.016  0.00  0.00    -0.164 F 
ATOM     20  F   UNL     1       2.257  -5.521   1.691  0.00  0.00    -0.164 F 
ATOM     21  F   UNL     1       0.312  -5.422   2.884  0.00  0.00    -0.164 F 
ENDBRANCH   2  18
BRANCH   7  22
ATOM     22  C   UNL     1       3.512   0.634   5.532  0.00  0.00    +0.091 C 
ATOM     23  C   UNL     1       4.256   1.396   6.356  0.00  0.00    +0.239 C 
ATOM     24  O   UNL     1       5.187   0.819   7.155  0.00  0.00    -0.271 OA
BRANCH  23  25
ATOM     25  N   UNL     1       4.070   2.768   6.388  0.00  0.00    -0.310 N 
ATOM     26  H   UNL     1       3.404   3.180   5.817  0.00  0.00    +0.149 HD
BRANCH  25  27
ATOM     27  C   UNL     1       4.880   3.596   7.285  0.00  0.00    +0.132 C 
BRANCH  27  28
ATOM     28  C   UNL     1       4.478   5.063   7.126  0.00  0.00    +0.178 C 
BRANCH  28  29
ATOM     29  O   UNL     1       3.129   5.238   7.565  0.00  0.00    -0.381 OA
ATOM     30  C   UNL     1       2.652   6.581   7.457  0.00  0.00    +0.194 C 
ENDBRANCH  28  29
ENDBRANCH  27  28
ENDBRANCH  25  27
ENDBRANCH  23  25
ENDBRANCH   7  22
BRANCH   1  31
ATOM     31  C   UNL     1       0.708  -1.931   1.564  0.00  0.00    +0.339 C 
ATOM     32  O   UNL     1       1.214  -1.550   0.522  0.00  0.00    -0.245 OA
BRANCH  31  33
ATOM     33  O   UNL     1      -0.635  -2.038   1.664  0.00  0.00    -0.462 OA
BRANCH  33  35
ATOM     34  C   UNL     1      -2.888  -1.836   0.813  0.00  0.00    +0.048 C 
ATOM     35  C   UNL     1      -1.396  -1.789   0.480  0.00  0.00    +0.229 C 
ENDBRANCH  33  35
ENDBRANCH  31  33
ENDBRANCH   1  31
TORSDOF 11
