REMARK  Name = ZINC09422436
REMARK  4 active torsions:
REMARK  status: ('A' for Active; 'I' for Inactive)
REMARK    1  A    between atoms: C_7  and  C_11
REMARK    2  A    between atoms: N_15  and  N_19
REMARK    3  A    between atoms: C_20  and  C_22
REMARK    4  A    between atoms: C_27  and  O_28
REMARK                            x       y       z     vdW  Elec       q    Type
REMARK                         _______ _______ _______ _____ _____    ______ ____
ROOT
ATOM      1  C   UNL     1      -4.909   6.111   2.074  0.00  0.00    +0.029 C 
ATOM      2  C   UNL     1      -4.436   5.168   1.219  0.00  0.00    +0.079 C 
ATOM      3  C   UNL     1      -3.311   4.220   1.387  0.00  0.00    +0.275 C 
ATOM      4  O   UNL     1      -2.642   4.194   2.402  0.00  0.00    -0.267 OA
ATOM      5  N   UNL     1      -3.072   3.403   0.374  0.00  0.00    -0.169 N 
ATOM      6  C   UNL     1      -3.813   3.439  -0.751  0.00  0.00    +0.138 C 
ATOM      7  S   UNL     1      -3.655   2.477  -2.159  0.00  0.00    -0.026 S 
ATOM      8  S   UNL     1      -5.000   4.731  -0.420  0.00  0.00    -0.059 S 
ENDROOT
BRANCH   1  15
ATOM      9  C   UNL     1      -6.006   9.832   3.992  0.00  0.00    +0.001 A 
ATOM     10  C   UNL     1      -7.192  10.475   3.646  0.00  0.00    +0.002 A 
ATOM     11  C   UNL     1      -8.026   9.953   2.704  0.00  0.00    +0.028 A 
ATOM     12  C   UNL     1      -7.689   8.745   2.068  0.00  0.00    +0.072 A 
ATOM     13  C   UNL     1      -6.485   8.093   2.429  0.00  0.00    +0.008 A 
ATOM     14  C   UNL     1      -5.649   8.659   3.396  0.00  0.00    +0.010 A 
ATOM     15  C   UNL     1      -6.142   6.838   1.756  0.00  0.00    -0.013 A 
ATOM     16  C   UNL     1      -7.043   6.361   0.801  0.00  0.00    +0.028 A 
ATOM     17  C   UNL     1      -8.198   7.082   0.532  0.00  0.00    +0.112 A 
ATOM     18  N   UNL     1      -8.486   8.206   1.141  0.00  0.00    -0.255 NA
ENDBRANCH   1  15
BRANCH   5  19
ATOM     19  N   UNL     1      -2.020   2.482   0.472  0.00  0.00    -0.222 N 
ATOM     20  C   UNL     1      -2.284   1.178   0.688  0.00  0.00    +0.264 C 
ATOM     21  O   UNL     1      -3.434   0.801   0.797  0.00  0.00    -0.269 OA
ATOM     22  H   UNL     1      -1.102   2.784   0.385  0.00  0.00    +0.174 HD
BRANCH  20  23
ATOM     23  C   UNL     1      -1.177   0.209   0.790  0.00  0.00    +0.079 A 
ATOM     24  C   UNL     1       0.147   0.637   0.659  0.00  0.00    +0.017 A 
ATOM     25  C   UNL     1       1.176  -0.274   0.750  0.00  0.00    +0.001 A 
ATOM     26  C   UNL     1       0.905  -1.615   0.972  0.00  0.00    +0.004 A 
ATOM     27  C   UNL     1      -0.398  -2.051   1.103  0.00  0.00    +0.046 A 
ATOM     28  C   UNL     1      -1.446  -1.148   1.014  0.00  0.00    +0.129 A 
BRANCH  28  29
ATOM     29  O   UNL     1      -2.727  -1.576   1.143  0.00  0.00    -0.506 OA
ATOM     30  H   UNL     1      -3.141  -1.835   0.308  0.00  0.00    +0.292 HD
ENDBRANCH  28  29
ENDBRANCH  20  23
ENDBRANCH   5  19
TORSDOF 4
