REMARK  Name = ZINC10187194
REMARK  6 active torsions:
REMARK  status: ('A' for Active; 'I' for Inactive)
REMARK    1  A    between atoms: C_1  and  C_2
REMARK    2  A    between atoms: C_9  and  N_14
REMARK    3  A    between atoms: C_10  and  C_11
REMARK    4  A    between atoms: C_15  and  C_17
REMARK    5  A    between atoms: N_22  and  S_23
REMARK    6  A    between atoms: S_23  and  C_26
REMARK                            x       y       z     vdW  Elec       q    Type
REMARK                         _______ _______ _______ _____ _____    ______ ____
ROOT
ATOM      1  N   UNL     1      -1.792   2.644  -4.954  0.00  0.00    -0.278 N 
ATOM      2  C   UNL     1      -0.822   2.400  -5.857  0.00  0.00    +0.236 C 
ATOM      3  O   UNL     1       0.229   1.910  -5.502  0.00  0.00    -0.274 OA
ATOM      4  H   UNL     1      -2.633   3.035  -5.239  0.00  0.00    +0.155 HD
ENDROOT
BRANCH   1  12
ATOM      5  C   UNL     1      -0.210   0.850   2.494  0.00  0.00    +0.008 C 
ATOM      6  C   UNL     1      -0.742   1.586   1.263  0.00  0.00    -0.009 C 
ATOM      7  C   UNL     1      -2.241   1.309   1.105  0.00  0.00    +0.008 C 
ATOM      8  C   UNL     1      -2.830   2.228   0.034  0.00  0.00    +0.037 C 
ATOM      9  C   UNL     1      -1.995   2.102  -1.234  0.00  0.00    -0.023 A 
ATOM     10  C   UNL     1      -0.747   1.587  -1.197  0.00  0.00    -0.004 A 
ATOM     11  S   UNL     1      -0.186   1.639  -2.875  0.00  0.00    -0.077 S 
ATOM     12  C   UNL     1      -1.588   2.336  -3.618  0.00  0.00    +0.084 A 
ATOM     13  C   UNL     1      -2.457   2.511  -2.550  0.00  0.00    +0.068 A 
ATOM     14  C   UNL     1      -0.013   1.086   0.008  0.00  0.00    +0.046 C 
BRANCH  13  15
ATOM     15  C   UNL     1      -3.791   3.088  -2.742  0.00  0.00    +0.244 C 
ATOM     16  O   UNL     1      -3.952   4.292  -2.660  0.00  0.00    -0.270 OA
ATOM     17  N   UNL     1      -4.840   2.285  -3.010  0.00  0.00    -0.325 N 
ATOM     18  H   UNL     1      -4.712   1.326  -3.075  0.00  0.00    +0.145 HD
ATOM     19  H   UNL     1      -5.723   2.667  -3.137  0.00  0.00    +0.145 HD
ENDBRANCH  13  15
ENDBRANCH   1  12
BRANCH   2  20
ATOM     20  C   UNL     1      -1.044   2.735  -7.310  0.00  0.00    +0.166 C 
ATOM     21  C   UNL     1      -2.229   1.915  -7.863  0.00  0.00    +0.031 C 
ATOM     22  C   UNL     1      -1.757   1.550  -9.298  0.00  0.00    +0.019 C 
ATOM     23  C   UNL     1      -0.235   1.350  -9.086  0.00  0.00    +0.110 C 
ATOM     24  N   UNL     1       0.146   2.372  -8.094  0.00  0.00    -0.164 NA
BRANCH  24  25
ATOM     25  S   UNL     1       1.662   3.006  -7.896  0.00  0.00    +0.068 S 
ATOM     26  O   UNL     1       2.338   2.838  -9.134  0.00  0.00    -0.152 OA
ATOM     27  O   UNL     1       1.494   4.279  -7.286  0.00  0.00    -0.152 OA
BRANCH  25  28
ATOM     28  C   UNL     1       2.501   1.993  -6.723  0.00  0.00    +0.144 A 
ATOM     29  C   UNL     1       3.264   0.894  -6.937  0.00  0.00    +0.038 A 
ATOM     30  C   UNL     1       3.832   0.250  -5.853  0.00  0.00    +0.030 A 
ATOM     31  C   UNL     1       3.607   0.738  -4.607  0.00  0.00    +0.080 A 
ATOM     32  S   UNL     1       2.573   2.153  -4.947  0.00  0.00    -0.057 S 
ATOM     33 CL   UNL     1       4.183   0.145  -3.080  0.00  0.00    -0.076 Cl
ENDBRANCH  25  28
ENDBRANCH  24  25
ENDBRANCH   2  20
TORSDOF 5
