REMARK  Name = ZINC04494647
REMARK  10 active torsions:
REMARK  status: ('A' for Active; 'I' for Inactive)
REMARK    1  A    between atoms: C_1  and  C_2
REMARK    2  A    between atoms: C_2  and  C_3
REMARK    3  A    between atoms: C_2  and  C_4
REMARK    4  A    between atoms: C_2  and  C_5
REMARK    5  A    between atoms: C_12  and  N_32
REMARK    6  A    between atoms: C_13  and  C_30
REMARK    7  A    between atoms: C_14  and  C_16
REMARK    8  A    between atoms: C_20  and  O_22
REMARK    9  A    between atoms: O_22  and  C_23
REMARK   10  A    between atoms: C_23  and  C_25
REMARK                            x       y       z     vdW  Elec       q    Type
REMARK                         _______ _______ _______ _____ _____    ______ ____
ROOT
ATOM      1  C   UNL     1       1.408  -1.278  -1.697  0.00  0.00    +0.076 A 
ATOM      2  C   UNL     1       0.962  -2.588  -1.803  0.00  0.00    +0.050 A 
ATOM      3  C   UNL     1       1.449  -3.108  -2.970  0.00  0.00    +0.222 A 
ATOM      4  N   UNL     1       2.177  -2.151  -3.568  0.00  0.00    -0.246 N 
ATOM      5  H   UNL     1       2.646  -2.234  -4.413  0.00  0.00    +0.192 HD
ATOM      6  N   UNL     1       2.133  -1.007  -2.756  0.00  0.00    -0.175 NA
ATOM      7  O   UNL     1       1.189  -4.377  -3.371  0.00  0.00    -0.423 OA
ATOM      8  C   UNL     1       0.209  -5.046  -2.731  0.00  0.00    +0.200 C 
ATOM      9  C   UNL     1      -0.344  -4.639  -1.567  0.00  0.00    +0.098 C 
ATOM     10  C   UNL     1       0.095  -3.381  -0.859  0.00  0.00    +0.101 C 
ENDROOT
BRANCH  10  11
ATOM     11  C   UNL     1       0.883  -3.740   0.374  0.00  0.00    -0.031 A 
ATOM     12  C   UNL     1       2.208  -4.122   0.261  0.00  0.00    +0.005 A 
ATOM     13  C   UNL     1       2.933  -4.452   1.390  0.00  0.00    +0.004 A 
ATOM     14  C   UNL     1       2.337  -4.399   2.636  0.00  0.00    +0.046 A 
ATOM     15  C   UNL     1       1.009  -4.016   2.752  0.00  0.00    +0.132 A 
ATOM     16  C   UNL     1       0.284  -3.681   1.617  0.00  0.00    +0.051 A 
BRANCH  15  17
ATOM     17  O   UNL     1       0.421  -3.964   3.976  0.00  0.00    -0.420 OA
BRANCH  17  18
ATOM     18  C   UNL     1      -0.435  -4.951   4.310  0.00  0.00    +0.380 C 
ATOM     19  O   UNL     1      -0.589  -5.901   3.565  0.00  0.00    -0.241 OA
BRANCH  18  20
ATOM     20  C   UNL     1      -1.180  -4.881   5.569  0.00  0.00    +0.212 A 
ATOM     21  C   UNL     1      -2.070  -5.810   6.029  0.00  0.00    +0.056 A 
ATOM     22  C   UNL     1      -2.542  -5.340   7.264  0.00  0.00    +0.042 A 
ATOM     23  C   UNL     1      -1.927  -4.160   7.502  0.00  0.00    +0.196 A 
ATOM     24  O   UNL     1      -1.104  -3.889   6.481  0.00  0.00    -0.456 OA
ENDBRANCH  18  20
ENDBRANCH  17  18
ENDBRANCH  15  17
ENDBRANCH  10  11
BRANCH   1  26
ATOM     25  C   UNL     1       1.662   1.056  -0.899  0.00  0.00    +0.017 C 
ATOM     26  C   UNL     1       1.106  -0.330  -0.565  0.00  0.00    +0.007 C 
ATOM     27  C   UNL     1       1.759  -0.845   0.720  0.00  0.00    +0.017 C 
ATOM     28  C   UNL     1      -0.408  -0.238  -0.366  0.00  0.00    +0.017 C 
ENDBRANCH   1  26
BRANCH   8  29
ATOM     29  N   UNL     1      -0.256  -6.208  -3.295  0.00  0.00    -0.328 N 
ATOM     30  H   UNL     1       0.120  -6.526  -4.131  0.00  0.00    +0.145 HD
ATOM     31  H   UNL     1      -0.961  -6.711  -2.858  0.00  0.00    +0.145 HD
ENDBRANCH   8  29
BRANCH   9  32
ATOM     32  C   UNL     1      -1.384  -5.431  -0.983  0.00  0.00    +0.101 C 
ATOM     33  N   UNL     1      -2.209  -6.059  -0.520  0.00  0.00    -0.191 NA
ENDBRANCH   9  32
TORSDOF 7
