REMARK  Name = ZINC08414126
REMARK  3 active torsions:
REMARK  status: ('A' for Active; 'I' for Inactive)
REMARK    1  A    between atoms: C_1  and  C_2
REMARK    2  A    between atoms: C_16  and  C_18
REMARK    3  A    between atoms: C_27  and  C_30
REMARK                            x       y       z     vdW  Elec       q    Type
REMARK                         _______ _______ _______ _____ _____    ______ ____
ROOT
ATOM      1  C   UNL     1      -6.793   5.379   0.095  0.00  0.00    +0.044 C 
ATOM      2  C   UNL     1      -5.649   4.398   0.079  0.00  0.00    -0.050 A 
ATOM      3  C   UNL     1      -5.909   3.035   0.074  0.00  0.00    +0.007 A 
ATOM      4  C   UNL     1      -4.879   2.120   0.059  0.00  0.00    +0.047 A 
ATOM      5  C   UNL     1      -3.559   2.563   0.050  0.00  0.00    +0.139 A 
ATOM      6  C   UNL     1      -3.306   3.946   0.054  0.00  0.00    +0.065 A 
ATOM      7  C   UNL     1      -4.361   4.856   0.069  0.00  0.00    +0.018 A 
ATOM      8  C   UNL     1      -1.900   4.395   0.044  0.00  0.00    +0.199 A 
ATOM      9  O   UNL     1      -1.606   5.577   0.048  0.00  0.00    -0.287 OA
ATOM     10  C   UNL     1      -0.875   3.348   0.028  0.00  0.00    +0.072 A 
ATOM     11  C   UNL     1      -1.243   2.043   0.018  0.00  0.00    +0.199 A 
ATOM     12  O   UNL     1      -2.542   1.683   0.036  0.00  0.00    -0.450 OA
ATOM     13  C   UNL     1      -0.014   1.211   0.009  0.00  0.00    +0.288 C 
ATOM     14  O   UNL     1       0.002  -0.004   0.002  0.00  0.00    -0.266 OA
ATOM     15  N   UNL     1       1.078   1.994   0.003  0.00  0.00    -0.238 N 
ATOM     16  C   UNL     1       0.631   3.393   0.014  0.00  0.00    +0.151 C 
ATOM     17  C   UNL     1       2.400   1.557  -0.012  0.00  0.00    +0.129 A 
ATOM     18  C   UNL     1       2.675   0.198  -0.122  0.00  0.00    +0.044 A 
ATOM     19  C   UNL     1       3.993  -0.223  -0.141  0.00  0.00    +0.008 A 
ATOM     20  C   UNL     1       4.994   0.733  -0.038  0.00  0.00    -0.032 A 
ATOM     21  C   UNL     1       4.649   2.066   0.074  0.00  0.00    +0.116 A 
ATOM     22  N   UNL     1       3.383   2.438   0.084  0.00  0.00    -0.240 NA
ATOM     23  C   UNL     1       6.444   0.321  -0.047  0.00  0.00    +0.045 C 
ENDROOT
BRANCH  16  24
ATOM     24  C   UNL     1       1.117   4.104  -1.222  0.00  0.00    -0.022 A 
ATOM     25  C   UNL     1       1.136   3.443  -2.437  0.00  0.00    +0.006 A 
ATOM     26  C   UNL     1       1.578   4.096  -3.572  0.00  0.00    +0.000 A 
ATOM     27  C   UNL     1       2.010   5.407  -3.491  0.00  0.00    +0.000 A 
ATOM     28  C   UNL     1       1.996   6.066  -2.276  0.00  0.00    +0.000 A 
ATOM     29  C   UNL     1       1.550   5.414  -1.141  0.00  0.00    +0.006 A 
ENDBRANCH  16  24
TORSDOF 1
