REMARK  Name = ZINC11443480
REMARK  11 active torsions:
REMARK  status: ('A' for Active; 'I' for Inactive)
REMARK    1  A    between atoms: C_1  and  C_2
REMARK    2  A    between atoms: C_2  and  C_3
REMARK    3  A    between atoms: C_3  and  C_4
REMARK    4  A    between atoms: C_6  and  O_32
REMARK    5  A    between atoms: C_8  and  S_10
REMARK    6  A    between atoms: S_10  and  C_11
REMARK    7  A    between atoms: C_11  and  C_13
REMARK    8  A    between atoms: C_11  and  C_14
REMARK    9  A    between atoms: N_16  and  C_17
REMARK   10  A    between atoms: C_20  and  S_23
REMARK   11  A    between atoms: S_23  and  N_26
REMARK                            x       y       z     vdW  Elec       q    Type
REMARK                         _______ _______ _______ _____ _____    ______ ____
ROOT
ATOM      1  C   UNL     1      -1.405  -0.526   0.138  0.00  0.00    +0.230 C 
ATOM      2  O   UNL     1      -2.343   0.163  -0.206  0.00  0.00    -0.274 OA
ATOM      3  N   UNL     1      -1.622  -1.754   0.648  0.00  0.00    -0.285 N 
ATOM      4  H   UNL     1      -0.872  -2.330   0.861  0.00  0.00    +0.155 HD
ENDROOT
BRANCH   3   5
ATOM      5  C   UNL     1      -2.930  -2.198   0.870  0.00  0.00    +0.034 A 
ATOM      6  C   UNL     1      -3.212  -3.017   1.956  0.00  0.00    +0.025 A 
ATOM      7  C   UNL     1      -4.506  -3.449   2.176  0.00  0.00    +0.030 A 
ATOM      8  C   UNL     1      -5.517  -3.076   1.310  0.00  0.00    +0.106 A 
ATOM      9  C   UNL     1      -5.239  -2.266   0.225  0.00  0.00    +0.030 A 
ATOM     10  C   UNL     1      -3.949  -1.826   0.003  0.00  0.00    +0.025 A 
BRANCH   8  11
ATOM     11  S   UNL     1      -7.164  -3.636   1.589  0.00  0.00    +0.061 S 
ATOM     12  O   UNL     1      -7.263  -3.933   2.975  0.00  0.00    -0.153 OA
ATOM     13  O   UNL     1      -8.024  -2.704   0.947  0.00  0.00    -0.153 OA
BRANCH  11  14
ATOM     14  N   UNL     1      -7.337  -5.072   0.784  0.00  0.00    -0.177 NA
ATOM     15  C   UNL     1      -7.807  -5.098  -0.608  0.00  0.00    +0.109 C 
ATOM     16  C   UNL     1      -6.797  -5.891  -1.451  0.00  0.00    +0.017 C 
ATOM     17  C   UNL     1      -6.597  -7.275  -0.829  0.00  0.00    +0.003 C 
ATOM     18  C   UNL     1      -6.031  -7.124   0.585  0.00  0.00    +0.017 C 
ATOM     19  C   UNL     1      -7.028  -6.346   1.449  0.00  0.00    +0.109 C 
ENDBRANCH  11  14
ENDBRANCH   8  11
ENDBRANCH   3   5
BRANCH   1  20
ATOM     20  C   UNL     1       0.003  -0.007  -0.004  0.00  0.00    +0.137 C 
ATOM     21  C   UNL     1       0.597  -0.500  -1.325  0.00  0.00    +0.029 C 
BRANCH  20  22
ATOM     22  S   UNL     1      -0.017   1.803   0.010  0.00  0.00    -0.073 S 
BRANCH  22  27
ATOM     23  C   UNL     1       3.430   3.667  -0.030  0.00  0.00    +0.049 A 
ATOM     24  C   UNL     1       4.348   2.632  -0.053  0.00  0.00    +0.090 A 
ATOM     25  C   UNL     1       3.873   1.322  -0.056  0.00  0.00    +0.216 A 
ATOM     26  N   UNL     1       2.563   1.110  -0.031  0.00  0.00    -0.187 NA
ATOM     27  C   UNL     1       1.715   2.128  -0.015  0.00  0.00    +0.192 A 
ATOM     28  N   UNL     1       2.137   3.384  -0.012  0.00  0.00    -0.227 NA
BRANCH  25  29
ATOM     29  O   UNL     1       4.738   0.278  -0.078  0.00  0.00    -0.492 OA
ATOM     30  H   UNL     1       5.003  -0.032   0.799  0.00  0.00    +0.294 HD
ENDBRANCH  25  29
BRANCH  23  31
ATOM     31  C   UNL     1       3.898   5.099  -0.026  0.00  0.00    +0.055 C 
BRANCH  31  33
ATOM     32  C   UNL     1       3.724   7.305  -1.187  0.00  0.00    +0.004 C 
ATOM     33  C   UNL     1       3.250   5.850  -1.191  0.00  0.00    +0.003 C 
ENDBRANCH  31  33
ENDBRANCH  23  31
ENDBRANCH  22  27
ENDBRANCH  20  22
ENDBRANCH   1  20
TORSDOF 9
