REMARK  Name = ZINC66524681
REMARK  6 active torsions:
REMARK  status: ('A' for Active; 'I' for Inactive)
REMARK    1  A    between atoms: C_1  and  C_2
REMARK    2  A    between atoms: C_2  and  C_3
REMARK    3  A    between atoms: C_3  and  C_5
REMARK    4  A    between atoms: C_3  and  N_15
REMARK    5  A    between atoms: C_16  and  C_18
REMARK    6  A    between atoms: C_19  and  C_20
REMARK                            x       y       z     vdW  Elec       q    Type
REMARK                         _______ _______ _______ _____ _____    ______ ____
ROOT
ATOM      1  N   UNL     1      -2.082  -0.162   1.273  0.00  0.00    -0.302 N 
ATOM      2  C   UNL     1      -2.664   1.047   1.400  0.00  0.00    +0.238 C 
ATOM      3  O   UNL     1      -2.651   1.831   0.467  0.00  0.00    -0.271 OA
ATOM      4  H   UNL     1      -2.092  -0.785   2.016  0.00  0.00    +0.150 HD
ENDROOT
BRANCH   2   5
ATOM      5  C   UNL     1      -3.288   1.405   2.613  0.00  0.00    +0.069 C 
ATOM      6  C   UNL     1      -3.876   2.626   2.741  0.00  0.00    +0.034 C 
BRANCH   6   7
ATOM      7  C   UNL     1      -4.499   2.984   3.953  0.00  0.00    +0.085 A 
ATOM      8  C   UNL     1      -5.426   2.232   4.668  0.00  0.00    +0.155 A 
ATOM      9  N   UNL     1      -5.768   2.917   5.747  0.00  0.00    -0.216 NA
ATOM     10  C   UNL     1      -5.113   4.077   5.774  0.00  0.00    +0.140 A 
ATOM     11  N   UNL     1      -4.307   4.151   4.672  0.00  0.00    -0.298 N 
ATOM     12  C   UNL     1      -3.520   5.239   4.459  0.00  0.00    +0.093 A 
ATOM     13  C   UNL     1      -3.517   6.269   5.337  0.00  0.00    +0.018 A 
ATOM     14  C   UNL     1      -4.329   6.223   6.478  0.00  0.00    +0.005 A 
ATOM     15  C   UNL     1      -5.128   5.140   6.694  0.00  0.00    +0.047 A 
ATOM     16 CL   UNL     1      -6.029   0.666   4.222  0.00  0.00    -0.060 Cl
ENDBRANCH   6   7
ENDBRANCH   2   5
BRANCH   1  17
ATOM     17  C   UNL     1      -1.433  -0.534   0.013  0.00  0.00    +0.139 C 
BRANCH  17  18
ATOM     18  C   UNL     1      -1.416  -2.035  -0.119  0.00  0.00    +0.129 A 
ATOM     19  N   UNL     1      -2.014  -2.900   0.743  0.00  0.00    -0.340 N 
ATOM     20  H   UNL     1      -2.518  -2.663   1.538  0.00  0.00    +0.167 HD
ATOM     21  C   UNL     1      -1.771  -4.177   0.279  0.00  0.00    +0.066 A 
ATOM     22  C   UNL     1      -2.115  -5.448   0.719  0.00  0.00    +0.028 A 
ATOM     23  C   UNL     1      -1.702  -6.553   0.006  0.00  0.00    +0.002 A 
ATOM     24  C   UNL     1      -0.947  -6.402  -1.149  0.00  0.00    +0.002 A 
ATOM     25  C   UNL     1      -0.599  -5.160  -1.597  0.00  0.00    +0.030 A 
ATOM     26  C   UNL     1      -1.007  -4.025  -0.890  0.00  0.00    +0.089 A 
ATOM     27  N   UNL     1      -0.831  -2.692  -1.078  0.00  0.00    -0.231 NA
ENDBRANCH  17  18
BRANCH  17  29
ATOM     28  C   UNL     1      -0.019   1.526   0.010  0.00  0.00    +0.006 C 
ATOM     29  C   UNL     1       0.002  -0.004   0.002  0.00  0.00    +0.027 C 
ENDBRANCH  17  29
ENDBRANCH   1  17
TORSDOF 5
