REMARK  Name = ZINC13495424
REMARK  14 active torsions:
REMARK  status: ('A' for Active; 'I' for Inactive)
REMARK    1  A    between atoms: C_1  and  C_2
REMARK    2  A    between atoms: C_2  and  C_3
REMARK    3  A    between atoms: C_3  and  C_5
REMARK    4  A    between atoms: C_3  and  N_16
REMARK    5  A    between atoms: N_9  and  C_10
REMARK    6  A    between atoms: N_16  and  C_17
REMARK    7  A    between atoms: N_16  and  C_26
REMARK    8  A    between atoms: C_17  and  C_18
REMARK    9  A    between atoms: C_23  and  O_24
REMARK   10  A    between atoms: O_24  and  C_25
REMARK   11  A    between atoms: C_26  and  C_27
REMARK   12  A    between atoms: C_31  and  O_39
REMARK   13  A    between atoms: O_39  and  C_40
REMARK   14  A    between atoms: C_40  and  C_41
REMARK                            x       y       z     vdW  Elec       q    Type
REMARK                         _______ _______ _______ _____ _____    ______ ____
ROOT
ATOM      1  N   UNL     1      -0.794   1.734   1.276  0.00  0.00    -0.284 NA
ENDROOT
BRANCH   1   2
ATOM      2  C   UNL     1       0.030   1.321   2.419  0.00  0.00    +0.127 C 
BRANCH   2   3
ATOM      3  C   UNL     1       0.372  -0.141   2.291  0.00  0.00    +0.169 A 
ATOM      4  N   UNL     1       0.868  -0.739   1.235  0.00  0.00    -0.112 NA
ATOM      5  N   UNL     1       1.022  -1.986   1.520  0.00  0.00    -0.023 NA
ATOM      6  N   UNL     1       0.630  -2.200   2.727  0.00  0.00    -0.044 NA
ATOM      7  N   UNL     1       0.222  -1.087   3.236  0.00  0.00    -0.225 N 
BRANCH   7   8
ATOM      8  C   UNL     1      -0.305  -0.890   4.589  0.00  0.00    +0.111 C 
ATOM      9  C   UNL     1       0.757  -1.291   5.614  0.00  0.00    +0.027 C 
ATOM     10  C   UNL     1       0.207  -1.086   7.026  0.00  0.00    +0.002 C 
ATOM     11  C   UNL     1      -1.040  -1.952   7.219  0.00  0.00    +0.000 C 
ATOM     12  C   UNL     1      -2.103  -1.550   6.194  0.00  0.00    +0.002 C 
ATOM     13  C   UNL     1      -1.552  -1.756   4.781  0.00  0.00    +0.027 C 
ENDBRANCH   7   8
ENDBRANCH   2   3
BRANCH   2  15
ATOM     14  C   UNL     1       0.980   3.613   2.716  0.00  0.00    +0.006 C 
ATOM     15  C   UNL     1       1.319   2.146   2.443  0.00  0.00    +0.023 C 
ENDBRANCH   2  15
ENDBRANCH   1   2
BRANCH   1  16
ATOM     16  C   UNL     1      -2.168   1.230   1.408  0.00  0.00    +0.124 C 
BRANCH  16  17
ATOM     17  C   UNL     1      -2.862   1.952   2.534  0.00  0.00    +0.008 A 
ATOM     18  C   UNL     1      -3.096   1.302   3.731  0.00  0.00    +0.008 A 
ATOM     19  C   UNL     1      -3.728   1.965   4.767  0.00  0.00    +0.001 A 
ATOM     20  C   UNL     1      -4.137   3.276   4.604  0.00  0.00    +0.004 A 
ATOM     21  C   UNL     1      -3.909   3.928   3.408  0.00  0.00    +0.046 A 
ATOM     22  C   UNL     1      -3.270   3.267   2.369  0.00  0.00    +0.124 A 
BRANCH  22  23
ATOM     23  O   UNL     1      -3.046   3.906   1.191  0.00  0.00    -0.495 OA
ATOM     24  C   UNL     1      -3.494   5.259   1.091  0.00  0.00    +0.277 C 
ENDBRANCH  22  23
ENDBRANCH  16  17
ENDBRANCH   1  16
BRANCH   1  25
ATOM     25  C   UNL     1      -0.193   1.298   0.009  0.00  0.00    +0.126 C 
BRANCH  25  26
ATOM     26  C   UNL     1      -0.734   2.137  -1.120  0.00  0.00    +0.031 A 
ATOM     27  C   UNL     1      -0.048   3.230  -1.538  0.00  0.00    +0.020 A 
ATOM     28  C   UNL     1      -0.598   4.022  -2.639  0.00  0.00    +0.002 A 
ATOM     29  C   UNL     1       0.068   5.157  -3.115  0.00  0.00    +0.055 A 
ATOM     30  C   UNL     1      -0.481   5.884  -4.152  0.00  0.00    +0.121 A 
ATOM     31  C   UNL     1      -1.690   5.493  -4.722  0.00  0.00    +0.047 A 
ATOM     32  C   UNL     1      -2.356   4.379  -4.261  0.00  0.00    +0.030 A 
ATOM     33  C   UNL     1      -1.820   3.631  -3.218  0.00  0.00    +0.049 A 
ATOM     34  N   UNL     1      -2.471   2.511  -2.743  0.00  0.00    -0.322 N 
ATOM     35  H   UNL     1      -3.426   2.199  -3.190  0.00  0.00    +0.169 HD
ATOM     36  C   UNL     1      -1.956   1.787  -1.734  0.00  0.00    +0.254 A 
ATOM     37  O   UNL     1      -2.558   0.803  -1.340  0.00  0.00    -0.268 OA
BRANCH  30  38
ATOM     38  O   UNL     1       0.162   6.987  -4.619  0.00  0.00    -0.492 OA
BRANCH  38  39
ATOM     39  C   UNL     1      -0.461   7.694  -5.693  0.00  0.00    +0.225 C 
ATOM     40  C   UNL     1       0.402   8.897  -6.080  0.00  0.00    +0.048 C 
ENDBRANCH  38  39
ENDBRANCH  30  38
ENDBRANCH  25  26
ENDBRANCH   1  25
TORSDOF 11
