REMARK  Name = ZINC44803554
REMARK  10 active torsions:
REMARK  status: ('A' for Active; 'I' for Inactive)
REMARK    1  A    between atoms: C_1  and  C_2
REMARK    2  A    between atoms: C_2  and  C_4
REMARK    3  A    between atoms: C_2  and  N_14
REMARK    4  A    between atoms: C_7  and  O_10
REMARK    5  A    between atoms: O_10  and  C_11
REMARK    6  A    between atoms: N_14  and  C_15
REMARK    7  A    between atoms: C_15  and  C_17
REMARK    8  A    between atoms: C_15  and  C_18
REMARK    9  A    between atoms: N_23  and  C_24
REMARK   10  A    between atoms: C_24  and  C_25
REMARK                            x       y       z     vdW  Elec       q    Type
REMARK                         _______ _______ _______ _____ _____    ______ ____
ROOT
ATOM      1  N   UNL     1      -1.376  -0.512   0.012  0.00  0.00    +0.391 N 
ATOM      2  H   UNL     1      -1.888  -0.113  -0.760  0.00  0.00    -0.084 HD
ATOM      3  H   UNL     1      -1.364  -1.518  -0.076  0.00  0.00    -0.084 HD
ENDROOT
BRANCH   1   5
ATOM      4  C   UNL     1      -0.019   1.526   0.010  0.00  0.00    -0.009 C 
ATOM      5  C   UNL     1       0.002  -0.004   0.002  0.00  0.00    -0.043 C 
BRANCH   5   6
ATOM      6  C   UNL     1       0.707  -0.490  -1.238  0.00  0.00    -0.061 A 
ATOM      7  C   UNL     1       0.036  -0.521  -2.446  0.00  0.00    +0.005 A 
ATOM      8  C   UNL     1       0.681  -0.967  -3.584  0.00  0.00    +0.046 A 
ATOM      9  C   UNL     1       2.002  -1.383  -3.514  0.00  0.00    +0.127 A 
ATOM     10  C   UNL     1       2.674  -1.350  -2.300  0.00  0.00    +0.046 A 
ATOM     11  C   UNL     1       2.026  -0.899  -1.166  0.00  0.00    +0.005 A 
BRANCH   9  12
ATOM     12  O   UNL     1       2.638  -1.822  -4.632  0.00  0.00    -0.434 OA
BRANCH  12  13
ATOM     13  C   UNL     1       3.998  -2.235  -4.485  0.00  0.00    +0.541 C 
ATOM     14  F   UNL     1       4.763  -1.161  -4.014  0.00  0.00    -0.166 F 
ATOM     15  F   UNL     1       4.068  -3.293  -3.572  0.00  0.00    -0.166 F 
ENDBRANCH  12  13
ENDBRANCH   9  12
ENDBRANCH   5   6
ENDBRANCH   1   5
BRANCH   1  16
ATOM     16  C   UNL     1      -2.026  -0.140   1.276  0.00  0.00    +0.014 C 
ATOM     17  C   UNL     1      -1.325  -0.846   2.438  0.00  0.00    -0.004 C 
BRANCH  16  18
ATOM     18  C   UNL     1      -3.475  -0.553   1.237  0.00  0.00    +0.206 C 
ATOM     19  O   UNL     1      -3.921  -1.104   0.254  0.00  0.00    -0.277 OA
ATOM     20  N   UNL     1      -4.274  -0.311   2.295  0.00  0.00    -0.242 N 
ATOM     21  C   UNL     1      -5.569  -0.680   2.260  0.00  0.00    +0.306 C 
ATOM     22  O   UNL     1      -6.017  -1.233   1.274  0.00  0.00    -0.252 OA
ATOM     23  N   UNL     1      -6.368  -0.438   3.318  0.00  0.00    -0.291 N 
ATOM     24  H   UNL     1      -3.916   0.130   3.082  0.00  0.00    +0.159 HD
ATOM     25  H   UNL     1      -6.010   0.003   4.105  0.00  0.00    +0.151 HD
BRANCH  23  26
ATOM     26  C   UNL     1      -7.776  -0.840   3.280  0.00  0.00    +0.219 C 
BRANCH  26  27
ATOM     27  C   UNL     1      -8.453  -0.452   4.596  0.00  0.00    +0.405 C 
ATOM     28  F   UNL     1      -8.368   0.933   4.773  0.00  0.00    -0.169 F 
ATOM     29  F   UNL     1      -9.798  -0.836   4.560  0.00  0.00    -0.169 F 
ATOM     30  F   UNL     1      -7.812  -1.098   5.659  0.00  0.00    -0.169 F 
ENDBRANCH  26  27
ENDBRANCH  23  26
ENDBRANCH  16  18
ENDBRANCH   1  16
TORSDOF 8
