REMARK  Name = ZINC62969803
REMARK  6 active torsions:
REMARK  status: ('A' for Active; 'I' for Inactive)
REMARK    1  A    between atoms: C_1  and  C_2
REMARK    2  A    between atoms: C_2  and  C_3
REMARK    3  A    between atoms: C_3  and  C_4
REMARK    4  A    between atoms: C_10  and  C_13
REMARK    5  A    between atoms: C_13  and  N_14
REMARK    6  A    between atoms: C_17  and  N_20
REMARK                            x       y       z     vdW  Elec       q    Type
REMARK                         _______ _______ _______ _____ _____    ______ ____
ROOT
ATOM      1  C   UNL     1       1.994  -4.561  -3.881  0.00  0.00    +0.095 C 
ENDROOT
BRANCH   1   7
ATOM      2  C   UNL     1      -1.326  -3.723  -2.118  0.00  0.00    -0.010 C 
ATOM      3  C   UNL     1      -1.196  -2.200  -2.181  0.00  0.00    +0.011 C 
ATOM      4  C   UNL     1       0.227  -1.794  -1.784  0.00  0.00    +0.075 C 
ATOM      5  C   UNL     1       1.204  -2.539  -2.667  0.00  0.00    +0.138 C 
ATOM      6  O   UNL     1       2.075  -1.951  -3.261  0.00  0.00    -0.297 OA
ATOM      7  C   UNL     1       1.061  -4.041  -2.785  0.00  0.00    +0.069 C 
ATOM      8  C   UNL     1      -0.393  -4.364  -3.147  0.00  0.00    +0.016 C 
BRANCH   2   9
ATOM      9  C   UNL     1      -2.771  -4.123  -2.424  0.00  0.00    +0.003 C 
BRANCH   9  11
ATOM     10  C   UNL     1      -5.136  -3.989  -1.631  0.00  0.00    +0.004 C 
ATOM     11  C   UNL     1      -3.692  -3.589  -1.325  0.00  0.00    -0.003 C 
ENDBRANCH   9  11
ENDBRANCH   2   9
ENDBRANCH   1   7
BRANCH   1  12
ATOM     12  N   UNL     1       1.947  -6.029  -3.909  0.00  0.00    -0.303 NA
ATOM     13  C   UNL     1       2.799  -6.609  -2.839  0.00  0.00    +0.083 C 
ATOM     14  C   UNL     1       3.082  -8.053  -3.308  0.00  0.00    +0.001 C 
ATOM     15  C   UNL     1       2.906  -8.018  -4.840  0.00  0.00    -0.053 C 
ATOM     16  C   UNL     1       2.531  -6.556  -5.168  0.00  0.00    +0.069 C 
BRANCH  15  17
ATOM     17  N   UNL     1       4.163  -8.386  -5.507  0.00  0.00    +0.382 N 
ATOM     18  C   UNL     1       4.509  -9.798  -5.203  0.00  0.00    -0.078 C 
ATOM     19  C   UNL     1       5.461 -10.187  -6.361  0.00  0.00    -0.020 C 
ATOM     20  C   UNL     1       4.843  -9.457  -7.576  0.00  0.00    -0.020 C 
ATOM     21  C   UNL     1       4.000  -8.318  -6.975  0.00  0.00    -0.078 C 
ATOM     22  H   UNL     1       4.907  -7.773  -5.210  0.00  0.00    -0.081 HD
ENDBRANCH  15  17
ENDBRANCH   1  12
TORSDOF 5
