REMARK  Name = ZINC27311639
REMARK  7 active torsions:
REMARK  status: ('A' for Active; 'I' for Inactive)
REMARK    1  A    between atoms: C_1  and  C_2
REMARK    2  A    between atoms: N_4  and  C_5
REMARK    3  A    between atoms: C_11  and  C_17
REMARK    4  A    between atoms: C_14  and  C_15
REMARK    5  A    between atoms: C_14  and  C_16
REMARK    6  A    between atoms: C_17  and  S_18
REMARK    7  A    between atoms: S_18  and  N_21
REMARK                            x       y       z     vdW  Elec       q    Type
REMARK                         _______ _______ _______ _____ _____    ______ ____
ROOT
ATOM      1  S   UNL     1      -0.564   5.967   0.985  0.00  0.00    +0.033 S 
ATOM      2  O   UNL     1       0.842   6.178   0.974  0.00  0.00    -0.158 OA
ATOM      3  O   UNL     1      -1.338   6.176  -0.188  0.00  0.00    -0.158 OA
ENDROOT
BRANCH   1   4
ATOM      4  N   UNL     1      -1.147   7.066   2.078  0.00  0.00    -0.181 NA
ATOM      5  C   UNL     1      -2.525   7.566   1.973  0.00  0.00    +0.110 C 
ATOM      6  C   UNL     1      -3.231   7.335   3.319  0.00  0.00    +0.028 C 
ATOM      7  C   UNL     1      -2.405   7.965   4.437  0.00  0.00    -0.001 C 
ATOM      8  C   UNL     1      -2.286   9.483   4.211  0.00  0.00    +0.016 C 
ATOM      9  C   UNL     1      -2.304  10.033   5.654  0.00  0.00    +0.036 C 
ATOM     10  C   UNL     1      -3.055   8.998   6.464  0.00  0.00    -0.044 A 
ATOM     11  C   UNL     1      -3.111   7.806   5.763  0.00  0.00    -0.038 A 
ATOM     12  C   UNL     1      -3.753   6.712   6.317  0.00  0.00    +0.004 A 
ATOM     13  C   UNL     1      -4.337   6.805   7.565  0.00  0.00    +0.000 A 
ATOM     14  C   UNL     1      -4.281   7.996   8.265  0.00  0.00    +0.000 A 
ATOM     15  C   UNL     1      -3.641   9.089   7.715  0.00  0.00    +0.004 A 
ATOM     16  C   UNL     1      -1.016   7.337   4.499  0.00  0.00    +0.028 C 
ATOM     17  C   UNL     1      -0.295   7.564   3.166  0.00  0.00    +0.110 C 
ENDBRANCH   1   4
BRANCH   1  18
ATOM     18  C   UNL     1      -0.946   4.346   1.705  0.00  0.00    +0.200 C 
BRANCH  18  23
ATOM     19  C   UNL     1      -0.798   1.768  -1.154  0.00  0.00    +0.143 C 
ATOM     20  C   UNL     1      -0.013   1.086   0.008  0.00  0.00    +0.023 C 
ATOM     21  C   UNL     1       1.379   1.790  -0.002  0.00  0.00    +0.007 C 
ATOM     22  C   UNL     1       1.089   3.224   0.499  0.00  0.00    +0.017 C 
ATOM     23  C   UNL     1      -0.446   3.243   0.770  0.00  0.00    +0.057 C 
ATOM     24  C   UNL     1      -1.085   3.208  -0.625  0.00  0.00    +0.162 C 
ATOM     25  O   UNL     1      -1.680   4.100  -1.181  0.00  0.00    -0.295 OA
ATOM     26  C   UNL     1      -0.674   1.768   1.258  0.00  0.00    -0.016 C 
ATOM     27  C   UNL     1      -2.155   1.411   1.393  0.00  0.00    +0.012 C 
ATOM     28  C   UNL     1       0.100   1.481   2.546  0.00  0.00    +0.012 C 
BRANCH  19  32
ATOM     29  C   UNL     1      -3.896   0.369  -2.915  0.00  0.00    +0.109 C 
ATOM     30  C   UNL     1      -2.615   1.113  -2.640  0.00  0.00    +0.210 C 
ATOM     31  O   UNL     1      -2.099   1.775  -3.515  0.00  0.00    -0.276 OA
ATOM     32  N   UNL     1      -2.043   1.044  -1.421  0.00  0.00    -0.306 N 
ATOM     33  H   UNL     1      -2.512   0.444  -0.627  0.00  0.00    +0.149 HD
ENDBRANCH  19  32
ENDBRANCH  18  23
ENDBRANCH   1  18
TORSDOF 4
