REMARK  Name = ZINC00356730
REMARK  8 active torsions:
REMARK  status: ('A' for Active; 'I' for Inactive)
REMARK    1  A    between atoms: C_1  and  C_2
REMARK    2  A    between atoms: C_2  and  N_3
REMARK    3  A    between atoms: N_3  and  C_4
REMARK    4  A    between atoms: N_3  and  C_6
REMARK    5  A    between atoms: C_4  and  C_5
REMARK    6  A    between atoms: C_9  and  C_12
REMARK    7  A    between atoms: C_17  and  C_21
REMARK    8  A    between atoms: C_17  and  C_22
REMARK                            x       y       z     vdW  Elec       q    Type
REMARK                         _______ _______ _______ _____ _____    ______ ____
ROOT
ATOM      1  C   UNL     1       2.528   0.463  -0.711  0.00  0.00    +0.030 A 
ATOM      2  C   UNL     1       1.428  -0.377  -0.541  0.00  0.00    +0.024 A 
ATOM      3  C   UNL     1       0.193   0.151  -0.303  0.00  0.00    +0.010 A 
ATOM      4  C   UNL     1       0.031   1.544  -0.229  0.00  0.00    -0.024 A 
ATOM      5  C   UNL     1       1.141   2.385  -0.401  0.00  0.00    +0.010 A 
ATOM      6  C   UNL     1       2.372   1.846  -0.639  0.00  0.00    +0.024 A 
ENDROOT
BRANCH   4   7
ATOM      7  C   UNL     1      -1.291   2.116   0.020  0.00  0.00    +0.030 C 
ATOM      8  C   UNL     1      -1.410   3.305   0.713  0.00  0.00    +0.143 C 
ATOM      9  C   UNL     1      -0.258   3.964   1.384  0.00  0.00    +0.349 C 
ATOM     10  O   UNL     1       0.636   3.333   1.913  0.00  0.00    -0.245 OA
ATOM     11  O   UNL     1      -0.280   5.329   1.359  0.00  0.00    -0.419 OA
ATOM     12  C   UNL     1      -1.556   5.937   1.705  0.00  0.00    +0.255 C 
ATOM     13  O   UNL     1      -2.607   5.388   0.860  0.00  0.00    -0.419 OA
ATOM     14  C   UNL     1      -2.701   4.029   0.855  0.00  0.00    +0.349 C 
ATOM     15  O   UNL     1      -3.765   3.449   0.959  0.00  0.00    -0.245 OA
ATOM     16  C   UNL     1      -1.473   7.450   1.495  0.00  0.00    +0.104 C 
ATOM     17  C   UNL     1      -1.879   5.644   3.172  0.00  0.00    +0.104 C 
ENDBRANCH   4   7
BRANCH   1  18
ATOM     18  N   UNL     1       3.782  -0.080  -0.954  0.00  0.00    -0.330 N 
BRANCH  18  20
ATOM     19  C   UNL     1       5.597   1.061   0.224  0.00  0.00    +0.024 C 
ATOM     20  C   UNL     1       4.939   0.800  -1.133  0.00  0.00    +0.102 C 
ENDBRANCH  18  20
BRANCH  18  21
ATOM     21  C   UNL     1       3.949  -1.534  -1.030  0.00  0.00    +0.102 C 
ATOM     22  C   UNL     1       3.752  -1.994  -2.476  0.00  0.00    +0.024 C 
ENDBRANCH  18  21
ENDBRANCH   1  18
TORSDOF 4
