REMARK  Name = ZINC20267624
REMARK  7 active torsions:
REMARK  status: ('A' for Active; 'I' for Inactive)
REMARK    1  A    between atoms: C_1  and  O_2
REMARK    2  A    between atoms: O_2  and  C_3
REMARK    3  A    between atoms: C_7  and  C_11
REMARK    4  A    between atoms: C_8  and  O_9
REMARK    5  A    between atoms: O_9  and  C_10
REMARK    6  A    between atoms: N_17  and  C_18
REMARK    7  A    between atoms: C_23  and  C_24
REMARK                            x       y       z     vdW  Elec       q    Type
REMARK                         _______ _______ _______ _____ _____    ______ ____
ROOT
ATOM      1  C   UNL     1      -2.739  -4.268  -1.084  0.00  0.00    +0.032 C 
ATOM      2  C   UNL     1      -3.907  -4.860  -0.727  0.00  0.00    +0.078 C 
ATOM      3  C   UNL     1      -4.236  -6.294  -0.622  0.00  0.00    +0.256 C 
ATOM      4  O   UNL     1      -3.412  -7.155  -0.868  0.00  0.00    -0.269 OA
ATOM      5  N   UNL     1      -5.466  -6.601  -0.247  0.00  0.00    -0.260 N 
ATOM      6  C   UNL     1      -6.385  -5.612   0.028  0.00  0.00    +0.166 C 
ATOM      7  N   UNL     1      -7.636  -5.741   0.408  0.00  0.00    -0.225 NA
ATOM      8  S   UNL     1      -5.459  -4.111  -0.251  0.00  0.00    -0.049 S 
ATOM      9  H   UNL     1      -5.725  -7.533  -0.165  0.00  0.00    +0.157 HD
ENDROOT
BRANCH   1  14
ATOM     10  C   UNL     1      -1.443  -0.770  -1.555  0.00  0.00    +0.162 A 
ATOM     11  C   UNL     1      -2.621  -0.088  -1.818  0.00  0.00    +0.049 A 
ATOM     12  C   UNL     1      -3.831  -0.763  -1.843  0.00  0.00    +0.004 A 
ATOM     13  C   UNL     1      -3.877  -2.119  -1.605  0.00  0.00    +0.012 A 
ATOM     14  C   UNL     1      -2.696  -2.823  -1.338  0.00  0.00    +0.022 A 
ATOM     15  C   UNL     1      -1.470  -2.139  -1.319  0.00  0.00    +0.169 A 
BRANCH  10  17
ATOM     16  C   UNL     1      -0.307   1.306  -1.784  0.00  0.00    +0.277 C 
ATOM     17  O   UNL     1      -0.260  -0.100  -1.533  0.00  0.00    -0.491 OA
ENDBRANCH  10  17
BRANCH  15  18
ATOM     18  O   UNL     1      -0.317  -2.811  -1.066  0.00  0.00    -0.491 OA
ATOM     19  C   UNL     1       0.087  -2.915   0.300  0.00  0.00    +0.277 C 
ENDBRANCH  15  18
ENDBRANCH   1  14
BRANCH   7  20
ATOM     20  C   UNL     1      -8.157  -6.986   0.635  0.00  0.00    +0.078 A 
ATOM     21  C   UNL     1      -7.482  -7.889   1.459  0.00  0.00    +0.028 A 
ATOM     22  C   UNL     1      -8.013  -9.142   1.684  0.00  0.00    +0.002 A 
ATOM     23  C   UNL     1      -9.212  -9.505   1.096  0.00  0.00    +0.001 A 
ATOM     24  C   UNL     1      -9.886  -8.615   0.278  0.00  0.00    +0.014 A 
ATOM     25  C   UNL     1      -9.370  -7.357   0.049  0.00  0.00    +0.080 A 
BRANCH  25  26
ATOM     26  C   UNL     1     -10.109  -6.387  -0.836  0.00  0.00    +0.419 C 
ATOM     27  F   UNL     1     -11.286  -6.983  -1.301  0.00  0.00    -0.166 F 
ATOM     28  F   UNL     1     -10.426  -5.237  -0.105  0.00  0.00    -0.166 F 
ATOM     29  F   UNL     1      -9.301  -6.039  -1.924  0.00  0.00    -0.166 F 
ENDBRANCH  25  26
ENDBRANCH   7  20
TORSDOF 5
