REMARK  Name = ZINC07539057
REMARK  7 active torsions:
REMARK  status: ('A' for Active; 'I' for Inactive)
REMARK    1  A    between atoms: C_3  and  C_9
REMARK    2  A    between atoms: C_12  and  C_14
REMARK    3  A    between atoms: C_14  and  N_40
REMARK    4  A    between atoms: C_15  and  C_16
REMARK    5  A    between atoms: C_15  and  N_40
REMARK    6  A    between atoms: C_16  and  N_17
REMARK    7  A    between atoms: C_18  and  C_20
REMARK                            x       y       z     vdW  Elec       q    Type
REMARK                         _______ _______ _______ _____ _____    ______ ____
ROOT
ATOM      1  N   UNL     1       1.368   2.028  -0.000  0.00  0.00    +0.385 N 
ATOM      2  H   UNL     1       1.860   1.681   0.832  0.00  0.00    -0.085 HD
ATOM      3  H   UNL     1       1.844   1.690  -0.845  0.00  0.00    -0.085 HD
ENDROOT
BRANCH   1   4
ATOM      4  C   UNL     1       1.379   3.503   0.008  0.00  0.00    -0.007 C 
BRANCH   4   8
ATOM      5  C   UNL     1       4.779   4.649   0.696  0.00  0.00    +0.136 A 
ATOM      6  C   UNL     1       4.809   4.671  -0.663  0.00  0.00    +0.050 A 
ATOM      7  C   UNL     1       3.541   4.240  -1.104  0.00  0.00    +0.043 A 
ATOM      8  C   UNL     1       2.806   3.987  -0.003  0.00  0.00    +0.089 A 
ATOM      9  O   UNL     1       3.558   4.232   1.082  0.00  0.00    -0.462 OA
BRANCH   5  12
ATOM     10  C   UNL     1       8.200   4.822   2.236  0.00  0.00    +0.021 A 
ATOM     11  C   UNL     1       7.162   4.469   1.399  0.00  0.00    +0.014 A 
ATOM     12  C   UNL     1       5.894   5.018   1.594  0.00  0.00    +0.036 A 
ATOM     13  C   UNL     1       5.681   5.914   2.645  0.00  0.00    +0.053 A 
ATOM     14  C   UNL     1       6.726   6.254   3.479  0.00  0.00    +0.040 A 
ATOM     15  C   UNL     1       7.983   5.710   3.276  0.00  0.00    +0.042 A 
ATOM     16 CL   UNL     1       9.293   6.142   4.330  0.00  0.00    -0.083 Cl
ATOM     17 CL   UNL     1       4.105   6.596   2.901  0.00  0.00    -0.083 Cl
ENDBRANCH   5  12
ENDBRANCH   4   8
ENDBRANCH   1   4
BRANCH   1  18
ATOM     18  C   UNL     1      -0.019   1.526   0.010  0.00  0.00    -0.063 C 
BRANCH  18  19
ATOM     19  C   UNL     1       0.002  -0.004   0.002  0.00  0.00    +0.085 C 
BRANCH  19  20
ATOM     20  N   UNL     1      -1.372  -0.511   0.012  0.00  0.00    -0.312 N 
ATOM     21  C   UNL     1      -1.601  -1.839   0.007  0.00  0.00    +0.269 C 
ATOM     22  O   UNL     1      -0.666  -2.616  -0.006  0.00  0.00    -0.268 OA
ATOM     23  H   UNL     1      -2.118   0.109   0.023  0.00  0.00    +0.149 HD
BRANCH  21  24
ATOM     24  C   UNL     1      -2.990  -2.352   0.018  0.00  0.00    +0.209 A 
ATOM     25  C   UNL     1      -3.460  -3.756   0.015  0.00  0.00    +0.192 A 
ATOM     26  N   UNL     1      -4.766  -3.620   0.029  0.00  0.00    -0.033 NA
ATOM     27  O   UNL     1      -5.048  -2.446   0.038  0.00  0.00    -0.240 OA
ATOM     28  N   UNL     1      -4.118  -1.675   0.038  0.00  0.00    -0.042 NA
ATOM     29  N   UNL     1      -2.708  -4.923   0.002  0.00  0.00    -0.339 N 
ATOM     30  H   UNL     1      -1.740  -4.876  -0.008  0.00  0.00    +0.144 HD
ATOM     31  H   UNL     1      -3.152  -5.786   0.001  0.00  0.00    +0.144 HD
ENDBRANCH  21  24
ENDBRANCH  19  20
ENDBRANCH  18  19
ENDBRANCH   1  18
TORSDOF 7
