REMARK  Name = ZINC14467889
REMARK  5 active torsions:
REMARK  status: ('A' for Active; 'I' for Inactive)
REMARK    1  A    between atoms: C_5  and  O_7
REMARK    2  A    between atoms: O_7  and  C_8
REMARK    3  A    between atoms: C_8  and  C_9
REMARK    4  A    between atoms: C_16  and  C_25
REMARK    5  A    between atoms: C_30  and  O_31
REMARK                            x       y       z     vdW  Elec       q    Type
REMARK                         _______ _______ _______ _____ _____    ______ ____
ROOT
ATOM      1  C   UNL     1      -3.967  -1.020   0.021  0.00  0.00    +0.004 A 
ATOM      2  C   UNL     1      -3.884  -2.392   0.162  0.00  0.00    +0.006 A 
ATOM      3  C   UNL     1      -2.659  -3.028   0.134  0.00  0.00    -0.016 A 
ATOM      4  C   UNL     1      -1.485  -2.296  -0.053  0.00  0.00    +0.074 A 
ATOM      5  C   UNL     1      -1.582  -0.905  -0.179  0.00  0.00    +0.142 A 
ATOM      6  C   UNL     1      -2.812  -0.278  -0.145  0.00  0.00    +0.047 A 
ATOM      7  N   UNL     1      -0.212  -2.865  -0.128  0.00  0.00    -0.334 N 
ATOM      8  C   UNL     1      -0.121  -4.316   0.103  0.00  0.00    +0.109 C 
ATOM      9  C   UNL     1      -1.325  -4.947  -0.564  0.00  0.00    +0.029 C 
ATOM     10  C   UNL     1      -2.541  -4.493   0.303  0.00  0.00    +0.049 C 
ATOM     11  C   UNL     1      -3.613  -5.433  -0.105  0.00  0.00    -0.023 C 
ATOM     12  C   UNL     1      -3.051  -6.573  -0.493  0.00  0.00    -0.030 C 
ATOM     13  C   UNL     1      -1.527  -6.458  -0.406  0.00  0.00    +0.033 C 
ATOM     14  H   UNL     1       0.246  -2.606  -0.988  0.00  0.00    +0.147 HD
ENDROOT
BRANCH   8  15
ATOM     15  C   UNL     1       1.146  -4.854  -0.509  0.00  0.00    +0.017 A 
ATOM     16  C   UNL     1       1.105  -5.500  -1.730  0.00  0.00    +0.029 A 
ATOM     17  C   UNL     1       2.268  -5.994  -2.293  0.00  0.00    +0.043 A 
ATOM     18  C   UNL     1       3.475  -5.844  -1.634  0.00  0.00    +0.043 A 
ATOM     19  C   UNL     1       3.522  -5.199  -0.412  0.00  0.00    +0.084 A 
ATOM     20  C   UNL     1       2.356  -4.698   0.151  0.00  0.00    +0.140 A 
ATOM     21 CL   UNL     1       5.037  -5.010   0.414  0.00  0.00    -0.080 Cl
ATOM     22 CL   UNL     1       2.212  -6.804  -3.827  0.00  0.00    -0.083 Cl
BRANCH  20  23
ATOM     23  O   UNL     1       2.399  -4.058   1.350  0.00  0.00    -0.505 OA
ATOM     24  H   UNL     1       2.311  -4.646   2.112  0.00  0.00    +0.292 HD
ENDBRANCH  20  23
ENDBRANCH   8  15
BRANCH   5  25
ATOM     25  O   UNL     1      -0.453  -0.165  -0.342  0.00  0.00    -0.488 OA
BRANCH  25  26
ATOM     26  C   UNL     1      -0.618   1.249  -0.471  0.00  0.00    +0.260 C 
BRANCH  26  27
ATOM     27  C   UNL     1       0.752   1.908  -0.645  0.00  0.00    +0.156 C 
ATOM     28  C   UNL     1       0.578   3.416  -0.910  0.00  0.00    +0.037 C 
ATOM     29  C   UNL     1       1.363   4.096   0.238  0.00  0.00    +0.031 C 
ATOM     30  C   UNL     1       2.321   2.965   0.691  0.00  0.00    +0.160 C 
ATOM     31  O   UNL     1       1.517   1.772   0.564  0.00  0.00    -0.373 OA
ENDBRANCH  26  27
ENDBRANCH  25  26
ENDBRANCH   5  25
TORSDOF 5
