REMARK  Name = ZINC64798821
REMARK  7 active torsions:
REMARK  status: ('A' for Active; 'I' for Inactive)
REMARK    1  A    between atoms: C_1  and  C_2
REMARK    2  A    between atoms: C_2  and  C_3
REMARK    3  A    between atoms: C_3  and  O_4
REMARK    4  A    between atoms: O_4  and  C_5
REMARK    5  A    between atoms: C_8  and  C_11
REMARK    6  A    between atoms: C_21  and  S_22
REMARK    7  A    between atoms: S_22  and  C_25
REMARK                            x       y       z     vdW  Elec       q    Type
REMARK                         _______ _______ _______ _____ _____    ______ ____
ROOT
ATOM      1  C   UNL     1      -7.071  -4.361  -0.638  0.00  0.00    +0.066 C 
ATOM      2  C   UNL     1      -7.095  -5.077   0.719  0.00  0.00    +0.109 C 
ATOM      3  C   UNL     1      -6.139  -6.237   0.721  0.00  0.00    +0.218 C 
ATOM      4  O   UNL     1      -5.511  -6.465   1.734  0.00  0.00    -0.275 OA
ATOM      5  N   UNL     1      -5.947  -7.033  -0.344  0.00  0.00    -0.283 N 
ATOM      6  C   UNL     1      -6.513  -6.654  -1.596  0.00  0.00    +0.070 A 
ATOM      7  C   UNL     1      -7.040  -5.396  -1.712  0.00  0.00    +0.021 A 
ATOM      8  S   UNL     1      -7.631  -5.338  -3.378  0.00  0.00    -0.097 S 
ATOM      9  C   UNL     1      -7.128  -6.981  -3.871  0.00  0.00    +0.074 A 
ATOM     10  C   UNL     1      -6.559  -7.456  -2.733  0.00  0.00    +0.122 A 
ATOM     11  H   UNL     1      -5.433  -7.851  -0.262  0.00  0.00    +0.155 HD
ENDROOT
BRANCH   1  15
ATOM     12  C   UNL     1      -3.589  -1.898  -0.907  0.00  0.00    +0.121 A 
ATOM     13  C   UNL     1      -4.851  -1.331  -1.016  0.00  0.00    +0.046 A 
ATOM     14  C   UNL     1      -5.975  -2.130  -0.929  0.00  0.00    +0.008 A 
ATOM     15  C   UNL     1      -5.843  -3.492  -0.733  0.00  0.00    -0.039 A 
ATOM     16  C   UNL     1      -4.587  -4.059  -0.624  0.00  0.00    +0.008 A 
ATOM     17  C   UNL     1      -3.459  -3.266  -0.716  0.00  0.00    +0.046 A 
BRANCH  12  18
ATOM     18  O   UNL     1      -2.482  -1.115  -0.993  0.00  0.00    -0.492 OA
BRANCH  18  19
ATOM     19  C   UNL     1      -2.691   0.285  -1.189  0.00  0.00    +0.229 C 
BRANCH  19  21
ATOM     20  C   UNL     1      -1.563   2.497  -1.471  0.00  0.00    +0.007 C 
ATOM     21  C   UNL     1      -1.339   0.998  -1.260  0.00  0.00    +0.038 C 
ENDBRANCH  19  21
ENDBRANCH  18  19
ENDBRANCH  12  18
ENDBRANCH   1  15
BRANCH  10  22
ATOM     22  S   UNL     1      -5.881  -9.082  -2.696  0.00  0.00    +0.027 S 
ATOM     23  O   UNL     1      -6.097  -9.642  -3.984  0.00  0.00    -0.164 OA
ATOM     24  O   UNL     1      -4.586  -8.969  -2.122  0.00  0.00    -0.164 OA
BRANCH  22  25
ATOM     25  C   UNL     1      -6.852 -10.026  -1.568  0.00  0.00    +0.094 A 
ATOM     26  C   UNL     1      -6.434 -10.181  -0.260  0.00  0.00    +0.029 A 
ATOM     27  C   UNL     1      -7.195 -10.921   0.626  0.00  0.00    +0.022 A 
ATOM     28  C   UNL     1      -8.375 -11.507   0.202  0.00  0.00    +0.041 A 
ATOM     29  C   UNL     1      -8.792 -11.351  -1.108  0.00  0.00    +0.022 A 
ATOM     30  C   UNL     1      -8.033 -10.606  -1.991  0.00  0.00    +0.029 A 
ATOM     31 CL   UNL     1      -9.331 -12.437   1.313  0.00  0.00    -0.084 Cl
ENDBRANCH  22  25
ENDBRANCH  10  22
TORSDOF 6
