REMARK  Name = ZINC36595163
REMARK  13 active torsions:
REMARK  status: ('A' for Active; 'I' for Inactive)
REMARK    1  A    between atoms: C_1  and  C_2
REMARK    2  A    between atoms: C_7  and  C_8
REMARK    3  A    between atoms: C_8  and  C_10
REMARK    4  A    between atoms: C_8  and  N_17
REMARK    5  A    between atoms: N_12  and  C_13
REMARK    6  A    between atoms: C_13  and  C_14
REMARK    7  A    between atoms: C_13  and  C_15
REMARK    8  A    between atoms: C_13  and  C_16
REMARK    9  A    between atoms: N_17  and  C_18
REMARK   10  A    between atoms: C_18  and  C_19
REMARK   11  A    between atoms: C_22  and  C_24
REMARK   12  A    between atoms: C_25  and  C_27
REMARK   13  A    between atoms: C_27  and  C_28
REMARK                            x       y       z     vdW  Elec       q    Type
REMARK                         _______ _______ _______ _____ _____    ______ ____
ROOT
ATOM      1  N   UNL     1       0.772  -0.655   3.921  0.00  0.00    -0.278 N 
ATOM      2  C   UNL     1       0.255  -1.772   4.469  0.00  0.00    +0.221 C 
ATOM      3  O   UNL     1      -0.842  -2.163   4.129  0.00  0.00    -0.275 OA
ENDROOT
BRANCH   1   4
ATOM      4  C   UNL     1       0.011   0.087   2.913  0.00  0.00    +0.193 C 
BRANCH   4  11
ATOM      5  C   UNL     1       1.947  -0.766   0.945  0.00  0.00    +0.044 C 
ATOM      6  C   UNL     1       0.524  -1.257   0.864  0.00  0.00    -0.045 A 
ATOM      7  C   UNL     1       0.147  -2.120  -0.148  0.00  0.00    +0.004 A 
ATOM      8  C   UNL     1      -1.157  -2.571  -0.221  0.00  0.00    +0.000 A 
ATOM      9  C   UNL     1      -2.085  -2.158   0.717  0.00  0.00    +0.000 A 
ATOM     10  C   UNL     1      -1.708  -1.296   1.730  0.00  0.00    +0.006 A 
ATOM     11  C   UNL     1      -0.402  -0.849   1.806  0.00  0.00    -0.015 A 
ENDBRANCH   4  11
BRANCH   4  12
ATOM     12  C   UNL     1      -1.217   0.684   3.550  0.00  0.00    +0.239 C 
ATOM     13  O   UNL     1      -1.499   0.411   4.697  0.00  0.00    -0.273 OA
ATOM     14  N   UNL     1      -2.003   1.521   2.844  0.00  0.00    -0.309 N 
ATOM     15  H   UNL     1      -1.824   1.678   1.904  0.00  0.00    +0.149 HD
BRANCH  14  16
ATOM     16  C   UNL     1      -3.128   2.196   3.497  0.00  0.00    +0.026 C 
ATOM     17  C   UNL     1      -2.606   3.059   4.648  0.00  0.00    +0.031 C 
ATOM     18  C   UNL     1      -3.851   3.082   2.481  0.00  0.00    +0.031 C 
ATOM     19  C   UNL     1      -4.101   1.149   4.045  0.00  0.00    +0.031 C 
ENDBRANCH  14  16
ENDBRANCH   4  12
ENDBRANCH   1   4
BRANCH   1  20
ATOM     20  C   UNL     1       2.097  -0.183   4.332  0.00  0.00    +0.183 C 
BRANCH  20  21
ATOM     21  C   UNL     1       1.949   0.807   5.459  0.00  0.00    +0.122 A 
ATOM     22  C   UNL     1       2.013   0.520   6.772  0.00  0.00    +0.046 A 
ATOM     23  C   UNL     1       1.823   1.736   7.467  0.00  0.00    +0.045 A 
ATOM     24  C   UNL     1       1.654   2.694   6.537  0.00  0.00    +0.102 A 
ATOM     25  O   UNL     1       1.737   2.126   5.323  0.00  0.00    -0.463 OA
ATOM     26  C   UNL     1       1.417   4.157   6.812  0.00  0.00    +0.086 C 
ENDBRANCH  20  21
ENDBRANCH   1  20
BRANCH   2  27
ATOM     27  C   UNL     1       1.038  -2.535   5.506  0.00  0.00    +0.131 C 
BRANCH  27  28
ATOM     28  C   UNL     1       0.242  -3.733   5.956  0.00  0.00    -0.039 A 
ATOM     29  C   UNL     1      -0.630  -3.623   7.022  0.00  0.00    +0.005 A 
ATOM     30  C   UNL     1      -1.360  -4.722   7.434  0.00  0.00    +0.015 A 
ATOM     31  C   UNL     1      -1.218  -5.932   6.779  0.00  0.00    +0.018 A 
ATOM     32  C   UNL     1      -0.345  -6.041   5.712  0.00  0.00    +0.015 A 
ATOM     33  C   UNL     1       0.381  -4.941   5.297  0.00  0.00    +0.005 A 
ATOM     34 BR   UNL     1      -2.216  -7.436   7.343  0.00  0.00    -0.050 Br
ENDBRANCH  27  28
ENDBRANCH   2  27
TORSDOF 8
