REMARK  Name = ZINC12850950
REMARK  12 active torsions:
REMARK  status: ('A' for Active; 'I' for Inactive)
REMARK    1  A    between atoms: C_1  and  O_2
REMARK    2  A    between atoms: O_2  and  C_3
REMARK    3  A    between atoms: C_8  and  C_9
REMARK    4  A    between atoms: C_9  and  C_10
REMARK    5  A    between atoms: C_10  and  C_11
REMARK    6  A    between atoms: N_13  and  C_14
REMARK    7  A    between atoms: N_13  and  C_22
REMARK    8  A    between atoms: C_14  and  C_15
REMARK    9  A    between atoms: C_15  and  C_16
REMARK   10  A    between atoms: C_23  and  N_38
REMARK   11  A    between atoms: N_24  and  C_31
REMARK   12  A    between atoms: C_31  and  C_32
REMARK                            x       y       z     vdW  Elec       q    Type
REMARK                         _______ _______ _______ _____ _____    ______ ____
ROOT
ATOM      1  C   UNL     1       0.737  -3.712  -2.382  0.00  0.00    +0.220 C 
ATOM      2  O   UNL     1      -0.471  -3.792  -2.292  0.00  0.00    -0.275 OA
ATOM      3  N   UNL     1       1.366  -4.207  -3.469  0.00  0.00    -0.264 N 
ENDROOT
BRANCH   3   4
ATOM      4  C   UNL     1       0.632  -4.903  -4.453  0.00  0.00    +0.140 A 
ATOM      5  C   UNL     1       0.009  -6.097  -4.150  0.00  0.00    +0.128 A 
ATOM      6  N   UNL     1      -0.699  -6.752  -5.130  0.00  0.00    -0.276 N 
ATOM      7  C   UNL     1      -0.783  -6.236  -6.370  0.00  0.00    +0.331 A 
ATOM      8  O   UNL     1      -1.414  -6.830  -7.223  0.00  0.00    -0.246 OA
ATOM      9  N   UNL     1      -0.182  -5.074  -6.683  0.00  0.00    -0.273 N 
ATOM     10  H   UNL     1      -0.258  -4.722  -7.584  0.00  0.00    +0.173 HD
ATOM     11  C   UNL     1       0.519  -4.390  -5.758  0.00  0.00    +0.277 A 
ATOM     12  O   UNL     1       1.056  -3.335  -6.051  0.00  0.00    -0.266 OA
BRANCH   5  13
ATOM     13  N   UNL     1       0.095  -6.625  -2.884  0.00  0.00    -0.343 N 
ATOM     14  H   UNL     1       0.567  -6.141  -2.188  0.00  0.00    +0.144 HD
ATOM     15  H   UNL     1      -0.317  -7.480  -2.686  0.00  0.00    +0.144 HD
ENDBRANCH   5  13
BRANCH   6  16
ATOM     16  C   UNL     1      -1.365  -8.020  -4.823  0.00  0.00    +0.163 C 
BRANCH  16  17
ATOM     17  C   UNL     1      -2.768  -7.747  -4.343  0.00  0.00    -0.028 A 
ATOM     18  C   UNL     1      -3.012  -7.553  -2.997  0.00  0.00    +0.005 A 
ATOM     19  C   UNL     1      -4.298  -7.302  -2.556  0.00  0.00    +0.000 A 
ATOM     20  C   UNL     1      -5.340  -7.246  -3.463  0.00  0.00    +0.000 A 
ATOM     21  C   UNL     1      -5.096  -7.440  -4.809  0.00  0.00    +0.000 A 
ATOM     22  C   UNL     1      -3.809  -7.686  -5.250  0.00  0.00    +0.005 A 
ENDBRANCH  16  17
ENDBRANCH   6  16
ENDBRANCH   3   4
BRANCH   1  23
ATOM     23  C   UNL     1       1.533  -3.060  -1.282  0.00  0.00    +0.101 C 
BRANCH  23  24
ATOM     24  C   UNL     1       0.586  -2.589  -0.177  0.00  0.00    +0.048 C 
BRANCH  24  30
ATOM     25  C   UNL     1       1.726  -0.596   0.830  0.00  0.00    +0.123 A 
ATOM     26  C   UNL     1       2.455   0.003   1.848  0.00  0.00    +0.046 A 
ATOM     27  C   UNL     1       2.841  -0.737   2.948  0.00  0.00    +0.004 A 
ATOM     28  C   UNL     1       2.502  -2.075   3.036  0.00  0.00    +0.000 A 
ATOM     29  C   UNL     1       1.776  -2.674   2.023  0.00  0.00    +0.007 A 
ATOM     30  C   UNL     1       1.383  -1.936   0.923  0.00  0.00    -0.005 A 
BRANCH  25  32
ATOM     31  C   UNL     1       1.734   1.506  -0.281  0.00  0.00    +0.277 C 
ATOM     32  O   UNL     1       1.345   0.131  -0.253  0.00  0.00    -0.495 OA
ENDBRANCH  25  32
ENDBRANCH  24  30
ENDBRANCH  23  24
ENDBRANCH   1  23
BRANCH   3  33
ATOM     33  C   UNL     1       2.810  -4.022  -3.626  0.00  0.00    +0.118 C 
BRANCH  33  34
ATOM     34  C   UNL     1       3.549  -5.189  -2.969  0.00  0.00    +0.050 C 
BRANCH  34  35
ATOM     35  C   UNL     1       5.035  -4.998  -3.131  0.00  0.00    -0.072 C 
ATOM     36  C   UNL     1       5.684  -4.436  -2.162  0.00  0.00    -0.028 C 
ATOM     37  C   UNL     1       7.161  -4.170  -2.182  0.00  0.00    +0.027 C 
ATOM     38  C   UNL     1       7.833  -5.011  -3.269  0.00  0.00    +0.004 C 
ATOM     39  C   UNL     1       7.050  -4.832  -4.576  0.00  0.00    +0.005 C 
ATOM     40  C   UNL     1       5.672  -5.477  -4.403  0.00  0.00    +0.030 C 
ENDBRANCH  34  35
ENDBRANCH  33  34
ENDBRANCH   3  33
TORSDOF 11
