REMARK  Name = ZINC59005371
REMARK  11 active torsions:
REMARK  status: ('A' for Active; 'I' for Inactive)
REMARK    1  A    between atoms: C_1  and  N_2
REMARK    2  A    between atoms: N_2  and  C_3
REMARK    3  A    between atoms: N_2  and  C_4
REMARK    4  A    between atoms: C_7  and  C_10
REMARK    5  A    between atoms: N_11  and  N_12
REMARK    6  A    between atoms: C_15  and  S_18
REMARK    7  A    between atoms: S_18  and  C_19
REMARK    8  A    between atoms: C_19  and  C_20
REMARK    9  A    between atoms: C_26  and  S_28
REMARK   10  A    between atoms: S_28  and  C_29
REMARK   11  A    between atoms: C_29  and  C_30
REMARK                            x       y       z     vdW  Elec       q    Type
REMARK                         _______ _______ _______ _____ _____    ______ ____
ROOT
ATOM      1  N   UNL     1      -7.181  -2.974   0.048  0.00  0.00    -0.205 N 
ATOM      2  C   UNL     1      -8.388  -2.299   0.058  0.00  0.00    +0.232 A 
ATOM      3  N   UNL     1      -8.543  -0.992   0.055  0.00  0.00    -0.186 NA
ATOM      4  C   UNL     1      -9.847  -0.694   0.066  0.00  0.00    +0.211 A 
ATOM      5  N   UNL     1     -10.539  -1.809   0.075  0.00  0.00    -0.144 NA
ATOM      6  N   UNL     1      -9.614  -2.865   0.065  0.00  0.00    -0.245 N 
ATOM      7  H   UNL     1      -7.168  -3.944   0.047  0.00  0.00    +0.177 HD
ATOM      8  H   UNL     1      -9.816  -3.814   0.065  0.00  0.00    +0.192 HD
ENDROOT
BRANCH   1  10
ATOM      9  C   UNL     1      -4.845  -2.891   0.032  0.00  0.00    +0.138 C 
ATOM     10  N   UNL     1      -5.978  -2.257   0.041  0.00  0.00    -0.188 NA
BRANCH   9  14
ATOM     11  C   UNL     1      -1.197  -0.718   0.010  0.00  0.00    +0.029 A 
ATOM     12  C   UNL     1      -1.176  -2.109   0.008  0.00  0.00    +0.024 A 
ATOM     13  C   UNL     1      -2.357  -2.817   0.015  0.00  0.00    +0.011 A 
ATOM     14  C   UNL     1      -3.578  -2.137   0.025  0.00  0.00    -0.005 A 
ATOM     15  C   UNL     1      -3.595  -0.739   0.027  0.00  0.00    +0.011 A 
ATOM     16  C   UNL     1      -2.409  -0.037   0.025  0.00  0.00    +0.024 A 
BRANCH  11  18
ATOM     17  C   UNL     1      -0.018   1.461   0.010  0.00  0.00    +0.129 C 
ATOM     18  N   UNL     1       0.002  -0.004   0.002  0.00  0.00    -0.336 N 
ATOM     19  C   UNL     1       1.281  -0.719  -0.014  0.00  0.00    +0.129 C 
ENDBRANCH  11  18
ENDBRANCH   9  14
ENDBRANCH   1  10
BRANCH   4  20
ATOM     20  S   UNL     1     -10.526   0.932   0.068  0.00  0.00    -0.075 S 
BRANCH  20  21
ATOM     21  C   UNL     1     -12.319   0.659   0.084  0.00  0.00    +0.173 C 
BRANCH  21  22
ATOM     22  C   UNL     1     -13.030   1.988   0.087  0.00  0.00    +0.229 C 
ATOM     23  O   UNL     1     -12.389   3.018   0.079  0.00  0.00    -0.275 OA
ATOM     24  N   UNL     1     -14.377   2.032   0.099  0.00  0.00    -0.263 N 
ATOM     25  C   UNL     1     -15.033   3.260   0.101  0.00  0.00    +0.189 A 
ATOM     26  N   UNL     1     -14.540   4.488   0.088  0.00  0.00    -0.125 NA
ATOM     27  N   UNL     1     -15.284   5.507   0.092  0.00  0.00    -0.133 NA
ATOM     28  C   UNL     1     -16.605   5.410   0.111  0.00  0.00    +0.160 A 
ATOM     29  S   UNL     1     -16.785   3.629   0.116  0.00  0.00    -0.024 S 
ATOM     30  H   UNL     1     -14.889   1.208   0.105  0.00  0.00    +0.157 HD
BRANCH  28  31
ATOM     31  S   UNL     1     -17.833   6.673   0.121  0.00  0.00    -0.093 S 
BRANCH  31  32
ATOM     32  C   UNL     1     -16.878   8.215   0.100  0.00  0.00    +0.103 C 
BRANCH  32  33
ATOM     33  C   UNL     1     -17.821   9.391   0.107  0.00  0.00    -0.023 C 
ATOM     34  C   UNL     1     -17.842  10.207   1.131  0.00  0.00    +0.005 C 
ENDBRANCH  32  33
ENDBRANCH  31  32
ENDBRANCH  28  31
ENDBRANCH  21  22
ENDBRANCH  20  21
ENDBRANCH   4  20
TORSDOF 9
