REMARK  Name = ZINC13646853
REMARK  6 active torsions:
REMARK  status: ('A' for Active; 'I' for Inactive)
REMARK    1  A    between atoms: C_1  and  C_2
REMARK    2  A    between atoms: C_5  and  C_8
REMARK    3  A    between atoms: C_11  and  N_22
REMARK    4  A    between atoms: N_12  and  C_13
REMARK    5  A    between atoms: C_13  and  C_15
REMARK    6  A    between atoms: C_18  and  C_21
REMARK                            x       y       z     vdW  Elec       q    Type
REMARK                         _______ _______ _______ _____ _____    ______ ____
ROOT
ATOM      1  C   UNL     1       0.227  -4.193   0.211  0.00  0.00    +0.250 C 
ATOM      2  O   UNL     1       0.199  -4.657  -0.912  0.00  0.00    -0.270 OA
ATOM      3  N   UNL     1       0.216  -5.014   1.280  0.00  0.00    -0.252 N 
ATOM      4  C   UNL     1       0.174  -6.381   1.099  0.00  0.00    +0.216 C 
ATOM      5  N   UNL     1       0.265  -7.195   2.150  0.00  0.00    -0.143 NA
ATOM      6  H   UNL     1       0.238  -4.644   2.176  0.00  0.00    +0.158 HD
ENDROOT
BRANCH   4   7
ATOM      7  N   UNL     1       0.041  -6.888  -0.128  0.00  0.00    -0.192 NA
ATOM      8  C   UNL     1      -0.120  -8.197  -0.292  0.00  0.00    +0.175 A 
ATOM      9  N   UNL     1      -0.296  -9.141   0.668  0.00  0.00    -0.333 N 
ATOM     10  H   UNL     1      -0.315  -8.886   1.603  0.00  0.00    +0.168 HD
ATOM     11  C   UNL     1      -0.450 -10.467   0.307  0.00  0.00    +0.055 A 
ATOM     12  C   UNL     1      -0.641 -11.590   1.124  0.00  0.00    +0.027 A 
ATOM     13  C   UNL     1      -0.774 -12.843   0.572  0.00  0.00    +0.002 A 
ATOM     14  C   UNL     1      -0.723 -13.031  -0.799  0.00  0.00    +0.001 A 
ATOM     15  C   UNL     1      -0.535 -11.939  -1.627  0.00  0.00    +0.017 A 
ATOM     16  C   UNL     1      -0.402 -10.686  -1.077  0.00  0.00    +0.039 A 
ATOM     17  S   UNL     1      -0.160  -9.057  -1.736  0.00  0.00    -0.050 S 
ENDBRANCH   4   7
BRANCH   1  22
ATOM     18  C   UNL     1       0.403   1.508   0.965  0.00  0.00    +0.044 C 
ATOM     19  C   UNL     1       0.357   0.015   0.767  0.00  0.00    -0.050 A 
ATOM     20  C   UNL     1       0.326  -0.510  -0.513  0.00  0.00    +0.004 A 
ATOM     21  C   UNL     1       0.284  -1.876  -0.700  0.00  0.00    +0.013 A 
ATOM     22  C   UNL     1       0.273  -2.729   0.405  0.00  0.00    +0.037 A 
ATOM     23  C   UNL     1       0.304  -2.193   1.693  0.00  0.00    +0.013 A 
ATOM     24  C   UNL     1       0.352  -0.825   1.867  0.00  0.00    +0.004 A 
ENDBRANCH   1  22
BRANCH   5  25
ATOM     25  C   UNL     1       0.285  -6.689   3.386  0.00  0.00    +0.270 C 
ATOM     26  O   UNL     1      -0.591  -5.922   3.746  0.00  0.00    -0.268 OA
BRANCH  25  27
ATOM     27  C   UNL     1       1.373  -7.061   4.321  0.00  0.00    +0.039 A 
ATOM     28  C   UNL     1       2.381  -7.934   3.910  0.00  0.00    +0.013 A 
ATOM     29  C   UNL     1       3.391  -8.277   4.785  0.00  0.00    +0.004 A 
ATOM     30  C   UNL     1       3.407  -7.756   6.066  0.00  0.00    -0.050 A 
ATOM     31  C   UNL     1       2.411  -6.890   6.479  0.00  0.00    +0.004 A 
ATOM     32  C   UNL     1       1.398  -6.535   5.612  0.00  0.00    +0.013 A 
ATOM     33  C   UNL     1       4.514  -8.134   7.016  0.00  0.00    +0.044 C 
ENDBRANCH  25  27
ENDBRANCH   5  25
TORSDOF 4
