REMARK  Name = ZINC14457454
REMARK  8 active torsions:
REMARK  status: ('A' for Active; 'I' for Inactive)
REMARK    1  A    between atoms: C_1  and  O_2
REMARK    2  A    between atoms: O_2  and  C_3
REMARK    3  A    between atoms: C_6  and  C_10
REMARK    4  A    between atoms: C_8  and  O_9
REMARK    5  A    between atoms: C_21  and  S_26
REMARK    6  A    between atoms: S_26  and  N_29
REMARK    7  A    between atoms: N_29  and  C_30
REMARK    8  A    between atoms: C_30  and  C_31
REMARK                            x       y       z     vdW  Elec       q    Type
REMARK                         _______ _______ _______ _____ _____    ______ ____
ROOT
ATOM      1  C   UNL     1      -2.561   5.274   0.031  0.00  0.00    +0.105 C 
ATOM      2  C   UNL     1      -1.361   5.755  -0.765  0.00  0.00    +0.029 C 
ATOM      3  C   UNL     1      -1.084   7.264  -0.771  0.00  0.00    +0.033 C 
ATOM      4  C   UNL     1       0.435   7.297  -0.950  0.00  0.00    -0.030 C 
ATOM      5  C   UNL     1       0.971   6.174  -0.487  0.00  0.00    -0.023 C 
ATOM      6  C   UNL     1      -0.114   5.321   0.062  0.00  0.00    +0.049 C 
ATOM      7  C   UNL     1      -0.039   3.845   0.029  0.00  0.00    -0.018 A 
ATOM      8  C   UNL     1       1.159   3.164   0.014  0.00  0.00    +0.034 A 
ATOM      9  C   UNL     1       1.177   1.782   0.000  0.00  0.00    +0.106 A 
ATOM     10  C   UNL     1      -0.013   1.076   0.008  0.00  0.00    +0.030 A 
ATOM     11  C   UNL     1      -1.218   1.748   0.017  0.00  0.00    +0.025 A 
ATOM     12  C   UNL     1      -1.246   3.137   0.027  0.00  0.00    +0.031 A 
ATOM     13  N   UNL     1      -2.481   3.796   0.018  0.00  0.00    -0.336 N 
ATOM     14  H   UNL     1      -3.299   3.276   0.002  0.00  0.00    +0.147 HD
ENDROOT
BRANCH   1  18
ATOM     15  C   UNL     1      -6.185   6.570  -1.833  0.00  0.00    +0.161 A 
ATOM     16  C   UNL     1      -5.511   5.461  -2.319  0.00  0.00    +0.050 A 
ATOM     17  C   UNL     1      -4.337   5.048  -1.718  0.00  0.00    +0.009 A 
ATOM     18  C   UNL     1      -3.838   5.732  -0.625  0.00  0.00    -0.023 A 
ATOM     19  C   UNL     1      -4.506   6.839  -0.135  0.00  0.00    +0.054 A 
ATOM     20  C   UNL     1      -5.680   7.262  -0.736  0.00  0.00    +0.159 A 
BRANCH  15  22
ATOM     21  C   UNL     1      -7.796   6.223  -3.548  0.00  0.00    +0.277 C 
ATOM     22  O   UNL     1      -7.337   6.981  -2.427  0.00  0.00    -0.491 OA
ENDBRANCH  15  22
BRANCH  20  23
ATOM     23  O   UNL     1      -6.339   8.350  -0.256  0.00  0.00    -0.503 OA
ATOM     24  H   UNL     1      -6.064   9.186  -0.658  0.00  0.00    +0.292 HD
ENDBRANCH  20  23
ENDBRANCH   1  18
BRANCH   9  25
ATOM     25  S   UNL     1       2.713   0.920  -0.026  0.00  0.00    +0.058 S 
ATOM     26  O   UNL     1       3.683   1.802   0.522  0.00  0.00    -0.153 OA
ATOM     27  O   UNL     1       2.465  -0.370   0.516  0.00  0.00    -0.153 OA
BRANCH  25  28
ATOM     28  N   UNL     1       3.122   0.695  -1.615  0.00  0.00    -0.187 NA
ATOM     29  H   UNL     1       3.166  -0.202  -1.982  0.00  0.00    +0.148 HD
BRANCH  28  30
ATOM     30  C   UNL     1       3.416   1.851  -2.466  0.00  0.00    +0.137 C 
BRANCH  30  31
ATOM     31  C   UNL     1       4.114   1.379  -3.743  0.00  0.00    +0.134 C 
ATOM     32  C   UNL     1       4.546   2.590  -4.599  0.00  0.00    +0.035 C 
ATOM     33  C   UNL     1       4.310   2.125  -6.054  0.00  0.00    +0.031 C 
ATOM     34  C   UNL     1       3.763   0.688  -5.905  0.00  0.00    +0.160 C 
ATOM     35  O   UNL     1       3.191   0.647  -4.579  0.00  0.00    -0.375 OA
ENDBRANCH  30  31
ENDBRANCH  28  30
ENDBRANCH  25  28
ENDBRANCH   9  25
TORSDOF 7
