REMARK  Name = ZINC06175663
REMARK  6 active torsions:
REMARK  status: ('A' for Active; 'I' for Inactive)
REMARK    1  A    between atoms: C_1  and  C_2
REMARK    2  A    between atoms: C_8  and  C_9
REMARK    3  A    between atoms: C_8  and  N_53
REMARK    4  A    between atoms: C_15  and  O_30
REMARK    5  A    between atoms: C_16  and  C_21
REMARK    6  A    between atoms: C_17  and  N_20
REMARK                            x       y       z     vdW  Elec       q    Type
REMARK                         _______ _______ _______ _____ _____    ______ ____
ROOT
ATOM      1  C   UNL     1       0.089   0.098   0.343  0.00  0.00    +0.026 A 
ATOM      2  C   UNL     1       0.155   1.474   0.580  0.00  0.00    +0.184 A 
ATOM      3  O   UNL     1      -0.969   2.172   0.757  0.00  0.00    -0.288 OA
ATOM      4  C   UNL     1       1.399   2.127   0.627  0.00  0.00    +0.052 A 
ATOM      5  C   UNL     1       2.549   1.425   0.443  0.00  0.00    +0.019 A 
ATOM      6  C   UNL     1       2.497   0.042   0.203  0.00  0.00    +0.060 A 
ATOM      7  C   UNL     1       3.686  -0.701   0.008  0.00  0.00    +0.142 A 
ATOM      8  C   UNL     1       3.577  -2.082  -0.227  0.00  0.00    +0.106 A 
ATOM      9  C   UNL     1       2.312  -2.676  -0.262  0.00  0.00    +0.198 A 
ATOM     10  O   UNL     1       1.201  -1.953  -0.076  0.00  0.00    -0.440 OA
ATOM     11  C   UNL     1       1.252  -0.623   0.154  0.00  0.00    +0.146 A 
ENDROOT
BRANCH   8  12
ATOM     12  C   UNL     1       4.788  -2.898  -0.435  0.00  0.00    +0.118 A 
ATOM     13  N   UNL     1       6.039  -2.505  -0.551  0.00  0.00    -0.239 NA
ATOM     14  C   UNL     1       7.056  -3.372  -0.735  0.00  0.00    +0.079 A 
ATOM     15  C   UNL     1       8.435  -3.085  -0.870  0.00  0.00    +0.029 A 
ATOM     16  C   UNL     1       9.339  -4.083  -1.058  0.00  0.00    +0.002 A 
ATOM     17  C   UNL     1       8.952  -5.414  -1.126  0.00  0.00    +0.001 A 
ATOM     18  C   UNL     1       7.613  -5.737  -0.999  0.00  0.00    +0.017 A 
ATOM     19  C   UNL     1       6.692  -4.737  -0.808  0.00  0.00    +0.040 A 
ATOM     20  S   UNL     1       4.929  -4.672  -0.600  0.00  0.00    -0.067 S 
ENDBRANCH   8  12
BRANCH   9  21
ATOM     21  N   UNL     1       2.208  -4.015  -0.490  0.00  0.00    -0.329 N 
ATOM     22  H   UNL     1       2.896  -4.476  -0.995  0.00  0.00    +0.145 HD
ATOM     23  H   UNL     1       1.446  -4.508  -0.148  0.00  0.00    +0.145 HD
ENDBRANCH   9  21
BRANCH   7  24
ATOM     24  O   UNL     1       4.893  -0.098   0.048  0.00  0.00    -0.505 OA
ATOM     25  H   UNL     1       5.197   0.229  -0.809  0.00  0.00    +0.292 HD
ENDBRANCH   7  24
BRANCH   1  26
ATOM     26  C   UNL     1      -1.247  -0.598   0.294  0.00  0.00    -0.035 C 
BRANCH  26  33
ATOM     27  C   UNL     1      -4.734  -2.223  -2.770  0.00  0.00    +0.005 C 
ATOM     28  C   UNL     1      -3.521  -1.304  -2.624  0.00  0.00    -0.031 C 
ATOM     29  C   UNL     1      -2.459  -1.687  -3.659  0.00  0.00    -0.001 C 
ATOM     30  C   UNL     1      -1.226  -0.801  -3.466  0.00  0.00    -0.018 C 
ATOM     31  C   UNL     1      -0.705  -0.965  -2.036  0.00  0.00    -0.078 C 
ATOM     32  C   UNL     1      -2.933  -1.453  -1.219  0.00  0.00    -0.075 C 
ATOM     33  N   UNL     1      -1.764  -0.557  -1.090  0.00  0.00    +0.383 N 
ATOM     34  H   UNL     1      -2.054   0.403  -1.309  0.00  0.00    -0.081 HD
ENDBRANCH  26  33
ENDBRANCH   1  26
TORSDOF 5
