REMARK  Name = ZINC34998095
REMARK  10 active torsions:
REMARK  status: ('A' for Active; 'I' for Inactive)
REMARK    1  A    between atoms: C_1  and  C_2
REMARK    2  A    between atoms: C_2  and  N_3
REMARK    3  A    between atoms: N_6  and  C_7
REMARK    4  A    between atoms: N_6  and  C_25
REMARK    5  A    between atoms: C_7  and  C_8
REMARK    6  A    between atoms: C_8  and  N_9
REMARK    7  A    between atoms: C_15  and  C_17
REMARK    8  A    between atoms: C_25  and  C_26
REMARK    9  A    between atoms: C_34  and  C_35
REMARK   10  A    between atoms: C_34  and  C_36
REMARK                            x       y       z     vdW  Elec       q    Type
REMARK                         _______ _______ _______ _____ _____    ______ ____
ROOT
ATOM      1  C   UNL     1       1.007  -2.977  -3.899  0.00  0.00    +0.091 C 
ENDROOT
BRANCH   1   5
ATOM      2  N   UNL     1      -0.298   0.319  -2.925  0.00  0.00    -0.299 N 
ATOM      3  C   UNL     1       0.017  -0.991  -2.894  0.00  0.00    +0.302 C 
ATOM      4  O   UNL     1      -0.283  -1.665  -1.928  0.00  0.00    -0.253 OA
ATOM      5  N   UNL     1       0.665  -1.553  -3.933  0.00  0.00    -0.283 N 
ATOM      6  H   UNL     1      -0.058   0.858  -3.696  0.00  0.00    +0.150 HD
BRANCH   2   8
ATOM      7  C   UNL     1      -1.235   2.415  -2.083  0.00  0.00    +0.024 C 
ATOM      8  C   UNL     1      -1.002   0.931  -1.795  0.00  0.00    +0.102 C 
ENDBRANCH   2   8
BRANCH   5   9
ATOM      9  C   UNL     1       1.026  -0.741  -5.097  0.00  0.00    +0.140 C 
BRANCH   9  10
ATOM     10  C   UNL     1       2.397  -0.148  -4.890  0.00  0.00    -0.053 C 
ATOM     11  C   UNL     1       3.471  -0.730  -5.371  0.00  0.00    -0.025 C 
ATOM     12  C   UNL     1       4.826  -0.108  -5.134  0.00  0.00    +0.031 C 
ATOM     13  C   UNL     1       4.661   1.220  -4.383  0.00  0.00    -0.000 C 
ATOM     14  C   UNL     1       3.530   2.092  -4.955  0.00  0.00    +0.012 C 
ATOM     15  C   UNL     1       2.587   1.148  -4.122  0.00  0.00    +0.022 C 
ATOM     16  C   UNL     1       3.771   1.039  -3.137  0.00  0.00    -0.025 C 
ATOM     17  C   UNL     1       3.856   2.198  -2.141  0.00  0.00    +0.012 C 
ATOM     18  C   UNL     1       3.905  -0.334  -2.474  0.00  0.00    +0.012 C 
ENDBRANCH   9  10
ENDBRANCH   5   9
ENDBRANCH   1   5
BRANCH   1  19
ATOM     19  C   UNL     1      -0.139  -3.792  -4.503  0.00  0.00    -0.059 C 
BRANCH  19  20
ATOM     20  N   UNL     1       0.204  -5.220  -4.469  0.00  0.00    +0.383 N 
ATOM     21  C   UNL     1       1.365  -5.463  -5.334  0.00  0.00    -0.059 C 
ATOM     22  C   UNL     1       1.794  -6.929  -5.211  0.00  0.00    +0.089 C 
ATOM     23  N   UNL     1       0.631  -7.781  -5.502  0.00  0.00    -0.301 N 
ATOM     24  C   UNL     1      -0.628  -7.501  -4.794  0.00  0.00    +0.089 C 
ATOM     25  C   UNL     1      -0.943  -6.008  -4.938  0.00  0.00    -0.059 C 
ATOM     26  C   UNL     1       0.717  -8.791  -6.390  0.00  0.00    +0.247 C 
ATOM     27  O   UNL     1      -0.234  -9.528  -6.566  0.00  0.00    -0.270 OA
ATOM     28  H   UNL     1       0.430  -5.487  -3.523  0.00  0.00    -0.082 HD
BRANCH  26  29
ATOM     29  C   UNL     1       1.966  -9.002  -7.151  0.00  0.00    +0.038 A 
ATOM     30  C   UNL     1       3.194  -9.029  -6.488  0.00  0.00    +0.014 A 
ATOM     31  C   UNL     1       4.357  -9.226  -7.202  0.00  0.00    +0.022 A 
ATOM     32  C   UNL     1       4.309  -9.396  -8.576  0.00  0.00    +0.059 A 
ATOM     33  C   UNL     1       3.093  -9.370  -9.241  0.00  0.00    +0.060 A 
ATOM     34  C   UNL     1       1.922  -9.180  -8.535  0.00  0.00    +0.034 A 
ATOM     35 CL   UNL     1       3.042  -9.585 -10.963  0.00  0.00    -0.082 Cl
ATOM     36 CL   UNL     1       5.777  -9.643  -9.469  0.00  0.00    -0.082 Cl
ENDBRANCH  26  29
ENDBRANCH  19  20
ENDBRANCH   1  19
TORSDOF 7
