REMARK  Name = ZINC38558048
REMARK  8 active torsions:
REMARK  status: ('A' for Active; 'I' for Inactive)
REMARK    1  A    between atoms: C_1  and  C_2
REMARK    2  A    between atoms: C_2  and  C_3
REMARK    3  A    between atoms: C_2  and  C_4
REMARK    4  A    between atoms: C_7  and  C_10
REMARK    5  A    between atoms: C_12  and  C_24
REMARK    6  A    between atoms: N_26  and  CA_27
REMARK    7  A    between atoms: CA_27  and  C_28
REMARK    8  A    between atoms: C_28  and  O_29
REMARK                            x       y       z     vdW  Elec       q    Type
REMARK                         _______ _______ _______ _____ _____    ______ ____
ROOT
ATOM      1  C   UNK A   1       2.781  -1.908   4.657  0.00  0.00    +0.076 C 
ATOM      2  N   UNK A   1       4.060  -1.653   4.819  0.00  0.00    -0.244 NA
ATOM      3  C   UNK A   1       4.752  -1.934   5.934  0.00  0.00    +0.126 C 
ATOM      4  C   UNK A   1       4.105  -2.259   7.127  0.00  0.00    +0.039 C 
ATOM      5  C   UNK A   1       2.737  -2.473   7.038  0.00  0.00    -0.008 C 
ATOM      6  C   UNK A   1       1.708  -2.489   7.942  0.00  0.00    +0.004 A 
ATOM      7  C   UNK A   1       1.689  -2.546   9.355  0.00  0.00    +0.010 A 
ATOM      8  C   UNK A   1       0.467  -2.493   9.958  0.00  0.00    +0.001 A 
ATOM      9  C   UNK A   1      -0.733  -2.387   9.253  0.00  0.00    +0.002 A 
ATOM     10  C   UNK A   1      -0.805  -2.349   7.895  0.00  0.00    +0.026 A 
ATOM     11  C   UNK A   1       0.427  -2.420   7.184  0.00  0.00    +0.044 A 
ATOM     12  N   UNK A   1       0.650  -2.465   5.894  0.00  0.00    -0.372 N 
ATOM     13  C   UNK A   1       2.061  -2.691   5.697  0.00  0.00    +0.160 C 
ATOM     14  H   UNK A   1      -0.016  -2.362   5.196  0.00  0.00    +0.161 HD
ENDROOT
BRANCH   1  18
ATOM     15  C   UNK A   1       0.730  -0.502   1.224  0.00  0.00    -0.045 A 
ATOM     16  C   UNK A   1       0.271  -1.627   1.888  0.00  0.00    +0.004 A 
ATOM     17  C   UNK A   1       0.931  -2.091   3.005  0.00  0.00    +0.010 A 
ATOM     18  C   UNK A   1       2.071  -1.421   3.468  0.00  0.00    -0.001 A 
ATOM     19  C   UNK A   1       2.529  -0.284   2.790  0.00  0.00    +0.010 A 
ATOM     20  C   UNK A   1       1.859   0.163   1.671  0.00  0.00    +0.004 A 
BRANCH  15  22
ATOM     21  C   UNK A   1      -0.010  -1.095  -1.067  0.00  0.00    +0.012 C 
ATOM     22  C   UNK A   1       0.001  -0.002   0.004  0.00  0.00    +0.013 C 
ATOM     23  C   UNK A   1      -1.438   0.356   0.381  0.00  0.00    +0.012 C 
ENDBRANCH  15  22
ENDBRANCH   1  18
BRANCH   3  24
ATOM     24  C   UNK A   1       6.231  -1.897   5.897  0.00  0.00    +0.262 C 
ATOM     25  O   UNK A   1       6.870  -2.150   6.900  0.00  0.00    -0.269 OA
ATOM     26  N   GLY A   2       6.870  -1.585   4.752  0.00  0.00    -0.308 N 
ATOM     27  H   GLY A   2       6.359  -1.384   3.952  0.00  0.00    +0.149 HD
BRANCH  26  28
ATOM     28  CA  GLY A   2       8.334  -1.549   4.716  0.00  0.00    +0.132 C 
BRANCH  28  29
ATOM     29  C   GLY A   2       8.800  -1.171   3.308  0.00  0.00    +0.174 C 
BRANCH  29  30
ATOM     30  O   GLY A   2       8.382   0.163   3.010  0.00  0.00    -0.393 OA
ATOM     31  H   GLY A   2       8.643   0.470   2.132  0.00  0.00    +0.209 HD
ENDBRANCH  29  30
ENDBRANCH  28  29
ENDBRANCH  26  28
ENDBRANCH   3  24
TORSDOF 6
