REMARK  Name = ZINC33010943
REMARK  5 active torsions:
REMARK  status: ('A' for Active; 'I' for Inactive)
REMARK    1  A    between atoms: C_6  and  S_7
REMARK    2  A    between atoms: S_7  and  C_8
REMARK    3  A    between atoms: C_8  and  C_9
REMARK    4  A    between atoms: C_23  and  O_31
REMARK    5  A    between atoms: C_26  and  C_28
REMARK                            x       y       z     vdW  Elec       q    Type
REMARK                         _______ _______ _______ _____ _____    ______ ____
ROOT
ATOM      1  C   UNL     1       0.947   4.297  -4.523  0.00  0.00    +0.142 A 
ATOM      2  N   UNL     1       1.101   3.473  -3.502  0.00  0.00    -0.216 NA
ATOM      3  C   UNL     1       0.337   2.405  -3.337  0.00  0.00    +0.134 A 
ATOM      4  C   UNL     1      -0.693   2.143  -4.282  0.00  0.00    +0.051 A 
ATOM      5  C   UNL     1      -1.658   1.031  -4.298  0.00  0.00    -0.025 A 
ATOM      6  C   UNL     1      -2.538   1.006  -5.312  0.00  0.00    -0.004 A 
ATOM      7  S   UNL     1      -2.152   2.437  -6.295  0.00  0.00    -0.073 S 
ATOM      8  C   UNL     1      -0.800   3.066  -5.337  0.00  0.00    +0.114 A 
ATOM      9  N   UNL     1       0.009   4.104  -5.430  0.00  0.00    -0.224 NA
ATOM     10  C   UNL     1      -3.470  -0.173  -5.226  0.00  0.00    +0.043 C 
ATOM     11  C   UNL     1      -2.779  -1.142  -4.242  0.00  0.00    +0.010 C 
ATOM     12  C   UNL     1      -1.930  -0.175  -3.394  0.00  0.00    +0.037 C 
ATOM     13  N   UNL     1       0.532   1.561  -2.259  0.00  0.00    -0.300 N 
ATOM     14  C   UNL     1      -0.098   2.111  -1.031  0.00  0.00    +0.138 C 
ATOM     15  C   UNL     1       0.640   1.368   0.110  0.00  0.00    +0.134 C 
ATOM     16  C   UNL     1       2.090   1.275  -0.418  0.00  0.00    +0.064 C 
ATOM     17  C   UNL     1       1.971   1.425  -1.946  0.00  0.00    +0.163 C 
ENDROOT
BRANCH  17  18
ATOM     18  C   UNL     1       2.535   0.204  -2.627  0.00  0.00    +0.231 C 
ATOM     19  O   UNL     1       1.821  -0.486  -3.323  0.00  0.00    -0.274 OA
ATOM     20  N   UNL     1       3.833  -0.121  -2.462  0.00  0.00    -0.328 N 
ATOM     21  H   UNL     1       4.244  -1.012  -2.959  0.00  0.00    +0.145 HD
ATOM     22  H   UNL     1       4.480   0.505  -1.831  0.00  0.00    +0.145 HD
ENDBRANCH  17  18
BRANCH  15  23
ATOM     23  O   UNL     1       0.591   2.120   1.324  0.00  0.00    -0.390 OA
ATOM     24  H   UNL     1       1.071   1.729   2.233  0.00  0.00    +0.210 HD
ENDBRANCH  15  23
BRANCH   1  25
ATOM     25  C   UNL     1       1.859   5.490  -4.650  0.00  0.00    +0.150 C 
BRANCH  25  26
ATOM     26  S   UNL     1       1.134   6.902  -3.772  0.00  0.00    -0.117 S 
BRANCH  26  32
ATOM     27  C   UNL     1       3.462   7.966  -4.742  0.00  0.00    +0.016 A 
ATOM     28  C   UNL     1       4.373   8.985  -4.932  0.00  0.00    +0.021 A 
ATOM     29  C   UNL     1       4.139  10.235  -4.386  0.00  0.00    +0.041 A 
ATOM     30  C   UNL     1       2.988  10.469  -3.654  0.00  0.00    +0.021 A 
ATOM     31  C   UNL     1       2.070   9.455  -3.465  0.00  0.00    +0.016 A 
ATOM     32  C   UNL     1       2.303   8.199  -4.011  0.00  0.00    +0.008 A 
ATOM     33 CL   UNL     1       5.291  11.513  -4.622  0.00  0.00    -0.084 Cl
ENDBRANCH  26  32
ENDBRANCH  25  26
ENDBRANCH   1  25
TORSDOF 5
