REMARK  Name = ZINC11691954
REMARK  7 active torsions:
REMARK  status: ('A' for Active; 'I' for Inactive)
REMARK    1  A    between atoms: C_1  and  C_2
REMARK    2  A    between atoms: C_2  and  C_3
REMARK    3  A    between atoms: C_2  and  C_4
REMARK    4  A    between atoms: C_7  and  N_10
REMARK    5  A    between atoms: C_11  and  N_33
REMARK    6  A    between atoms: C_12  and  C_23
REMARK    7  A    between atoms: N_31  and  C_32
REMARK                            x       y       z     vdW  Elec       q    Type
REMARK                         _______ _______ _______ _____ _____    ______ ____
ROOT
ATOM      1  N   UNL     1      -3.810   8.230   0.147  0.00  0.00    -0.280 N 
ATOM      2  C   UNL     1      -3.592   6.884   0.237  0.00  0.00    +0.115 A 
ATOM      3  C   UNL     1      -2.247   6.623   0.441  0.00  0.00    +0.084 A 
ATOM      4  C   UNL     1      -1.566   7.926   0.472  0.00  0.00    +0.121 A 
ATOM      5  C   UNL     1      -2.623   8.923   0.278  0.00  0.00    +0.166 A 
ATOM      6  N   UNL     1      -2.311  10.201   0.260  0.00  0.00    -0.225 NA
ATOM      7  C   UNL     1      -1.036  10.580   0.418  0.00  0.00    +0.092 A 
ATOM      8  C   UNL     1      -0.695  11.945   0.399  0.00  0.00    +0.030 A 
ATOM      9  C   UNL     1       0.603  12.320   0.561  0.00  0.00    +0.002 A 
ATOM     10  C   UNL     1       1.606  11.371   0.746  0.00  0.00    +0.002 A 
ATOM     11  C   UNL     1       1.315  10.042   0.769  0.00  0.00    +0.030 A 
ATOM     12  C   UNL     1      -0.016   9.614   0.606  0.00  0.00    +0.090 A 
ATOM     13  N   UNL     1      -0.313   8.310   0.627  0.00  0.00    -0.241 NA
ENDROOT
BRANCH   3  14
ATOM     14  C   UNL     1      -1.621   5.302   0.591  0.00  0.00    +0.147 A 
ATOM     15  N   UNL     1      -2.060   4.341   1.373  0.00  0.00    -0.227 NA
ATOM     16  C   UNL     1      -1.246   3.261   1.269  0.00  0.00    +0.090 A 
ATOM     17  C   UNL     1      -1.250   1.996   1.866  0.00  0.00    +0.030 A 
ATOM     18  C   UNL     1      -0.264   1.089   1.551  0.00  0.00    +0.002 A 
ATOM     19  C   UNL     1       0.735   1.419   0.646  0.00  0.00    +0.002 A 
ATOM     20  C   UNL     1       0.756   2.664   0.052  0.00  0.00    +0.028 A 
ATOM     21  C   UNL     1      -0.233   3.589   0.352  0.00  0.00    +0.069 A 
ATOM     22  N   UNL     1      -0.490   4.885  -0.063  0.00  0.00    -0.327 N 
ATOM     23  C   UNL     1       0.298   5.664  -1.021  0.00  0.00    +0.151 C 
ENDBRANCH   3  14
BRANCH   1  27
ATOM     24  C   UNL     1      -7.537   9.995  -0.454  0.00  0.00    -0.045 A 
ATOM     25  C   UNL     1      -6.987   9.193  -1.437  0.00  0.00    +0.006 A 
ATOM     26  C   UNL     1      -5.752   8.606  -1.241  0.00  0.00    +0.026 A 
ATOM     27  C   UNL     1      -5.063   8.823  -0.055  0.00  0.00    +0.050 A 
ATOM     28  C   UNL     1      -5.620   9.625   0.932  0.00  0.00    +0.026 A 
ATOM     29  C   UNL     1      -6.853  10.212   0.728  0.00  0.00    +0.006 A 
BRANCH  24  31
ATOM     30  C   UNL     1      -9.855  10.156   0.412  0.00  0.00    +0.012 C 
ATOM     31  C   UNL     1      -8.885  10.633  -0.671  0.00  0.00    +0.013 C 
ATOM     32  C   UNL     1      -8.747  12.155  -0.598  0.00  0.00    +0.012 C 
ENDBRANCH  24  31
ENDBRANCH   1  27
BRANCH   2  33
ATOM     33  N   UNL     1      -4.570   5.923   0.141  0.00  0.00    -0.344 N 
ATOM     34  H   UNL     1      -4.329   4.983   0.135  0.00  0.00    +0.144 HD
ATOM     35  H   UNL     1      -5.502   6.184   0.079  0.00  0.00    +0.144 HD
ENDBRANCH   2  33
TORSDOF 4
