REMARK  Name = ZINC54360683
REMARK  9 active torsions:
REMARK  status: ('A' for Active; 'I' for Inactive)
REMARK    1  A    between atoms: C_1  and  C_2
REMARK    2  A    between atoms: C_2  and  C_4
REMARK    3  A    between atoms: C_2  and  N_16
REMARK    4  A    between atoms: C_11  and  C_13
REMARK    5  A    between atoms: C_13  and  C_14
REMARK    6  A    between atoms: C_14  and  O_15
REMARK    7  A    between atoms: C_20  and  C_21
REMARK    8  A    between atoms: C_26  and  O_27
REMARK    9  A    between atoms: O_27  and  C_28
REMARK                            x       y       z     vdW  Elec       q    Type
REMARK                         _______ _______ _______ _____ _____    ______ ____
ROOT
ATOM      1  N   UNL     1      -0.919   0.580  -0.094  0.00  0.00    -0.244 N 
ATOM      2  C   UNL     1      -1.202   0.236  -1.339  0.00  0.00    +0.259 C 
ATOM      3  O   UNL     1      -0.335   0.135  -2.188  0.00  0.00    -0.269 OA
ATOM      4  C   UNL     1      -2.623  -0.020  -1.648  0.00  0.00    +0.077 C 
ATOM      5  C   UNL     1      -3.202  -0.384  -2.821  0.00  0.00    +0.031 C 
ATOM      6  S   UNL     1      -3.372   0.280  -0.053  0.00  0.00    -0.061 S 
ATOM      7  C   UNL     1      -1.882   0.685   0.844  0.00  0.00    +0.121 C 
ATOM      8  S   UNL     1      -1.716   1.106   2.495  0.00  0.00    -0.027 S 
ENDROOT
BRANCH   5   9
ATOM      9  C   UNL     1      -4.627  -0.736  -2.858  0.00  0.00    +0.018 A 
ATOM     10  C   UNL     1      -5.258  -1.238  -1.715  0.00  0.00    +0.011 A 
ATOM     11  C   UNL     1      -6.596  -1.565  -1.758  0.00  0.00    +0.001 A 
ATOM     12  C   UNL     1      -7.319  -1.400  -2.928  0.00  0.00    +0.004 A 
ATOM     13  C   UNL     1      -6.709  -0.905  -4.065  0.00  0.00    +0.046 A 
ATOM     14  C   UNL     1      -5.366  -0.565  -4.040  0.00  0.00    +0.127 A 
BRANCH  14  15
ATOM     15  O   UNL     1      -4.767  -0.074  -5.155  0.00  0.00    -0.495 OA
ATOM     16  C   UNL     1      -5.582   0.072  -6.319  0.00  0.00    +0.277 C 
ENDBRANCH  14  15
ENDBRANCH   5   9
BRANCH   1  18
ATOM     17  C   UNL     1       0.598   2.284   0.789  0.00  0.00    +0.038 C 
ATOM     18  C   UNL     1       0.473   0.848   0.276  0.00  0.00    +0.165 C 
BRANCH  18  19
ATOM     19  C   UNL     1       0.899  -0.111   1.358  0.00  0.00    +0.236 C 
ATOM     20  O   UNL     1       0.075  -0.816   1.902  0.00  0.00    -0.274 OA
ATOM     21  N   UNL     1       2.194  -0.185   1.721  0.00  0.00    -0.297 N 
ATOM     22  C   UNL     1       3.182   0.752   1.169  0.00  0.00    +0.108 C 
ATOM     23  C   UNL     1       3.927   1.423   2.327  0.00  0.00    +0.019 C 
ATOM     24  C   UNL     1       4.523   0.346   3.236  0.00  0.00    +0.003 C 
ATOM     25  C   UNL     1       3.398  -0.512   3.818  0.00  0.00    +0.022 C 
ATOM     26  C   UNL     1       2.646  -1.201   2.682  0.00  0.00    +0.078 C 
BRANCH  26  27
ATOM     27  C   UNL     1       1.434  -1.945   3.248  0.00  0.00    +0.050 C 
BRANCH  27  28
ATOM     28  C   UNL     1       1.906  -2.995   4.256  0.00  0.00    +0.157 C 
BRANCH  28  29
ATOM     29  O   UNL     1       0.789  -3.769   4.696  0.00  0.00    -0.395 OA
ATOM     30  H   UNL     1       1.014  -4.456   5.338  0.00  0.00    +0.209 HD
ENDBRANCH  28  29
ENDBRANCH  27  28
ENDBRANCH  26  27
ENDBRANCH  18  19
ENDBRANCH   1  18
TORSDOF 7
