REMARK  Name = ZINC31057806
REMARK  8 active torsions:
REMARK  status: ('A' for Active; 'I' for Inactive)
REMARK    1  A    between atoms: C_1  and  C_2
REMARK    2  A    between atoms: C_2  and  C_4
REMARK    3  A    between atoms: C_2  and  N_15
REMARK    4  A    between atoms: C_7  and  N_10
REMARK    5  A    between atoms: C_16  and  C_18
REMARK    6  A    between atoms: N_23  and  C_25
REMARK    7  A    between atoms: C_25  and  C_26
REMARK    8  A    between atoms: C_28  and  C_31
REMARK                            x       y       z     vdW  Elec       q    Type
REMARK                         _______ _______ _______ _____ _____    ______ ____
ROOT
ATOM      1  C   UNL     1      -3.789   7.716  -2.835  0.00  0.00    +0.058 C 
ATOM      2  C   UNL     1      -4.524   6.715  -3.731  0.00  0.00    +0.009 C 
ATOM      3  C   UNL     1      -3.821   5.357  -3.648  0.00  0.00    -0.018 C 
ATOM      4  C   UNL     1      -3.789   4.893  -2.190  0.00  0.00    -0.078 C 
ATOM      5  N   UNL     1      -3.075   5.884  -1.375  0.00  0.00    +0.386 N 
ATOM      6  C   UNL     1      -3.757   7.184  -1.401  0.00  0.00    -0.065 C 
ATOM      7  H   UNL     1      -2.075   6.021  -1.814  0.00  0.00    -0.081 HD
ENDROOT
BRANCH   1   9
ATOM      8  N   UNL     1      -4.659   9.700  -4.030  0.00  0.00    -0.309 N 
ATOM      9  C   UNL     1      -4.509   9.040  -2.865  0.00  0.00    +0.215 C 
ATOM     10  O   UNL     1      -4.953   9.511  -1.839  0.00  0.00    -0.276 OA
ATOM     11  H   UNL     1      -4.256   9.272  -4.960  0.00  0.00    +0.149 HD
BRANCH   8  13
ATOM     12  C   UNL     1      -6.866  10.745  -4.170  0.00  0.00    +0.033 C 
ATOM     13  C   UNL     1      -5.359  10.987  -4.059  0.00  0.00    +0.100 C 
BRANCH  13  14
ATOM     14  C   UNL     1      -4.889  11.788  -5.245  0.00  0.00    -0.027 A 
ATOM     15  C   UNL     1      -4.659  11.159  -6.455  0.00  0.00    +0.007 A 
ATOM     16  C   UNL     1      -4.234  11.891  -7.546  0.00  0.00    +0.023 A 
ATOM     17  C   UNL     1      -4.027  13.259  -7.425  0.00  0.00    +0.030 A 
ATOM     18  C   UNL     1      -4.253  13.887  -6.206  0.00  0.00    +0.023 A 
ATOM     19  C   UNL     1      -4.684  13.150  -5.121  0.00  0.00    +0.007 A 
BRANCH  17  20
ATOM     20  N   UNL     1      -3.591  14.001  -8.524  0.00  0.00    -0.330 N 
ATOM     21  C   UNL     1      -4.606  15.011  -8.921  0.00  0.00    +0.105 C 
ATOM     22  C   UNL     1      -3.784  16.036  -9.742  0.00  0.00    +0.020 C 
ATOM     23  C   UNL     1      -2.439  16.089  -8.982  0.00  0.00    +0.020 C 
ATOM     24  C   UNL     1      -2.368  14.765  -8.197  0.00  0.00    +0.105 C 
ENDBRANCH  17  20
ENDBRANCH  13  14
ENDBRANCH   8  13
ENDBRANCH   1   9
BRANCH   5  25
ATOM     25  C   UNL     1      -2.903   5.407   0.003  0.00  0.00    +0.022 C 
BRANCH  25  26
ATOM     26  C   UNL     1      -2.428   3.976  -0.016  0.00  0.00    +0.211 A 
ATOM     27  N   UNL     1      -1.183   3.571  -0.029  0.00  0.00    -0.192 NA
ATOM     28  C   UNL     1      -1.241   2.219  -0.047  0.00  0.00    +0.209 A 
ATOM     29  N   UNL     1      -2.509   1.887  -0.035  0.00  0.00    -0.056 NA
ATOM     30  O   UNL     1      -3.199   2.884  -0.017  0.00  0.00    -0.340 OA
BRANCH  28  31
ATOM     31  C   UNL     1      -0.091   1.291  -0.070  0.00  0.00    +0.060 A 
ATOM     32  C   UNL     1      -0.088  -0.079  -0.084  0.00  0.00    +0.019 A 
ATOM     33  C   UNL     1       1.121  -0.737  -0.111  0.00  0.00    +0.008 A 
ATOM     34  C   UNL     1       2.270  -0.012  -0.123  0.00  0.00    +0.046 A 
ATOM     35  S   UNL     1       1.655   1.664  -0.096  0.00  0.00    -0.093 S 
ENDBRANCH  28  31
ENDBRANCH  25  26
ENDBRANCH   5  25
TORSDOF 7
