REMARK  Name = ZINC13063793
REMARK  14 active torsions:
REMARK  status: ('A' for Active; 'I' for Inactive)
REMARK    1  A    between atoms: C_1  and  C_2
REMARK    2  A    between atoms: C_2  and  C_3
REMARK    3  A    between atoms: C_3  and  C_5
REMARK    4  A    between atoms: C_3  and  N_65
REMARK    5  A    between atoms: N_9  and  C_10
REMARK    6  A    between atoms: C_10  and  C_11
REMARK    7  A    between atoms: C_10  and  C_12
REMARK    8  A    between atoms: C_10  and  C_13
REMARK    9  A    between atoms: C_13  and  C_14
REMARK   10  A    between atoms: C_15  and  C_16
REMARK   11  A    between atoms: C_15  and  N_65
REMARK   12  A    between atoms: C_21  and  C_22
REMARK   13  A    between atoms: C_21  and  N_65
REMARK   14  A    between atoms: C_27  and  C_34
REMARK                            x       y       z     vdW  Elec       q    Type
REMARK                         _______ _______ _______ _____ _____    ______ ____
ROOT
ATOM      1  N   UNL     1      -1.791   0.260   3.328  0.00  0.00    +0.394 N 
ATOM      2  H   UNL     1      -2.695   0.092   3.784  0.00  0.00    -0.080 HD
ENDROOT
BRANCH   1   3
ATOM      3  C   UNL     1      -1.485   1.705   3.383  0.00  0.00    +0.003 C 
BRANCH   3   4
ATOM      4  C   UNL     1      -1.166   2.088   4.805  0.00  0.00    +0.139 A 
ATOM      5  N   UNL     1      -1.806   1.701   5.882  0.00  0.00    -0.115 NA
ATOM      6  N   UNL     1      -1.231   2.241   6.901  0.00  0.00    -0.023 NA
ATOM      7  N   UNL     1      -0.243   2.962   6.502  0.00  0.00    -0.043 NA
ATOM      8  N   UNL     1      -0.167   2.890   5.216  0.00  0.00    -0.225 N 
BRANCH   8   9
ATOM      9  C   UNL     1       0.820   3.557   4.364  0.00  0.00    +0.061 C 
ATOM     10  C   UNL     1       1.703   2.506   3.686  0.00  0.00    +0.036 C 
ATOM     11  C   UNL     1       0.098   4.382   3.297  0.00  0.00    +0.036 C 
BRANCH   9  12
ATOM     12  C   UNL     1       1.691   4.480   5.218  0.00  0.00    +0.026 C 
ATOM     13  C   UNL     1       2.722   5.177   4.328  0.00  0.00    +0.006 C 
ENDBRANCH   9  12
ENDBRANCH   8   9
ENDBRANCH   3   4
BRANCH   3  15
ATOM     14  C   UNL     1      -3.900   2.177   3.820  0.00  0.00    +0.002 C 
ATOM     15  C   UNL     1      -2.712   2.486   2.907  0.00  0.00    -0.011 C 
ENDBRANCH   3  15
ENDBRANCH   1   3
BRANCH   1  16
ATOM     16  C   UNL     1      -0.746  -0.505   4.039  0.00  0.00    -0.002 C 
BRANCH  16  17
ATOM     17  C   UNL     1      -1.258  -1.898   4.301  0.00  0.00    +0.089 A 
ATOM     18  C   UNL     1      -1.012  -2.982   3.544  0.00  0.00    +0.042 A 
ATOM     19  C   UNL     1      -1.683  -4.068   4.152  0.00  0.00    +0.041 A 
ATOM     20  C   UNL     1      -2.301  -3.582   5.244  0.00  0.00    +0.195 A 
ATOM     21  O   UNL     1      -2.035  -2.268   5.332  0.00  0.00    -0.470 OA
ENDBRANCH  16  17
ENDBRANCH   1  16
BRANCH   1  22
ATOM     22  C   UNL     1      -1.873  -0.186   1.921  0.00  0.00    -0.036 C 
BRANCH  22  23
ATOM     23  C   UNL     1      -0.560   0.041   1.217  0.00  0.00    +0.001 A 
ATOM     24  C   UNL     1       0.352  -0.959   1.150  0.00  0.00    +0.017 A 
ATOM     25  C   UNL     1       1.618  -0.706   0.459  0.00  0.00    -0.001 A 
ATOM     26  C   UNL     1       2.598  -1.699   0.356  0.00  0.00    +0.010 A 
ATOM     27  C   UNL     1       3.768  -1.431  -0.295  0.00  0.00    +0.004 A 
ATOM     28  C   UNL     1       3.994  -0.182  -0.858  0.00  0.00    -0.048 A 
ATOM     29  C   UNL     1       3.042   0.811  -0.770  0.00  0.00    +0.029 A 
ATOM     30  C   UNL     1       1.843   0.562  -0.110  0.00  0.00    +0.049 A 
ATOM     31  N   UNL     1       0.874   1.536  -0.008  0.00  0.00    -0.322 N 
ATOM     32  H   UNL     1       1.031   2.410  -0.400  0.00  0.00    +0.169 HD
ATOM     33  C   UNL     1      -0.288   1.293   0.624  0.00  0.00    +0.251 A 
ATOM     34  O   UNL     1      -1.124   2.177   0.692  0.00  0.00    -0.268 OA
ATOM     35  C   UNL     1       5.292   0.090  -1.572  0.00  0.00    +0.044 C 
ENDBRANCH  22  23
ENDBRANCH   1  22
TORSDOF 9
