REMARK  Name = ZINC12137442
REMARK  9 active torsions:
REMARK  status: ('A' for Active; 'I' for Inactive)
REMARK    1  A    between atoms: C_1  and  C_2
REMARK    2  A    between atoms: C_2  and  C_3
REMARK    3  A    between atoms: C_3  and  C_5
REMARK    4  A    between atoms: C_3  and  O_26
REMARK    5  A    between atoms: N_7  and  C_8
REMARK    6  A    between atoms: C_11  and  S_14
REMARK    7  A    between atoms: S_14  and  N_17
REMARK    8  A    between atoms: O_26  and  C_27
REMARK    9  A    between atoms: C_30  and  C_33
REMARK                            x       y       z     vdW  Elec       q    Type
REMARK                         _______ _______ _______ _____ _____    ______ ____
ROOT
ATOM      1  C   UNL     1       1.297  -3.754   0.252  0.00  0.00    +0.034 A 
ATOM      2  C   UNL     1       0.850  -4.758  -0.597  0.00  0.00    +0.025 A 
ATOM      3  C   UNL     1       0.812  -6.066  -0.157  0.00  0.00    +0.030 A 
ATOM      4  C   UNL     1       1.208  -6.376   1.131  0.00  0.00    +0.109 A 
ATOM      5  C   UNL     1       1.649  -5.377   1.981  0.00  0.00    +0.030 A 
ATOM      6  C   UNL     1       1.694  -4.068   1.545  0.00  0.00    +0.025 A 
ENDROOT
BRANCH   1   9
ATOM      7  C   UNL     1       2.308  -1.600   0.252  0.00  0.00    +0.258 C 
ATOM      8  O   UNL     1       3.196  -2.029   0.958  0.00  0.00    -0.271 OA
ATOM      9  N   UNL     1       1.342  -2.428  -0.193  0.00  0.00    -0.282 N 
ATOM     10  H   UNL     1       0.678  -2.105  -0.822  0.00  0.00    +0.155 HD
BRANCH   7  11
ATOM     11  C   UNL     1       2.284  -0.142  -0.127  0.00  0.00    +0.259 C 
BRANCH  11  13
ATOM     12  C   UNL     1       2.333   1.464  -2.040  0.00  0.00    +0.008 C 
ATOM     13  C   UNL     1       2.482  -0.004  -1.638  0.00  0.00    +0.051 C 
ENDBRANCH  11  13
BRANCH  11  14
ATOM     14  O   UNL     1       3.335   0.545   0.556  0.00  0.00    -0.480 OA
BRANCH  14  15
ATOM     15  C   UNL     1       3.084   1.822   0.948  0.00  0.00    +0.122 A 
ATOM     16  C   UNL     1       4.065   2.553   1.603  0.00  0.00    +0.046 A 
ATOM     17  C   UNL     1       3.810   3.852   1.996  0.00  0.00    +0.007 A 
ATOM     18  C   UNL     1       2.575   4.421   1.746  0.00  0.00    -0.050 A 
ATOM     19  C   UNL     1       1.594   3.693   1.098  0.00  0.00    +0.007 A 
ATOM     20  C   UNL     1       1.846   2.395   0.699  0.00  0.00    +0.046 A 
ATOM     21  C   UNL     1       2.297   5.837   2.181  0.00  0.00    +0.044 C 
ENDBRANCH  14  15
ENDBRANCH  11  14
ENDBRANCH   7  11
ENDBRANCH   1   9
BRANCH   4  22
ATOM     22  S   UNL     1       1.151  -8.045   1.692  0.00  0.00    +0.075 S 
ATOM     23  O   UNL     1       1.220  -8.865   0.533  0.00  0.00    -0.150 OA
ATOM     24  O   UNL     1       2.089  -8.149   2.755  0.00  0.00    -0.150 OA
BRANCH  22  25
ATOM     25  N   UNL     1      -0.346  -8.288   2.356  0.00  0.00    -0.202 N 
ATOM     26  C   UNL     1      -1.524  -8.757   1.621  0.00  0.00    +0.136 C 
ATOM     27  C   UNL     1      -2.651  -8.819   2.665  0.00  0.00    +0.058 C 
ATOM     28  C   UNL     1      -2.002  -8.366   3.953  0.00  0.00    -0.023 A 
ATOM     29  C   UNL     1      -0.669  -8.082   3.698  0.00  0.00    +0.054 A 
ATOM     30  C   UNL     1       0.141  -7.635   4.744  0.00  0.00    +0.025 A 
ATOM     31  C   UNL     1      -0.380  -7.490   6.013  0.00  0.00    +0.002 A 
ATOM     32  C   UNL     1      -1.709  -7.781   6.257  0.00  0.00    +0.000 A 
ATOM     33  C   UNL     1      -2.518  -8.220   5.226  0.00  0.00    +0.005 A 
ENDBRANCH  22  25
ENDBRANCH   4  22
TORSDOF 7
