REMARK  Name = ZINC36631498
REMARK  14 active torsions:
REMARK  status: ('A' for Active; 'I' for Inactive)
REMARK    1  A    between atoms: C_1  and  C_2
REMARK    2  A    between atoms: C_2  and  C_3
REMARK    3  A    between atoms: C_3  and  C_4
REMARK    4  A    between atoms: C_4  and  N_5
REMARK    5  A    between atoms: N_5  and  C_6
REMARK    6  A    between atoms: N_5  and  S_10
REMARK    7  A    between atoms: C_6  and  C_7
REMARK    8  A    between atoms: C_7  and  C_8
REMARK    9  A    between atoms: C_8  and  C_9
REMARK   10  A    between atoms: S_10  and  C_13
REMARK   11  A    between atoms: C_16  and  C_19
REMARK   12  A    between atoms: C_19  and  N_21
REMARK   13  A    between atoms: N_23  and  C_32
REMARK   14  A    between atoms: C_32  and  C_33
REMARK                            x       y       z     vdW  Elec       q    Type
REMARK                         _______ _______ _______ _____ _____    ______ ____
ROOT
ATOM      1  C   UNL     1      -4.365  -1.624   2.195  0.00  0.00    +0.106 A 
ATOM      2  C   UNL     1      -3.678  -0.747   3.016  0.00  0.00    +0.029 A 
ATOM      3  C   UNL     1      -4.295   0.399   3.475  0.00  0.00    +0.015 A 
ATOM      4  C   UNL     1      -5.612   0.673   3.110  0.00  0.00    +0.039 A 
ATOM      5  C   UNL     1      -6.299  -0.215   2.281  0.00  0.00    +0.015 A 
ATOM      6  C   UNL     1      -5.671  -1.355   1.824  0.00  0.00    +0.029 A 
ENDROOT
BRANCH   1   7
ATOM      7  S   UNL     1      -3.571  -3.085   1.613  0.00  0.00    +0.061 S 
ATOM      8  O   UNL     1      -4.603  -4.011   1.300  0.00  0.00    -0.153 OA
ATOM      9  O   UNL     1      -2.537  -3.383   2.541  0.00  0.00    -0.153 OA
BRANCH   7  10
ATOM     10  N   UNL     1      -2.828  -2.703   0.183  0.00  0.00    -0.177 NA
BRANCH  10  11
ATOM     11  C   UNL     1      -1.447  -2.214   0.183  0.00  0.00    +0.109 C 
BRANCH  11  12
ATOM     12  C   UNL     1      -1.448  -0.684   0.171  0.00  0.00    +0.017 C 
BRANCH  12  14
ATOM     13  C   UNL     1      -0.006   1.357   0.158  0.00  0.00    +0.004 C 
ATOM     14  C   UNL     1      -0.006  -0.173   0.171  0.00  0.00    -0.002 C 
ENDBRANCH  12  14
ENDBRANCH  11  12
ENDBRANCH  10  11
BRANCH  10  15
ATOM     15  C   UNL     1      -3.552  -2.853  -1.081  0.00  0.00    +0.109 C 
BRANCH  15  16
ATOM     16  C   UNL     1      -3.225  -4.215  -1.697  0.00  0.00    +0.017 C 
BRANCH  16  17
ATOM     17  C   UNL     1      -3.981  -4.373  -3.018  0.00  0.00    -0.002 C 
ATOM     18  C   UNL     1      -3.654  -5.735  -3.634  0.00  0.00    +0.004 C 
ENDBRANCH  16  17
ENDBRANCH  15  16
ENDBRANCH  10  15
ENDBRANCH   7  10
ENDBRANCH   1   7
BRANCH   4  19
ATOM     19  C   UNL     1      -6.280   1.901   3.599  0.00  0.00    +0.269 C 
ATOM     20  O   UNL     1      -5.678   2.675   4.324  0.00  0.00    -0.268 OA
BRANCH  19  21
ATOM     21  N   UNL     1      -7.543   2.161   3.248  0.00  0.00    -0.152 NA
ATOM     22  C   UNL     1      -8.142   3.263   3.687  0.00  0.00    +0.167 A 
ATOM     23  N   UNL     1      -9.411   3.678   3.436  0.00  0.00    -0.316 N 
ATOM     24  C   UNL     1      -9.867   4.862   3.984  0.00  0.00    +0.076 A 
ATOM     25  C   UNL     1      -8.915   5.525   4.773  0.00  0.00    +0.040 A 
ATOM     26  S   UNL     1      -7.503   4.454   4.686  0.00  0.00    -0.052 S 
ATOM     27  C   UNL     1      -9.184   6.717   5.402  0.00  0.00    +0.017 A 
ATOM     28  C   UNL     1     -10.432   7.298   5.261  0.00  0.00    +0.003 A 
ATOM     29  C   UNL     1     -11.391   6.665   4.488  0.00  0.00    +0.022 A 
ATOM     30  C   UNL     1     -11.124   5.471   3.857  0.00  0.00    +0.066 A 
ATOM     31 CL   UNL     1     -12.354   4.711   2.897  0.00  0.00    -0.081 Cl
BRANCH  23  32
ATOM     32  C   UNL     1     -10.293   2.873   2.587  0.00  0.00    +0.151 C 
BRANCH  32  33
ATOM     33  C   UNL     1     -10.254   3.404   1.177  0.00  0.00    -0.013 C 
ATOM     34  C   UNL     1      -9.951   2.605   0.184  0.00  0.00    +0.005 C 
ENDBRANCH  32  33
ENDBRANCH  23  32
ENDBRANCH  19  21
ENDBRANCH   4  19
TORSDOF 12
