REMARK  Name = ZINC24109927
REMARK  5 active torsions:
REMARK  status: ('A' for Active; 'I' for Inactive)
REMARK    1  A    between atoms: C_1  and  C_2
REMARK    2  A    between atoms: C_2  and  C_4
REMARK    3  A    between atoms: C_2  and  S_15
REMARK    4  A    between atoms: N_6  and  C_7
REMARK    5  A    between atoms: S_15  and  C_16
REMARK                            x       y       z     vdW  Elec       q    Type
REMARK                         _______ _______ _______ _____ _____    ______ ____
ROOT
ATOM      1  C   UNL     1       2.338   5.235  -0.093  0.00  0.00    +0.230 C 
ATOM      2  O   UNL     1       1.280   5.828  -0.081  0.00  0.00    -0.274 OA
ATOM      3  N   UNL     1       2.357   3.890   0.001  0.00  0.00    -0.283 N 
ATOM      4  H   UNL     1       3.317   3.358   0.081  0.00  0.00    +0.155 HD
ENDROOT
BRANCH   3   5
ATOM      5  C   UNL     1       1.156   3.171  -0.003  0.00  0.00    +0.053 A 
ATOM      6  C   UNL     1       0.024   3.711  -0.598  0.00  0.00    +0.044 A 
ATOM      7  C   UNL     1      -1.161   2.999  -0.600  0.00  0.00    +0.043 A 
ATOM      8  C   UNL     1      -1.217   1.746  -0.014  0.00  0.00    +0.021 A 
ATOM      9  C   UNL     1      -0.093   1.208   0.584  0.00  0.00    +0.023 A 
ATOM     10  C   UNL     1       1.095   1.915   0.589  0.00  0.00    +0.062 A 
ATOM     11 CL   UNL     1       2.508   1.236   1.334  0.00  0.00    -0.082 Cl
ATOM     12 CL   UNL     1      -2.577   3.673  -1.343  0.00  0.00    -0.083 Cl
ENDBRANCH   3   5
BRANCH   1  14
ATOM     13  C   UNL     1       4.269   6.144   1.168  0.00  0.00    +0.029 C 
ATOM     14  C   UNL     1       3.630   6.000  -0.215  0.00  0.00    +0.136 C 
BRANCH  14  15
ATOM     15  S   UNL     1       3.296   7.646  -0.901  0.00  0.00    -0.092 S 
BRANCH  15  16
ATOM     16  C   UNL     1       4.897   8.350  -1.118  0.00  0.00    +0.120 A 
ATOM     17  C   UNL     1       5.032   9.636  -1.643  0.00  0.00    +0.039 A 
ATOM     18  C   UNL     1       6.311  10.146  -1.789  0.00  0.00    +0.044 A 
ATOM     19  C   UNL     1       7.381   9.342  -1.414  0.00  0.00    +0.152 A 
ATOM     20  N   UNL     1       7.162   8.135  -0.930  0.00  0.00    -0.137 NA
ATOM     21  N   UNL     1       5.978   7.659  -0.788  0.00  0.00    -0.142 NA
ATOM     22 CL   UNL     1       9.007   9.928  -1.581  0.00  0.00    -0.060 Cl
ENDBRANCH  15  16
ENDBRANCH  14  15
ENDBRANCH   1  14
TORSDOF 4
