REMARK  Name = ZINC59263945
REMARK  7 active torsions:
REMARK  status: ('A' for Active; 'I' for Inactive)
REMARK    1  A    between atoms: C_4  and  O_34
REMARK    2  A    between atoms: C_5  and  C_7
REMARK    3  A    between atoms: C_10  and  S_13
REMARK    4  A    between atoms: N_11  and  N_12
REMARK    5  A    between atoms: S_13  and  C_14
REMARK    6  A    between atoms: C_14  and  C_15
REMARK    7  A    between atoms: N_17  and  C_18
REMARK                            x       y       z     vdW  Elec       q    Type
REMARK                         _______ _______ _______ _____ _____    ______ ____
ROOT
ATOM      1  C   UNL     1       0.337  -8.415  -0.056  0.00  0.00    +0.228 C 
ATOM      2  O   UNL     1      -0.873  -8.494  -0.044  0.00  0.00    -0.275 OA
ATOM      3  N   UNL     1       1.085  -9.536  -0.066  0.00  0.00    -0.284 N 
ATOM      4  H   UNL     1       2.050  -9.475  -0.143  0.00  0.00    +0.155 HD
ENDROOT
BRANCH   3   5
ATOM      5  C   UNL     1       0.474 -10.781   0.034  0.00  0.00    +0.045 A 
ATOM      6  C   UNL     1      -0.771 -11.001  -0.555  0.00  0.00    +0.024 A 
ATOM      7  C   UNL     1      -1.381 -12.234  -0.458  0.00  0.00    +0.003 A 
ATOM      8  C   UNL     1      -0.767 -13.273   0.225  0.00  0.00    +0.012 A 
ATOM      9  C   UNL     1       0.473 -13.077   0.819  0.00  0.00    +0.035 A 
ATOM     10  C   UNL     1       1.106 -11.822   0.720  0.00  0.00    +0.054 A 
ATOM     11  C   UNL     1       2.426 -11.617   1.345  0.00  0.00    +0.196 C 
ATOM     12  O   UNL     1       2.869 -10.495   1.493  0.00  0.00    -0.287 OA
ATOM     13  C   UNL     1       3.205 -12.794   1.792  0.00  0.00    +0.033 A 
ATOM     14  C   UNL     1       4.551 -12.669   2.117  0.00  0.00    +0.012 A 
ATOM     15  C   UNL     1       5.264 -13.780   2.533  0.00  0.00    +0.001 A 
ATOM     16  C   UNL     1       4.647 -15.014   2.628  0.00  0.00    +0.001 A 
ATOM     17  C   UNL     1       3.308 -15.156   2.308  0.00  0.00    +0.012 A 
ATOM     18  C   UNL     1       2.577 -14.049   1.888  0.00  0.00    +0.033 A 
ATOM     19  C   UNL     1       1.140 -14.177   1.550  0.00  0.00    +0.195 C 
ATOM     20  O   UNL     1       0.520 -15.176   1.857  0.00  0.00    -0.287 OA
ENDBRANCH   3   5
BRANCH   1  21
ATOM     21  C   UNL     1       1.004  -7.064  -0.059  0.00  0.00    +0.173 C 
BRANCH  21  22
ATOM     22  S   UNL     1      -0.262  -5.765  -0.043  0.00  0.00    -0.075 S 
BRANCH  22  26
ATOM     23  C   UNL     1       1.248  -2.161  -0.049  0.00  0.00    +0.185 A 
ATOM     24  N   UNL     1       2.317  -2.922  -0.061  0.00  0.00    -0.127 NA
ATOM     25  N   UNL     1       1.975  -4.160  -0.060  0.00  0.00    -0.121 NA
ATOM     26  C   UNL     1       0.665  -4.266  -0.048  0.00  0.00    +0.209 A 
ATOM     27  N   UNL     1       0.157  -2.998  -0.034  0.00  0.00    -0.224 N 
BRANCH  23  32
ATOM     28  C   UNL     1      -0.017   1.375  -0.022  0.00  0.00    +0.001 A 
ATOM     29  C   UNL     1       1.169   2.089  -0.039  0.00  0.00    +0.004 A 
ATOM     30  C   UNL     1       2.383   1.427  -0.059  0.00  0.00    +0.046 A 
ATOM     31  C   UNL     1       2.418   0.043  -0.062  0.00  0.00    +0.128 A 
ATOM     32  C   UNL     1       1.221  -0.683  -0.045  0.00  0.00    +0.062 A 
ATOM     33  C   UNL     1       0.002  -0.004  -0.025  0.00  0.00    +0.015 A 
BRANCH  31  34
ATOM     34  O   UNL     1       3.610  -0.609  -0.082  0.00  0.00    -0.506 OA
ATOM     35  H   UNL     1       3.969  -0.799   0.796  0.00  0.00    +0.292 HD
ENDBRANCH  31  34
ENDBRANCH  23  32
BRANCH  27  36
ATOM     36  N   UNL     1      -1.161  -2.638  -0.012  0.00  0.00    -0.295 N 
ATOM     37  H   UNL     1      -1.524  -2.540  -0.949  0.00  0.00    +0.163 HD
ATOM     38  H   UNL     1      -1.708  -3.297   0.521  0.00  0.00    +0.163 HD
ENDBRANCH  27  36
ENDBRANCH  22  26
ENDBRANCH  21  22
ENDBRANCH   1  21
TORSDOF 7
