REMARK  Name = ZINC58791166
REMARK  7 active torsions:
REMARK  status: ('A' for Active; 'I' for Inactive)
REMARK    1  A    between atoms: C_1  and  N_2
REMARK    2  A    between atoms: N_2  and  C_3
REMARK    3  A    between atoms: N_2  and  C_26
REMARK    4  A    between atoms: C_3  and  C_4
REMARK    5  A    between atoms: C_9  and  N_10
REMARK    6  A    between atoms: N_10  and  S_11
REMARK    7  A    between atoms: S_11  and  C_14
REMARK                            x       y       z     vdW  Elec       q    Type
REMARK                         _______ _______ _______ _____ _____    ______ ____
ROOT
ATOM      1  N   UNL     1      -0.982  -1.939  -2.417  0.00  0.00    -0.098 NA
ENDROOT
BRANCH   1   7
ATOM      2  C   UNL     1      -2.067  -0.116  -1.267  0.00  0.00    -0.039 A 
ATOM      3  C   UNL     1      -2.918   0.972  -1.284  0.00  0.00    +0.003 A 
ATOM      4  C   UNL     1      -3.553   1.336  -2.457  0.00  0.00    +0.000 A 
ATOM      5  C   UNL     1      -3.339   0.613  -3.616  0.00  0.00    +0.002 A 
ATOM      6  C   UNL     1      -2.490  -0.476  -3.606  0.00  0.00    +0.027 A 
ATOM      7  C   UNL     1      -1.846  -0.841  -2.430  0.00  0.00    +0.076 A 
BRANCH   2   8
ATOM      8  C   UNL     1      -1.376  -0.512   0.012  0.00  0.00    -0.041 C 
BRANCH   8  10
ATOM      9  C   UNL     1      -0.018   1.465   0.010  0.00  0.00    -0.095 C 
ATOM     10  N   UNL     1       0.002  -0.004   0.002  0.00  0.00    +0.382 N 
ATOM     11  H   UNL     1       0.474  -0.330  -0.828  0.00  0.00    -0.081 HD
BRANCH  10  12
ATOM     12  C   UNL     1       0.713  -0.491   1.192  0.00  0.00    -0.069 C 
ATOM     13  C   UNL     1       2.148   0.039   1.181  0.00  0.00    -0.015 C 
ATOM     14  C   UNL     1       2.888  -0.468   2.421  0.00  0.00    -0.002 C 
ATOM     15  C   UNL     1       2.909  -1.998   2.412  0.00  0.00    -0.000 C 
ATOM     16  C   UNL     1       1.473  -2.527   2.423  0.00  0.00    -0.002 C 
ATOM     17  C   UNL     1       0.733  -2.021   1.184  0.00  0.00    -0.015 C 
ENDBRANCH  10  12
ENDBRANCH   8  10
ENDBRANCH   2   8
ENDBRANCH   1   7
BRANCH   1  18
ATOM     18  S   UNL     1      -0.719  -2.802  -3.806  0.00  0.00    +0.093 S 
ATOM     19  O   UNL     1      -1.952  -3.428  -4.135  0.00  0.00    -0.148 OA
ATOM     20  O   UNL     1      -0.043  -1.932  -4.703  0.00  0.00    -0.148 OA
BRANCH  18  21
ATOM     21  C   UNL     1       0.411  -4.095  -3.409  0.00  0.00    +0.132 A 
ATOM     22  C   UNL     1       0.005  -5.415  -3.492  0.00  0.00    +0.078 A 
ATOM     23  C   UNL     1       0.892  -6.430  -3.181  0.00  0.00    +0.144 A 
ATOM     24  C   UNL     1       2.192  -6.119  -2.785  0.00  0.00    +0.077 A 
ATOM     25  C   UNL     1       2.594  -4.796  -2.704  0.00  0.00    +0.049 A 
ATOM     26  C   UNL     1       1.703  -3.786  -3.022  0.00  0.00    +0.070 A 
ATOM     27 CL   UNL     1       2.205  -2.127  -2.929  0.00  0.00    -0.081 Cl
ATOM     28  N   UNL     1       3.080  -7.158  -2.472  0.00  0.00    -0.280 N 
ATOM     29  C   UNL     1       2.776  -8.417  -2.855  0.00  0.00    +0.255 C 
ATOM     30  O   UNL     1       3.514  -9.336  -2.568  0.00  0.00    -0.272 OA
ATOM     31  C   UNL     1       1.515  -8.676  -3.639  0.00  0.00    +0.325 C 
ATOM     32  O   UNL     1       0.510  -7.733  -3.258  0.00  0.00    -0.481 OA
ATOM     33  H   UNL     1       3.901  -6.975  -1.988  0.00  0.00    +0.155 HD
ENDBRANCH  18  21
ENDBRANCH   1  18
TORSDOF 6
