REMARK  Name = ZINC36499949
REMARK  14 active torsions:
REMARK  status: ('A' for Active; 'I' for Inactive)
REMARK    1  A    between atoms: C_1  and  C_2
REMARK    2  A    between atoms: C_2  and  C_3
REMARK    3  A    between atoms: C_2  and  C_4
REMARK    4  A    between atoms: C_2  and  N_5
REMARK    5  A    between atoms: C_6  and  C_8
REMARK    6  A    between atoms: C_8  and  C_10
REMARK    7  A    between atoms: C_8  and  N_19
REMARK    8  A    between atoms: C_11  and  O_18
REMARK    9  A    between atoms: C_13  and  O_17
REMARK   10  A    between atoms: C_15  and  O_16
REMARK   11  A    between atoms: N_19  and  C_20
REMARK   12  A    between atoms: C_20  and  C_21
REMARK   13  A    between atoms: C_26  and  C_28
REMARK   14  A    between atoms: C_29  and  C_30
REMARK                            x       y       z     vdW  Elec       q    Type
REMARK                         _______ _______ _______ _____ _____    ______ ____
ROOT
ATOM      1  C   UNL     1       2.768  -0.482  -3.378  0.00  0.00    +0.200 C 
ENDROOT
BRANCH   1   2
ATOM      2  C   UNL     1       2.555  -1.727  -4.201  0.00  0.00    +0.065 A 
ATOM      3  C   UNL     1       3.230  -2.895  -3.879  0.00  0.00    +0.129 A 
ATOM      4  C   UNL     1       3.034  -4.040  -4.637  0.00  0.00    +0.091 A 
ATOM      5  C   UNL     1       2.163  -4.017  -5.715  0.00  0.00    +0.124 A 
ATOM      6  C   UNL     1       1.487  -2.850  -6.036  0.00  0.00    +0.091 A 
ATOM      7  C   UNL     1       1.680  -1.706  -5.276  0.00  0.00    +0.129 A 
BRANCH   7   8
ATOM      8  O   UNL     1       1.014  -0.563  -5.588  0.00  0.00    -0.506 OA
ATOM      9  H   UNL     1       1.483   0.008  -6.212  0.00  0.00    +0.292 HD
ENDBRANCH   7   8
BRANCH   5  10
ATOM     10  O   UNL     1       1.971  -5.139  -6.458  0.00  0.00    -0.507 OA
ATOM     11  H   UNL     1       1.252  -5.702  -6.141  0.00  0.00    +0.292 HD
ENDBRANCH   5  10
BRANCH   3  12
ATOM     12  O   UNL     1       4.084  -2.917  -2.822  0.00  0.00    -0.506 OA
ATOM     13  H   UNL     1       3.661  -3.126  -1.979  0.00  0.00    +0.292 HD
ENDBRANCH   3  12
ENDBRANCH   1   2
BRANCH   1  15
ATOM     14  N   UNL     1       0.848  -0.494  -1.819  0.00  0.00    -0.309 N 
ATOM     15  C   UNL     1       2.170  -0.677  -2.009  0.00  0.00    +0.239 C 
ATOM     16  O   UNL     1       2.877  -0.998  -1.078  0.00  0.00    -0.273 OA
ATOM     17  H   UNL     1       0.282  -0.238  -2.564  0.00  0.00    +0.149 HD
BRANCH  14  19
ATOM     18  C   UNL     1       0.918   0.289   0.496  0.00  0.00    +0.031 C 
ATOM     19  C   UNL     1       0.266  -0.683  -0.488  0.00  0.00    +0.026 C 
ATOM     20  C   UNL     1       0.511  -2.120  -0.024  0.00  0.00    +0.031 C 
ATOM     21  C   UNL     1      -1.240  -0.416  -0.547  0.00  0.00    +0.031 C 
ENDBRANCH  14  19
ENDBRANCH   1  15
BRANCH   1  22
ATOM     22  N   UNL     1       4.204  -0.221  -3.251  0.00  0.00    -0.268 N 
ATOM     23  C   UNL     1       5.035  -0.513  -4.271  0.00  0.00    +0.293 C 
ATOM     24  O   UNL     1       4.593  -0.993  -5.298  0.00  0.00    -0.260 OA
BRANCH  23  25
ATOM     25  C   UNL     1       6.439  -0.257  -4.146  0.00  0.00    -0.003 C 
ATOM     26  C   UNL     1       7.590  -0.048  -4.044  0.00  0.00    -0.057 C 
BRANCH  26  27
ATOM     27  C   UNL     1       8.993   0.207  -3.919  0.00  0.00    +0.025 A 
ATOM     28  C   UNL     1       9.506   0.753  -2.738  0.00  0.00    +0.017 A 
ATOM     29  C   UNL     1      10.859   0.996  -2.626  0.00  0.00    +0.001 A 
ATOM     30  C   UNL     1      11.708   0.701  -3.678  0.00  0.00    +0.000 A 
ATOM     31  C   UNL     1      11.208   0.160  -4.850  0.00  0.00    +0.001 A 
ATOM     32  C   UNL     1       9.859  -0.094  -4.975  0.00  0.00    +0.017 A 
ENDBRANCH  26  27
ENDBRANCH  23  25
BRANCH  22  33
ATOM     33  C   UNL     1       4.737   0.357  -2.014  0.00  0.00    +0.184 C 
BRANCH  33  34
ATOM     34  C   UNL     1       5.442  -0.714  -1.222  0.00  0.00    +0.122 A 
ATOM     35  C   UNL     1       6.697  -1.150  -1.433  0.00  0.00    +0.046 A 
ATOM     36  C   UNL     1       6.949  -2.152  -0.467  0.00  0.00    +0.041 A 
ATOM     37  C   UNL     1       5.834  -2.268   0.275  0.00  0.00    +0.195 A 
ATOM     38  O   UNL     1       4.926  -1.390  -0.183  0.00  0.00    -0.466 OA
ENDBRANCH  33  34
ENDBRANCH  22  33
ENDBRANCH   1  22
TORSDOF 11
