REMARK  Name = ZINC08997330
REMARK  7 active torsions:
REMARK  status: ('A' for Active; 'I' for Inactive)
REMARK    1  A    between atoms: C_1  and  C_2
REMARK    2  A    between atoms: C_4  and  C_24
REMARK    3  A    between atoms: C_5  and  C_23
REMARK    4  A    between atoms: N_6  and  C_7
REMARK    5  A    between atoms: C_10  and  S_13
REMARK    6  A    between atoms: S_13  and  C_14
REMARK    7  A    between atoms: C_17  and  N_20
REMARK                            x       y       z     vdW  Elec       q    Type
REMARK                         _______ _______ _______ _____ _____    ______ ____
ROOT
ATOM      1  C   UNL     1      -3.701   1.812   3.824  0.00  0.00    +0.064 C 
ATOM      2  C   UNL     1      -2.383   1.749   3.097  0.00  0.00    +0.022 A 
ATOM      3  C   UNL     1      -1.172   1.866   3.669  0.00  0.00    +0.031 A 
ATOM      4  C   UNL     1      -0.185   1.744   2.589  0.00  0.00    -0.002 A 
ATOM      5  C   UNL     1      -0.911   1.559   1.428  0.00  0.00    +0.028 A 
ATOM      6  N   UNL     1      -2.229   1.570   1.751  0.00  0.00    -0.317 N 
ATOM      7  C   UNL     1      -0.340   1.382   0.045  0.00  0.00    +0.064 C 
ENDROOT
BRANCH   4   8
ATOM      8  C   UNL     1       1.275   1.806   2.716  0.00  0.00    +0.040 C 
ATOM      9  C   UNL     1       1.845   2.703   3.562  0.00  0.00    +0.104 C 
ATOM     10  C   UNL     1       1.177   3.780   4.303  0.00  0.00    +0.266 C 
ATOM     11  O   UNL     1      -0.010   4.052   4.284  0.00  0.00    -0.268 OA
ATOM     12  N   UNL     1       2.139   4.404   5.012  0.00  0.00    -0.261 N 
ATOM     13  C   UNL     1       3.327   3.827   4.773  0.00  0.00    +0.150 C 
ATOM     14  S   UNL     1       4.806   4.327   5.475  0.00  0.00    -0.016 SA
ATOM     15  N   UNL     1       3.201   2.803   3.911  0.00  0.00    -0.333 N 
ATOM     16  H   UNL     1       1.881   5.253   5.661  0.00  0.00    +0.157 HD
ATOM     17  H   UNL     1       4.086   2.223   3.611  0.00  0.00    +0.168 HD
ENDBRANCH   4   8
BRANCH   6  18
ATOM     18  C   UNL     1      -3.281   1.417   0.836  0.00  0.00    +0.047 A 
ATOM     19  C   UNL     1      -3.496   2.380  -0.141  0.00  0.00    +0.027 A 
ATOM     20  C   UNL     1      -4.528   2.227  -1.045  0.00  0.00    +0.017 A 
ATOM     21  C   UNL     1      -5.358   1.115  -0.970  0.00  0.00    +0.013 A 
ATOM     22  C   UNL     1      -5.145   0.154   0.012  0.00  0.00    +0.017 A 
ATOM     23  C   UNL     1      -4.110   0.305   0.911  0.00  0.00    +0.027 A 
BRANCH  21  24
ATOM     24  S   UNL     1      -6.680   0.922  -2.119  0.00  0.00    -0.089 S 
BRANCH  24  25
ATOM     25  C   UNL     1      -8.002   1.844  -1.407  0.00  0.00    +0.013 A 
ATOM     26  C   UNL     1      -7.862   2.396  -0.139  0.00  0.00    +0.017 A 
ATOM     27  C   UNL     1      -8.899   3.122   0.414  0.00  0.00    +0.034 A 
ATOM     28  C   UNL     1     -10.078   3.291  -0.288  0.00  0.00    +0.126 A 
ATOM     29  C   UNL     1     -10.223   2.738  -1.548  0.00  0.00    +0.034 A 
ATOM     30  C   UNL     1      -9.189   2.016  -2.109  0.00  0.00    +0.017 A 
BRANCH  28  31
ATOM     31  N   UNL     1     -11.189   4.065   0.310  0.00  0.00    +0.056 N 
ATOM     32  O   UNL     1     -12.229   4.215  -0.306  0.00  0.00    -0.126 OA
ATOM     33  O   UNL     1     -11.063   4.552   1.420  0.00  0.00    -0.126 OA
ENDBRANCH  28  31
ENDBRANCH  24  25
ENDBRANCH  21  24
ENDBRANCH   6  18
TORSDOF 5
