REMARK  Name = ZINC04477152
REMARK  7 active torsions:
REMARK  status: ('A' for Active; 'I' for Inactive)
REMARK    1  A    between atoms: C_1  and  C_2
REMARK    2  A    between atoms: C_2  and  C_3
REMARK    3  A    between atoms: C_3  and  C_22
REMARK    4  A    between atoms: N_6  and  C_10
REMARK    5  A    between atoms: C_10  and  C_11
REMARK    6  A    between atoms: N_13  and  C_14
REMARK    7  A    between atoms: C_17  and  C_21
REMARK                            x       y       z     vdW  Elec       q    Type
REMARK                         _______ _______ _______ _____ _____    ______ ____
ROOT
ATOM      1  C   UNL     1       4.197   7.857   0.177  0.00  0.00    +0.138 C 
ATOM      2  C   UNL     1       4.498   6.483   0.741  0.00  0.00    +0.251 C 
ATOM      3  O   UNL     1       4.632   6.184   1.908  0.00  0.00    -0.272 OA
ATOM      4  N   UNL     1       4.585   5.663  -0.325  0.00  0.00    -0.215 N 
ATOM      5  C   UNL     1       4.388   6.322  -1.472  0.00  0.00    +0.310 C 
ATOM      6  O   UNL     1       4.421   5.797  -2.567  0.00  0.00    -0.252 OA
ATOM      7  N   UNL     1       4.144   7.631  -1.278  0.00  0.00    -0.281 N 
ATOM      8  H   UNL     1       3.971   8.296  -1.962  0.00  0.00    +0.152 HD
ENDROOT
BRANCH   1   9
ATOM      9  C   UNL     1       2.871   8.361   0.687  0.00  0.00    -0.015 A 
ATOM     10  C   UNL     1       2.815   9.104   1.851  0.00  0.00    +0.006 A 
ATOM     11  C   UNL     1       1.600   9.569   2.317  0.00  0.00    +0.000 A 
ATOM     12  C   UNL     1       0.439   9.284   1.623  0.00  0.00    +0.000 A 
ATOM     13  C   UNL     1       0.494   8.536   0.461  0.00  0.00    +0.000 A 
ATOM     14  C   UNL     1       1.710   8.074  -0.007  0.00  0.00    +0.006 A 
ENDBRANCH   1   9
BRANCH   1  16
ATOM     15  C   UNL     1       6.614   8.399  -0.149  0.00  0.00    +0.007 C 
ATOM     16  C   UNL     1       5.315   8.840   0.529  0.00  0.00    +0.037 C 
ENDBRANCH   1  16
BRANCH   4  17
ATOM     17  C   UNL     1       4.867   4.228  -0.238  0.00  0.00    +0.214 C 
BRANCH  17  18
ATOM     18  C   UNL     1       3.572   3.467  -0.116  0.00  0.00    +0.235 C 
ATOM     19  O   UNL     1       2.517   4.066  -0.102  0.00  0.00    -0.274 OA
ATOM     20  N   UNL     1       3.586   2.123  -0.021  0.00  0.00    -0.284 N 
ATOM     21  H   UNL     1       4.430   1.650   0.045  0.00  0.00    +0.155 HD
BRANCH  20  22
ATOM     22  C   UNL     1       2.382   1.409  -0.019  0.00  0.00    +0.036 A 
ATOM     23  C   UNL     1       1.299   1.870  -0.756  0.00  0.00    +0.024 A 
ATOM     24  C   UNL     1       0.112   1.165  -0.752  0.00  0.00    +0.008 A 
ATOM     25  C   UNL     1      -0.001   0.000  -0.015  0.00  0.00    -0.015 A 
ATOM     26  C   UNL     1       1.077  -0.463   0.721  0.00  0.00    +0.128 A 
ATOM     27  C   UNL     1       2.269   0.240   0.720  0.00  0.00    +0.062 A 
ATOM     28  F   UNL     1       0.963  -1.598   1.444  0.00  0.00    -0.205 F 
ATOM     29  C   UNL     1      -1.298  -0.767  -0.013  0.00  0.00    +0.047 C 
ENDBRANCH  20  22
ENDBRANCH  17  18
ENDBRANCH   4  17
TORSDOF 5
