REMARK  Name = ZINC35668005
REMARK  13 active torsions:
REMARK  status: ('A' for Active; 'I' for Inactive)
REMARK    1  A    between atoms: C_1  and  C_2
REMARK    2  A    between atoms: C_2  and  N_3
REMARK    3  A    between atoms: C_4  and  C_6
REMARK    4  A    between atoms: C_9  and  C_11
REMARK    5  A    between atoms: C_11  and  S_12
REMARK    6  A    between atoms: S_12  and  C_13
REMARK    7  A    between atoms: C_15  and  C_34
REMARK    8  A    between atoms: C_17  and  N_19
REMARK    9  A    between atoms: N_22  and  C_25
REMARK   10  A    between atoms: C_25  and  C_26
REMARK   11  A    between atoms: C_27  and  C_28
REMARK   12  A    between atoms: C_34  and  O_35
REMARK   13  A    between atoms: O_35  and  C_36
REMARK                            x       y       z     vdW  Elec       q    Type
REMARK                         _______ _______ _______ _____ _____    ______ ____
ROOT
ATOM      1  C   UNL     1      -8.797  -1.041   1.597  0.00  0.00    +0.191 A 
ATOM      2  N   UNL     1      -9.362  -1.078   0.399  0.00  0.00    -0.224 NA
ATOM      3  C   UNL     1     -10.665  -0.884   0.254  0.00  0.00    +0.073 A 
ATOM      4  C   UNL     1     -11.440  -0.640   1.372  0.00  0.00    +0.069 A 
ATOM      5  C   UNL     1     -10.817  -0.608   2.621  0.00  0.00    +0.126 A 
ATOM      6  N   UNL     1      -9.506  -0.816   2.694  0.00  0.00    -0.207 NA
ENDROOT
BRANCH   5   7
ATOM      7  N   UNL     1     -11.555  -0.367   3.768  0.00  0.00    -0.319 N 
ATOM      8  C   UNL     1     -10.959  -0.541   5.102  0.00  0.00    +0.088 C 
ATOM      9  C   UNL     1     -11.228   0.724   5.923  0.00  0.00    -0.059 C 
ATOM     10  N   UNL     1     -12.670   1.001   5.936  0.00  0.00    +0.384 N 
ATOM     11  C   UNL     1     -13.133   1.306   4.576  0.00  0.00    -0.059 C 
ATOM     12  C   UNL     1     -12.956   0.075   3.688  0.00  0.00    +0.088 C 
ATOM     13  H   UNL     1     -13.163   0.192   6.283  0.00  0.00    -0.081 HD
BRANCH  10  14
ATOM     14  C   UNL     1     -12.939   2.148   6.812  0.00  0.00    -0.051 C 
BRANCH  14  15
ATOM     15  C   UNL     1     -14.428   2.357   6.923  0.00  0.00    -0.045 C 
ATOM     16  C   UNL     1     -15.005   2.388   8.116  0.00  0.00    +0.002 C 
BRANCH  16  17
ATOM     17  C   UNL     1     -16.465   2.593   8.225  0.00  0.00    -0.025 A 
ATOM     18  C   UNL     1     -17.239   2.748   7.074  0.00  0.00    +0.008 A 
ATOM     19  C   UNL     1     -18.601   2.939   7.183  0.00  0.00    +0.001 A 
ATOM     20  C   UNL     1     -19.200   2.977   8.430  0.00  0.00    +0.000 A 
ATOM     21  C   UNL     1     -18.438   2.825   9.575  0.00  0.00    +0.001 A 
ATOM     22  C   UNL     1     -17.076   2.626   9.479  0.00  0.00    +0.008 A 
ENDBRANCH  16  17
ENDBRANCH  14  15
ENDBRANCH  10  14
ENDBRANCH   5   7
BRANCH   1  23
ATOM     23  S   UNL     1      -7.061  -1.306   1.737  0.00  0.00    -0.078 S 
BRANCH  23  24
ATOM     24  C   UNL     1      -6.518  -1.567   0.025  0.00  0.00    +0.151 C 
BRANCH  24  28
ATOM     25  C   UNL     1      -2.870  -1.442  -0.104  0.00  0.00    +0.189 A 
ATOM     26  C   UNL     1      -3.043  -2.789   0.032  0.00  0.00    +0.055 A 
ATOM     27  C   UNL     1      -4.427  -3.014   0.099  0.00  0.00    +0.046 A 
ATOM     28  C   UNL     1      -5.030  -1.808   0.002  0.00  0.00    +0.116 A 
ATOM     29  O   UNL     1      -4.089  -0.863  -0.115  0.00  0.00    -0.454 OA
BRANCH  25  31
ATOM     30  N   UNL     1      -1.553   0.597  -0.336  0.00  0.00    -0.309 N 
ATOM     31  C   UNL     1      -1.584  -0.745  -0.212  0.00  0.00    +0.279 C 
ATOM     32  O   UNL     1      -0.545  -1.378  -0.189  0.00  0.00    -0.267 OA
ATOM     33  H   UNL     1      -2.381   1.101  -0.355  0.00  0.00    +0.149 HD
BRANCH  30  35
ATOM     34  C   UNL     1      -0.513   2.797  -0.575  0.00  0.00    +0.024 C 
ATOM     35  C   UNL     1      -0.269   1.293  -0.444  0.00  0.00    +0.101 C 
ENDBRANCH  30  35
ENDBRANCH  25  31
ENDBRANCH  24  28
ENDBRANCH  23  24
ENDBRANCH   1  23
BRANCH   3  36
ATOM     36  C   UNL     1     -11.294  -0.927  -1.114  0.00  0.00    +0.214 C 
BRANCH  36  37
ATOM     37  O   UNL     1     -12.698  -0.690  -1.001  0.00  0.00    -0.377 OA
ATOM     38  C   UNL     1     -13.394  -0.710  -2.249  0.00  0.00    +0.194 C 
ENDBRANCH  36  37
ENDBRANCH   3  36
TORSDOF 11
