REMARK  Name = ZINC18522741
REMARK  14 active torsions:
REMARK  status: ('A' for Active; 'I' for Inactive)
REMARK    1  A    between atoms: C_1  and  C_2
REMARK    2  A    between atoms: C_2  and  C_3
REMARK    3  A    between atoms: C_3  and  N_4
REMARK    4  A    between atoms: C_8  and  S_30
REMARK    5  A    between atoms: C_12  and  S_13
REMARK    6  A    between atoms: S_13  and  C_14
REMARK    7  A    between atoms: C_14  and  C_16
REMARK    8  A    between atoms: C_14  and  C_17
REMARK    9  A    between atoms: N_19  and  C_20
REMARK   10  A    between atoms: C_20  and  C_21
REMARK   11  A    between atoms: C_21  and  C_22
REMARK   12  A    between atoms: C_25  and  O_28
REMARK   13  A    between atoms: O_28  and  C_29
REMARK   14  A    between atoms: S_30  and  N_33
REMARK                            x       y       z     vdW  Elec       q    Type
REMARK                         _______ _______ _______ _____ _____    ______ ____
ROOT
ATOM      1  N   UNL     1       0.258  -9.622  -4.839  0.00  0.00    -0.319 N 
ATOM      2  C   UNL     1       0.382 -10.849  -4.209  0.00  0.00    +0.070 A 
ATOM      3  C   UNL     1       0.152 -12.159  -4.603  0.00  0.00    +0.030 A 
ATOM      4  C   UNL     1       0.379 -13.192  -3.717  0.00  0.00    +0.030 A 
ATOM      5  C   UNL     1       0.837 -12.930  -2.434  0.00  0.00    +0.107 A 
ATOM      6  C   UNL     1       1.071 -11.636  -2.027  0.00  0.00    +0.058 A 
ATOM      7  C   UNL     1       0.846 -10.578  -2.912  0.00  0.00    +0.092 A 
ATOM      8  N   UNL     1       0.987  -9.231  -2.810  0.00  0.00    -0.222 NA
ATOM      9  C   UNL     1       0.636  -8.665  -3.939  0.00  0.00    +0.171 A 
ENDROOT
BRANCH   5  10
ATOM     10  S   UNL     1       1.121 -14.263  -1.318  0.00  0.00    +0.056 S 
ATOM     11  O   UNL     1       1.025 -13.723  -0.007  0.00  0.00    -0.153 OA
ATOM     12  O   UNL     1       0.308 -15.342  -1.758  0.00  0.00    -0.153 OA
BRANCH  10  13
ATOM     13  N   UNL     1       2.693 -14.743  -1.518  0.00  0.00    -0.204 NA
ATOM     14  H   UNL     1       3.184 -15.121  -0.772  0.00  0.00    +0.144 HD
ATOM     15  H   UNL     1       3.124 -14.645  -2.382  0.00  0.00    +0.144 HD
ENDBRANCH  10  13
ENDBRANCH   5  10
BRANCH   1  16
ATOM     16  C   UNL     1      -0.195  -9.391  -6.213  0.00  0.00    +0.124 C 
BRANCH  16  18
ATOM     17  C   UNL     1       0.537  -9.171  -8.592  0.00  0.00    +0.005 C 
ATOM     18  C   UNL     1       1.009  -9.412  -7.157  0.00  0.00    +0.018 C 
ENDBRANCH  16  18
ENDBRANCH   1  16
BRANCH   9  19
ATOM     19  S   UNL     1       0.656  -6.931  -4.253  0.00  0.00    -0.075 S 
BRANCH  19  20
ATOM     20  C   UNL     1       1.248  -6.330  -2.652  0.00  0.00    +0.137 C 
ATOM     21  C   UNL     1       2.677  -6.824  -2.418  0.00  0.00    +0.029 C 
BRANCH  20  22
ATOM     22  C   UNL     1       1.231  -4.823  -2.644  0.00  0.00    +0.226 C 
ATOM     23  O   UNL     1       1.214  -4.211  -3.691  0.00  0.00    -0.275 OA
ATOM     24  N   UNL     1       1.234  -4.155  -1.474  0.00  0.00    -0.314 N 
ATOM     25  H   UNL     1       1.248  -4.644  -0.636  0.00  0.00    +0.149 HD
BRANCH  24  26
ATOM     26  C   UNL     1       1.217  -2.690  -1.466  0.00  0.00    +0.109 C 
BRANCH  26  27
ATOM     27  C   UNL     1       1.226  -2.187  -0.021  0.00  0.00    +0.054 C 
BRANCH  27  28
ATOM     28  C   UNL     1       1.208  -0.680  -0.013  0.00  0.00    -0.046 A 
ATOM     29  C   UNL     1       0.002  -0.004   0.002  0.00  0.00    +0.007 A 
ATOM     30  C   UNL     1      -0.017   1.377   0.010  0.00  0.00    +0.046 A 
ATOM     31  C   UNL     1       1.176   2.086   0.002  0.00  0.00    +0.120 A 
ATOM     32  C   UNL     1       2.385   1.405  -0.013  0.00  0.00    +0.046 A 
ATOM     33  C   UNL     1       2.398   0.024  -0.021  0.00  0.00    +0.007 A 
BRANCH  31  34
ATOM     34  O   UNL     1       1.160   3.445   0.009  0.00  0.00    -0.495 OA
ATOM     35  C   UNL     1       2.426   4.108   0.001  0.00  0.00    +0.277 C 
ENDBRANCH  31  34
ENDBRANCH  27  28
ENDBRANCH  26  27
ENDBRANCH  24  26
ENDBRANCH  20  22
ENDBRANCH  19  20
ENDBRANCH   9  19
TORSDOF 11
