REMARK  Name = ZINC52530126
REMARK  11 active torsions:
REMARK  status: ('A' for Active; 'I' for Inactive)
REMARK    1  A    between atoms: C_1  and  C_2
REMARK    2  A    between atoms: C_2  and  C_3
REMARK    3  A    between atoms: C_4  and  C_27
REMARK    4  A    between atoms: C_5  and  C_26
REMARK    5  A    between atoms: C_8  and  C_9
REMARK    6  A    between atoms: N_11  and  C_12
REMARK    7  A    between atoms: C_12  and  C_13
REMARK    8  A    between atoms: C_13  and  C_14
REMARK    9  A    between atoms: C_13  and  C_15
REMARK   10  A    between atoms: C_13  and  N_16
REMARK   11  A    between atoms: C_27  and  C_29
REMARK                            x       y       z     vdW  Elec       q    Type
REMARK                         _______ _______ _______ _____ _____    ______ ____
ROOT
ATOM      1  C   UNL     1      -1.683  -0.663  -2.502  0.00  0.00    +0.261 C 
ATOM      2  O   UNL     1      -0.613  -0.164  -2.794  0.00  0.00    -0.269 OA
ATOM      3  N   UNL     1      -2.560  -0.992  -3.471  0.00  0.00    -0.311 N 
ATOM      4  H   UNL     1      -3.413  -1.390  -3.238  0.00  0.00    +0.149 HD
ENDROOT
BRANCH   1  10
ATOM      5  C   UNL     1      -1.226  -0.622  -0.023  0.00  0.00    -0.007 A 
ATOM      6  C   UNL     1      -1.939  -1.012   1.136  0.00  0.00    +0.041 A 
ATOM      7  C   UNL     1      -3.152  -1.530   0.709  0.00  0.00    +0.024 A 
ATOM      8  N   UNL     1      -3.191  -1.467  -0.630  0.00  0.00    -0.354 N 
ATOM      9  H   UNL     1      -3.929  -1.764  -1.185  0.00  0.00    +0.166 HD
ATOM     10  C   UNL     1      -2.020  -0.907  -1.093  0.00  0.00    +0.106 A 
ATOM     11  C   UNL     1      -4.241  -2.072   1.599  0.00  0.00    +0.064 C 
BRANCH   6  12
ATOM     12  C   UNL     1      -1.482  -0.891   2.523  0.00  0.00    +0.162 C 
ATOM     13  O   UNL     1      -1.644   0.149   3.127  0.00  0.00    -0.292 OA
ATOM     14  C   UNL     1      -0.810  -2.058   3.200  0.00  0.00    +0.091 C 
ENDBRANCH   6  12
BRANCH   5  16
ATOM     15  C   UNL     1       0.024   1.520   0.007  0.00  0.00    +0.009 C 
ATOM     16  C   UNL     1       0.148  -0.004  -0.065  0.00  0.00    +0.035 C 
ENDBRANCH   5  16
ENDBRANCH   1  10
BRANCH   3  17
ATOM     17  C   UNL     1      -2.224  -0.748  -4.876  0.00  0.00    +0.092 C 
BRANCH  17  18
ATOM     18  C   UNL     1      -3.382  -1.208  -5.764  0.00  0.00    -0.055 C 
ATOM     19  C   UNL     1      -3.031  -0.954  -7.232  0.00  0.00    -0.008 C 
ATOM     20  C   UNL     1      -3.626  -2.703  -5.550  0.00  0.00    -0.008 C 
BRANCH  18  21
ATOM     21  N   UNL     1      -4.596  -0.459  -5.414  0.00  0.00    +0.387 N 
ATOM     22  C   UNL     1      -5.671  -0.793  -6.361  0.00  0.00    -0.073 C 
ATOM     23  C   UNL     1      -6.991  -0.254  -5.809  0.00  0.00    +0.017 C 
ATOM     24  C   UNL     1      -6.833   1.198  -5.436  0.00  0.00    -0.048 A 
ATOM     25  C   UNL     1      -7.973   1.964  -5.246  0.00  0.00    +0.004 A 
ATOM     26  C   UNL     1      -7.868   3.296  -4.902  0.00  0.00    +0.000 A 
ATOM     27  C   UNL     1      -6.620   3.870  -4.745  0.00  0.00    +0.000 A 
ATOM     28  C   UNL     1      -5.484   3.109  -4.935  0.00  0.00    +0.002 A 
ATOM     29  C   UNL     1      -5.588   1.770  -5.283  0.00  0.00    -0.061 A 
ATOM     30  C   UNL     1      -4.323   0.979  -5.489  0.00  0.00    -0.042 C 
ATOM     31  H   UNL     1      -4.882  -0.699  -4.477  0.00  0.00    -0.080 HD
ENDBRANCH  18  21
ENDBRANCH  17  18
ENDBRANCH   3  17
TORSDOF 6
