REMARK  Name = ZINC59250508
REMARK  3 active torsions:
REMARK  status: ('A' for Active; 'I' for Inactive)
REMARK    1  A    between atoms: C_3  and  N_8
REMARK    2  A    between atoms: C_9  and  C_10
REMARK    3  A    between atoms: C_13  and  N_15
REMARK                            x       y       z     vdW  Elec       q    Type
REMARK                         _______ _______ _______ _____ _____    ______ ____
ROOT
ATOM      1  C   UNL     1       5.757   2.463   0.762  0.00  0.00    +0.149 A 
ATOM      2  C   UNL     1       6.869   2.190   1.537  0.00  0.00    +0.068 A 
ATOM      3  C   UNL     1       7.833   3.147   1.206  0.00  0.00    +0.079 A 
ATOM      4  C   UNL     1       7.286   3.959   0.256  0.00  0.00    +0.204 A 
ATOM      5  O   UNL     1       6.040   3.537  -0.009  0.00  0.00    -0.439 OA
ATOM      6 BR   UNL     1       9.570   3.290   1.939  0.00  0.00    -0.045 Br
ENDROOT
BRANCH   4   7
ATOM      7  N   UNL     1       7.914   5.036  -0.340  0.00  0.00    -0.301 N 
ATOM      8  C   UNL     1       9.283   5.492  -0.061  0.00  0.00    +0.108 C 
ATOM      9  C   UNL     1       9.541   6.735  -0.938  0.00  0.00    +0.020 C 
ATOM     10  C   UNL     1       8.108   7.247  -1.244  0.00  0.00    +0.020 C 
ATOM     11  C   UNL     1       7.324   5.914  -1.367  0.00  0.00    +0.108 C 
ENDBRANCH   4   7
BRANCH   1  13
ATOM     12  N   UNL     1       3.562   2.104  -0.021  0.00  0.00    -0.252 NA
ATOM     13  C   UNL     1       4.543   1.743   0.771  0.00  0.00    +0.157 C 
BRANCH  12  16
ATOM     14  C   UNL     1      -0.017   1.379   0.010  0.00  0.00    +0.003 A 
ATOM     15  C   UNL     1       1.166   2.089   0.002  0.00  0.00    +0.028 A 
ATOM     16  C   UNL     1       2.386   1.407  -0.013  0.00  0.00    +0.065 A 
ATOM     17  C   UNL     1       2.398   0.010  -0.021  0.00  0.00    +0.043 A 
ATOM     18  C   UNL     1       1.207  -0.687  -0.013  0.00  0.00    +0.020 A 
ATOM     19  C   UNL     1       0.002  -0.004   0.002  0.00  0.00    +0.015 A 
ATOM     20 BR   UNL     1       1.220  -2.578  -0.024  0.00  0.00    -0.050 Br
ENDBRANCH  12  16
ENDBRANCH   1  13
TORSDOF 3
