REMARK  Name = ZINC60391426
REMARK  5 active torsions:
REMARK  status: ('A' for Active; 'I' for Inactive)
REMARK    1  A    between atoms: C_1  and  C_2
REMARK    2  A    between atoms: C_2  and  C_4
REMARK    3  A    between atoms: C_2  and  N_14
REMARK    4  A    between atoms: C_15  and  C_17
REMARK    5  A    between atoms: C_17  and  C_18
REMARK                            x       y       z     vdW  Elec       q    Type
REMARK                         _______ _______ _______ _____ _____    ______ ____
ROOT
ATOM      1  N   UNL     1       0.630  -0.498   1.230  0.00  0.00    -0.309 N 
ATOM      2  C   UNL     1      -0.118  -0.710   2.331  0.00  0.00    +0.217 C 
ATOM      3  O   UNL     1      -1.310  -0.490   2.306  0.00  0.00    -0.276 OA
ATOM      4  H   UNL     1       1.584  -0.674   1.250  0.00  0.00    +0.149 HD
ENDROOT
BRANCH   1   6
ATOM      5  C   UNL     1      -0.038   1.525   0.030  0.00  0.00    +0.033 C 
ATOM      6  C   UNL     1       0.002  -0.004   0.002  0.00  0.00    +0.101 C 
BRANCH   6   7
ATOM      7  C   UNL     1       0.800  -0.464  -1.191  0.00  0.00    -0.020 A 
ATOM      8  C   UNL     1       2.132  -0.715  -1.067  0.00  0.00    +0.006 A 
ATOM      9  C   UNL     1       2.886  -1.141  -2.158  0.00  0.00    +0.001 A 
ATOM     10  C   UNL     1       2.313  -1.319  -3.380  0.00  0.00    +0.008 A 
ATOM     11  C   UNL     1       0.940  -1.070  -3.546  0.00  0.00    -0.018 A 
ATOM     12  C   UNL     1       0.172  -0.642  -2.435  0.00  0.00    -0.013 A 
ATOM     13  C   UNL     1      -1.203  -0.399  -2.600  0.00  0.00    +0.009 A 
ATOM     14  C   UNL     1      -1.777  -0.583  -3.820  0.00  0.00    +0.001 A 
ATOM     15  C   UNL     1      -1.023  -1.009  -4.912  0.00  0.00    +0.001 A 
ATOM     16  C   UNL     1       0.313  -1.242  -4.792  0.00  0.00    +0.008 A 
ENDBRANCH   6   7
ENDBRANCH   1   6
BRANCH   2  17
ATOM     17  C   UNL     1       0.528  -1.218   3.594  0.00  0.00    +0.145 C 
BRANCH  17  18
ATOM     18  C   UNL     1      -0.535  -1.370   4.685  0.00  0.00    +0.216 C 
ATOM     19  C   UNL     1       0.114  -1.776   5.984  0.00  0.00    +0.007 A 
ATOM     20  C   UNL     1       1.057  -1.190   6.795  0.00  0.00    +0.008 A 
ATOM     21  C   UNL     1       1.461  -1.827   7.957  0.00  0.00    +0.000 A 
ATOM     22  C   UNL     1       0.919  -3.052   8.304  0.00  0.00    +0.001 A 
ATOM     23  C   UNL     1      -0.027  -3.649   7.497  0.00  0.00    +0.015 A 
ATOM     24  C   UNL     1      -0.439  -3.013   6.326  0.00  0.00    +0.066 A 
ATOM     25  C   UNL     1      -1.407  -3.375   5.274  0.00  0.00    +0.340 C 
ATOM     26  O   UNL     1      -2.070  -4.393   5.259  0.00  0.00    -0.245 OA
ATOM     27  O   UNL     1      -1.448  -2.414   4.336  0.00  0.00    -0.453 OA
ENDBRANCH  17  18
ENDBRANCH   2  17
TORSDOF 4
