REMARK  Name = ZINC44903431
REMARK  4 active torsions:
REMARK  status: ('A' for Active; 'I' for Inactive)
REMARK    1  A    between atoms: C_4  and  C_7
REMARK    2  A    between atoms: N_12  and  C_14
REMARK    3  A    between atoms: C_14  and  C_15
REMARK    4  A    between atoms: C_15  and  N_17
REMARK                            x       y       z     vdW  Elec       q    Type
REMARK                         _______ _______ _______ _____ _____    ______ ____
ROOT
ATOM      1  C   UNL     1       7.194   0.220  -0.057  0.00  0.00    +0.245 C 
ENDROOT
BRANCH   1   7
ATOM      2  C   UNL     1       3.721  -0.741  -0.034  0.00  0.00    +0.092 A 
ATOM      3  C   UNL     1       3.755  -2.155  -0.047  0.00  0.00    +0.035 A 
ATOM      4  C   UNL     1       4.972  -2.771  -0.064  0.00  0.00    +0.074 A 
ATOM      5  C   UNL     1       6.125  -1.956  -0.067  0.00  0.00    +0.268 A 
ATOM      6  O   UNL     1       7.236  -2.463  -0.082  0.00  0.00    -0.266 OA
ATOM      7  N   UNL     1       5.991  -0.617  -0.054  0.00  0.00    -0.220 N 
ATOM      8  N   UNL     1       4.838  -0.053  -0.043  0.00  0.00    -0.168 NA
BRANCH   2  12
ATOM      9  C   UNL     1      -0.016   1.287   0.017  0.00  0.00    +0.000 A 
ATOM     10  C   UNL     1       1.162   2.012   0.008  0.00  0.00    +0.001 A 
ATOM     11  C   UNL     1       2.377   1.359  -0.008  0.00  0.00    +0.010 A 
ATOM     12  C   UNL     1       2.417  -0.034  -0.016  0.00  0.00    +0.002 A 
ATOM     13  C   UNL     1       1.228  -0.760  -0.006  0.00  0.00    +0.010 A 
ATOM     14  C   UNL     1       0.018  -0.096   0.009  0.00  0.00    +0.001 A 
ENDBRANCH   2  12
ENDBRANCH   1   7
BRANCH   1  15
ATOM     15  C   UNL     1       7.593   0.520  -1.479  0.00  0.00    +0.261 C 
ATOM     16  O   UNL     1       6.936   0.077  -2.401  0.00  0.00    -0.272 OA
BRANCH  15  17
ATOM     17  N   UNL     1       8.664   1.268  -1.725  0.00  0.00    -0.145 NA
ATOM     18  C   UNL     1       9.077   1.447  -2.977  0.00  0.00    +0.198 A 
ATOM     19  N   UNL     1       8.427   1.016  -4.089  0.00  0.00    -0.326 N 
ATOM     20  H   UNL     1       7.589   0.528  -4.105  0.00  0.00    +0.169 HD
ATOM     21  C   UNL     1       9.171   1.393  -5.203  0.00  0.00    +0.065 A 
ATOM     22  C   UNL     1       8.987   1.221  -6.567  0.00  0.00    +0.028 A 
ATOM     23  C   UNL     1       9.919   1.720  -7.455  0.00  0.00    +0.002 A 
ATOM     24  C   UNL     1      11.037   2.392  -6.990  0.00  0.00    +0.002 A 
ATOM     25  C   UNL     1      11.229   2.568  -5.634  0.00  0.00    +0.028 A 
ATOM     26  C   UNL     1      10.298   2.071  -4.734  0.00  0.00    +0.065 A 
ATOM     27  N   UNL     1      10.213   2.095  -3.345  0.00  0.00    -0.326 N 
ATOM     28  H   UNL     1      10.856   2.503  -2.744  0.00  0.00    +0.169 HD
ENDBRANCH  15  17
ENDBRANCH   1  15
TORSDOF 4
