REMARK  Name = ZINC36660272
REMARK  12 active torsions:
REMARK  status: ('A' for Active; 'I' for Inactive)
REMARK    1  A    between atoms: C_1  and  C_2
REMARK    2  A    between atoms: C_5  and  S_8
REMARK    3  A    between atoms: S_8  and  N_11
REMARK    4  A    between atoms: C_15  and  C_17
REMARK    5  A    between atoms: N_19  and  C_20
REMARK    6  A    between atoms: C_20  and  C_21
REMARK    7  A    between atoms: C_21  and  C_22
REMARK    8  A    between atoms: C_22  and  N_23
REMARK    9  A    between atoms: N_23  and  C_24
REMARK   10  A    between atoms: N_23  and  C_25
REMARK   11  A    between atoms: C_31  and  O_35
REMARK   12  A    between atoms: O_35  and  C_36
REMARK                            x       y       z     vdW  Elec       q    Type
REMARK                         _______ _______ _______ _____ _____    ______ ____
ROOT
ATOM      1  C   UNL     1       1.890  -6.377   1.963  0.00  0.00    +0.240 C 
ATOM      2  O   UNL     1       0.831  -6.868   1.636  0.00  0.00    -0.273 OA
ATOM      3  N   UNL     1       2.547  -6.846   3.042  0.00  0.00    -0.249 N 
ATOM      4  C   UNL     1       2.064  -7.954   3.720  0.00  0.00    +0.168 A 
ATOM      5  N   UNL     1       2.554  -8.548   4.782  0.00  0.00    -0.224 NA
ATOM      6  C   UNL     1       1.972  -9.632   5.342  0.00  0.00    +0.081 A 
ATOM      7  C   UNL     1       2.396 -10.359   6.478  0.00  0.00    +0.032 A 
ATOM      8  C   UNL     1       1.687 -11.445   6.921  0.00  0.00    +0.048 A 
ATOM      9  C   UNL     1       0.531 -11.870   6.273  0.00  0.00    +0.121 A 
ATOM     10  C   UNL     1       0.088 -11.178   5.156  0.00  0.00    +0.063 A 
ATOM     11  C   UNL     1       0.795 -10.090   4.709  0.00  0.00    +0.044 A 
ATOM     12  S   UNL     1       0.610  -8.934   3.372  0.00  0.00    -0.052 S 
ENDROOT
BRANCH   1  17
ATOM     13  N   UNL     1       1.406  -4.555   0.418  0.00  0.00    -0.165 NA
ATOM     14  C   UNL     1       1.686  -4.670  -1.025  0.00  0.00    +0.110 C 
ATOM     15  C   UNL     1       3.216  -4.895  -1.115  0.00  0.00    +0.019 C 
ATOM     16  C   UNL     1       3.472  -5.793   0.123  0.00  0.00    +0.031 C 
ATOM     17  C   UNL     1       2.473  -5.241   1.161  0.00  0.00    +0.166 C 
BRANCH  13  18
ATOM     18  S   UNL     1       0.108  -3.776   1.090  0.00  0.00    +0.062 S 
ATOM     19  O   UNL     1      -0.087  -4.348   2.376  0.00  0.00    -0.153 OA
ATOM     20  O   UNL     1      -0.911  -3.758   0.101  0.00  0.00    -0.153 OA
BRANCH  18  25
ATOM     21  C   UNL     1       1.739   1.964   1.988  0.00  0.00    +0.044 C 
ATOM     22  C   UNL     1       1.332   0.530   1.764  0.00  0.00    -0.050 A 
ATOM     23  C   UNL     1       0.750   0.156   0.567  0.00  0.00    +0.005 A 
ATOM     24  C   UNL     1       0.376  -1.159   0.361  0.00  0.00    +0.029 A 
ATOM     25  C   UNL     1       0.586  -2.100   1.352  0.00  0.00    +0.106 A 
ATOM     26  C   UNL     1       1.168  -1.726   2.549  0.00  0.00    +0.029 A 
ATOM     27  C   UNL     1       1.546  -0.412   2.753  0.00  0.00    +0.005 A 
ENDBRANCH  18  25
ENDBRANCH  13  18
ENDBRANCH   1  17
BRANCH   9  28
ATOM     28  O   UNL     1      -0.155 -12.951   6.730  0.00  0.00    -0.495 OA
ATOM     29  C   UNL     1       0.366 -13.610   7.886  0.00  0.00    +0.277 C 
ENDBRANCH   9  28
BRANCH   3  30
ATOM     30  C   UNL     1       3.771  -6.184   3.500  0.00  0.00    +0.114 C 
BRANCH  30  31
ATOM     31  C   UNL     1       3.425  -5.174   4.597  0.00  0.00    +0.001 C 
BRANCH  31  32
ATOM     32  C   UNL     1       4.703  -4.483   5.075  0.00  0.00    -0.078 C 
BRANCH  32  33
ATOM     33  N   UNL     1       4.371  -3.514   6.128  0.00  0.00    +0.376 N 
ATOM     34  C   UNL     1       5.609  -2.937   6.671  0.00  0.00    -0.097 C 
ATOM     35  C   UNL     1       3.538  -2.444   5.564  0.00  0.00    -0.097 C 
ATOM     36  H   UNL     1       3.866  -3.980   6.867  0.00  0.00    -0.083 HD
ENDBRANCH  32  33
ENDBRANCH  31  32
ENDBRANCH  30  31
ENDBRANCH   3  30
TORSDOF 8
