REMARK  Name = ZINC11898518
REMARK  10 active torsions:
REMARK  status: ('A' for Active; 'I' for Inactive)
REMARK    1  A    between atoms: C_1  and  C_2
REMARK    2  A    between atoms: C_2  and  C_3
REMARK    3  A    between atoms: C_2  and  C_4
REMARK    4  A    between atoms: C_7  and  N_10
REMARK    5  A    between atoms: C_11  and  C_13
REMARK    6  A    between atoms: N_15  and  C_16
REMARK    7  A    between atoms: C_16  and  C_17
REMARK    8  A    between atoms: C_17  and  C_19
REMARK    9  A    between atoms: C_17  and  N_65
REMARK   10  A    between atoms: N_23  and  C_24
REMARK                            x       y       z     vdW  Elec       q    Type
REMARK                         _______ _______ _______ _____ _____    ______ ____
ROOT
ATOM      1  C   UNL     1       4.949   0.891   0.199  0.00  0.00    +0.095 C 
ENDROOT
BRANCH   1   4
ATOM      2  C   UNL     1       2.533   0.865  -0.116  0.00  0.00    +0.299 C 
ATOM      3  O   UNL     1       2.603  -0.328  -0.329  0.00  0.00    -0.265 OA
ATOM      4  N   UNL     1       3.650   1.567   0.159  0.00  0.00    -0.309 N 
ATOM      5  H   UNL     1       3.594   2.520   0.329  0.00  0.00    +0.149 HD
BRANCH   2   7
ATOM      6  N   UNL     1       0.091   0.852  -0.431  0.00  0.00    -0.278 N 
ATOM      7  C   UNL     1       1.209   1.554  -0.157  0.00  0.00    +0.303 C 
ATOM      8  O   UNL     1       1.139   2.747   0.057  0.00  0.00    -0.265 OA
ATOM      9  H   UNL     1       0.153  -0.091  -0.649  0.00  0.00    +0.155 HD
BRANCH   6  13
ATOM     10  C   UNL     1      -3.622   2.735  -0.356  0.00  0.00    -0.045 A 
ATOM     11  C   UNL     1      -2.510   3.420  -0.810  0.00  0.00    +0.006 A 
ATOM     12  C   UNL     1      -1.277   2.799  -0.836  0.00  0.00    +0.023 A 
ATOM     13  C   UNL     1      -1.155   1.484  -0.406  0.00  0.00    +0.034 A 
ATOM     14  C   UNL     1      -2.275   0.796   0.044  0.00  0.00    +0.023 A 
ATOM     15  C   UNL     1      -3.504   1.425   0.073  0.00  0.00    +0.006 A 
BRANCH  10  17
ATOM     16  C   UNL     1      -5.947   2.646  -1.215  0.00  0.00    +0.012 C 
ATOM     17  C   UNL     1      -4.966   3.416  -0.328  0.00  0.00    +0.013 C 
ATOM     18  C   UNL     1      -5.492   3.447   1.108  0.00  0.00    +0.012 C 
ENDBRANCH  10  17
ENDBRANCH   6  13
ENDBRANCH   2   7
ENDBRANCH   1   4
BRANCH   1  19
ATOM     19  C   UNL     1       6.061   1.931   0.343  0.00  0.00    -0.003 C 
BRANCH  19  29
ATOM     20  C   UNL     1       4.982   3.775  -0.800  0.00  0.00    -0.073 C 
ATOM     21  C   UNL     1       5.258   4.862  -1.840  0.00  0.00    +0.017 C 
ATOM     22  C   UNL     1       5.570   4.230  -3.173  0.00  0.00    -0.048 A 
ATOM     23  C   UNL     1       5.503   5.020  -4.311  0.00  0.00    +0.004 A 
ATOM     24  C   UNL     1       5.789   4.484  -5.550  0.00  0.00    +0.000 A 
ATOM     25  C   UNL     1       6.145   3.152  -5.657  0.00  0.00    +0.000 A 
ATOM     26  C   UNL     1       6.211   2.365  -4.525  0.00  0.00    +0.002 A 
ATOM     27  C   UNL     1       5.922   2.902  -3.279  0.00  0.00    -0.061 A 
ATOM     28  C   UNL     1       6.003   2.002  -2.074  0.00  0.00    -0.042 C 
ATOM     29  N   UNL     1       6.099   2.811  -0.847  0.00  0.00    +0.389 N 
ATOM     30  H   UNL     1       6.987   3.326  -0.854  0.00  0.00    -0.080 HD
ENDBRANCH  19  29
BRANCH  19  31
ATOM     31  C   UNL     1       7.390   1.232   0.475  0.00  0.00    +0.006 A 
ATOM     32  C   UNL     1       8.473   1.438  -0.301  0.00  0.00    +0.021 A 
ATOM     33  C   UNL     1       9.492   0.584   0.162  0.00  0.00    +0.019 A 
ATOM     34  C   UNL     1       8.994  -0.113   1.204  0.00  0.00    +0.085 A 
ATOM     35  N   UNL     1       7.705   0.285   1.405  0.00  0.00    -0.355 N 
ATOM     36  C   UNL     1       6.807  -0.223   2.444  0.00  0.00    +0.148 C 
ENDBRANCH  19  31
ENDBRANCH   1  19
TORSDOF 7
