REMARK  Name = ZINC43972912
REMARK  8 active torsions:
REMARK  status: ('A' for Active; 'I' for Inactive)
REMARK    1  A    between atoms: C_1  and  C_2
REMARK    2  A    between atoms: C_4  and  C_8
REMARK    3  A    between atoms: C_5  and  C_7
REMARK    4  A    between atoms: C_8  and  N_9
REMARK    5  A    between atoms: C_12  and  C_15
REMARK    6  A    between atoms: C_15  and  N_16
REMARK    7  A    between atoms: C_17  and  C_19
REMARK    8  A    between atoms: N_24  and  C_26
REMARK                            x       y       z     vdW  Elec       q    Type
REMARK                         _______ _______ _______ _____ _____    ______ ____
ROOT
ATOM      1  N   UNL     1      -3.632  -6.678   5.190  0.00  0.00    -0.315 N 
ATOM      2  C   UNL     1      -3.720  -7.358   6.350  0.00  0.00    +0.218 C 
ATOM      3  O   UNL     1      -3.165  -6.939   7.343  0.00  0.00    -0.275 OA
ATOM      4  H   UNL     1      -4.076  -7.014   4.396  0.00  0.00    +0.149 HD
ENDROOT
BRANCH   2   5
ATOM      5  C   UNL     1      -4.510  -8.640   6.413  0.00  0.00    +0.101 C 
ATOM      6  C   UNL     1      -6.010  -8.380   6.147  0.00  0.00    +0.110 C 
ATOM      7  C   UNL     1      -6.723  -9.335   7.079  0.00  0.00    +0.221 C 
ATOM      8  O   UNL     1      -7.891  -9.651   6.990  0.00  0.00    -0.275 OA
ATOM      9  N   UNL     1      -5.875  -9.784   8.020  0.00  0.00    -0.271 N 
ATOM     10  C   UNL     1      -4.537  -9.203   7.852  0.00  0.00    +0.127 C 
BRANCH   9  11
ATOM     11  C   UNL     1      -6.221 -10.690   9.029  0.00  0.00    +0.036 A 
ATOM     12  C   UNL     1      -7.540 -11.099   9.174  0.00  0.00    +0.025 A 
ATOM     13  C   UNL     1      -7.879 -11.993  10.170  0.00  0.00    +0.022 A 
ATOM     14  C   UNL     1      -6.906 -12.480  11.025  0.00  0.00    +0.041 A 
ATOM     15  C   UNL     1      -5.591 -12.074  10.883  0.00  0.00    +0.022 A 
ATOM     16  C   UNL     1      -5.245 -11.185   9.884  0.00  0.00    +0.025 A 
ATOM     17 CL   UNL     1      -7.336 -13.603  12.277  0.00  0.00    -0.084 Cl
ENDBRANCH   9  11
ENDBRANCH   2   5
BRANCH   1  18
ATOM     18  C   UNL     1      -2.865  -5.431   5.128  0.00  0.00    +0.107 C 
BRANCH  18  22
ATOM     19  N   UNL     1      -1.501  -3.920   1.369  0.00  0.00    +0.382 N 
ATOM     20  C   UNL     1      -2.222  -2.978   2.233  0.00  0.00    -0.078 C 
ATOM     21  C   UNL     1      -2.229  -3.502   3.671  0.00  0.00    -0.014 C 
ATOM     22  C   UNL     1      -2.924  -4.865   3.708  0.00  0.00    +0.003 C 
ATOM     23  C   UNL     1      -2.209  -5.819   2.747  0.00  0.00    -0.014 C 
ATOM     24  C   UNL     1      -2.203  -5.209   1.343  0.00  0.00    -0.078 C 
ATOM     25  H   UNL     1      -0.567  -4.053   1.726  0.00  0.00    -0.081 HD
BRANCH  19  26
ATOM     26  C   UNL     1      -1.430  -3.375   0.006  0.00  0.00    -0.040 C 
BRANCH  26  30
ATOM     27  C   UNL     1      -0.054   1.530   0.022  0.00  0.00    +0.086 C 
ATOM     28  C   UNL     1      -0.021   0.023   0.019  0.00  0.00    +0.102 A 
ATOM     29  C   UNL     1      -1.094  -0.788   0.013  0.00  0.00    +0.046 A 
ATOM     30  C   UNL     1      -0.605  -2.114   0.011  0.00  0.00    -0.023 A 
ATOM     31  C   UNL     1       0.738  -2.035   0.016  0.00  0.00    +0.104 A 
ATOM     32  O   UNL     1       1.086  -0.738   0.014  0.00  0.00    -0.465 OA
ATOM     33  C   UNL     1       1.690  -3.203   0.017  0.00  0.00    +0.086 C 
ENDBRANCH  26  30
ENDBRANCH  19  26
ENDBRANCH  18  22
ENDBRANCH   1  18
TORSDOF 6
