REMARK  Name = ZINC58381835
REMARK  6 active torsions:
REMARK  status: ('A' for Active; 'I' for Inactive)
REMARK    1  A    between atoms: C_3  and  O_12
REMARK    2  A    between atoms: C_6  and  C_7
REMARK    3  A    between atoms: O_12  and  C_13
REMARK    4  A    between atoms: C_13  and  C_15
REMARK    5  A    between atoms: C_18  and  N_21
REMARK    6  A    between atoms: C_25  and  C_28
REMARK                            x       y       z     vdW  Elec       q    Type
REMARK                         _______ _______ _______ _____ _____    ______ ____
ROOT
ATOM      1  C   UNL     1       5.985   2.119   0.175  0.00  0.00    +0.060 A 
ATOM      2  C   UNL     1       6.015   3.518   0.165  0.00  0.00    +0.017 A 
ATOM      3  C   UNL     1       7.213   4.177   0.264  0.00  0.00    +0.024 A 
ATOM      4  C   UNL     1       8.399   3.456   0.374  0.00  0.00    +0.030 A 
ATOM      5  C   UNL     1       8.373   2.064   0.383  0.00  0.00    +0.024 A 
ATOM      6  C   UNL     1       7.178   1.398   0.291  0.00  0.00    +0.017 A 
ENDROOT
BRANCH   4   7
ATOM      7  N   UNL     1       9.612   4.128   0.474  0.00  0.00    -0.329 N 
ATOM      8  C   UNL     1      10.881   3.388   0.449  0.00  0.00    +0.105 C 
ATOM      9  C   UNL     1      11.702   3.776   1.683  0.00  0.00    +0.020 C 
ATOM     10  C   UNL     1      11.862   5.297   1.728  0.00  0.00    +0.016 C 
ATOM     11  C   UNL     1      10.483   5.953   1.839  0.00  0.00    +0.092 C 
ATOM     12  C   UNL     1       9.649   5.591   0.601  0.00  0.00    +0.117 C 
BRANCH  11  13
ATOM     13  C   UNL     1      10.644   7.450   1.916  0.00  0.00    +0.215 C 
ATOM     14  O   UNL     1      10.138   8.158   1.071  0.00  0.00    -0.276 OA
ATOM     15  N   UNL     1      11.348   8.001   2.924  0.00  0.00    -0.329 N 
ATOM     16  H   UNL     1      11.752   7.434   3.599  0.00  0.00    +0.145 HD
ATOM     17  H   UNL     1      11.451   8.964   2.973  0.00  0.00    +0.145 HD
ENDBRANCH  11  13
ENDBRANCH   4   7
BRANCH   1  18
ATOM     18  C   UNL     1       4.699   1.407   0.068  0.00  0.00    +0.344 C 
ATOM     19  O   UNL     1       4.674   0.192   0.081  0.00  0.00    -0.245 OA
BRANCH  18  20
ATOM     20  O   UNL     1       3.550   2.103  -0.044  0.00  0.00    -0.422 OA
BRANCH  20  23
ATOM     21  C   UNL     1       0.793   0.040   1.128  0.00  0.00    +0.009 A 
ATOM     22  C   UNL     1       1.982   0.742   1.117  0.00  0.00    +0.047 A 
ATOM     23  C   UNL     1       2.381   1.411  -0.031  0.00  0.00    +0.132 A 
ATOM     24  C   UNL     1       1.583   1.373  -1.166  0.00  0.00    +0.047 A 
ATOM     25  C   UNL     1       0.395   0.669  -1.150  0.00  0.00    +0.009 A 
ATOM     26  C   UNL     1      -0.000   0.003  -0.004  0.00  0.00    -0.024 A 
BRANCH  26  27
ATOM     27  C   UNL     1      -1.297  -0.764   0.010  0.00  0.00    +0.133 C 
ATOM     28  S   UNL     1      -1.375  -1.945  -1.397  0.00  0.00    -0.141 S 
ATOM     29  C   UNL     1      -3.122  -1.808  -1.941  0.00  0.00    +0.081 C 
ATOM     30  C   UNL     1      -3.443  -0.294  -1.888  0.00  0.00    +0.081 C 
ATOM     31  S   UNL     1      -2.716   0.345  -0.337  0.00  0.00    -0.141 S 
ENDBRANCH  26  27
ENDBRANCH  20  23
ENDBRANCH  18  20
ENDBRANCH   1  18
TORSDOF 6
