REMARK  Name = ZINC43936836
REMARK  9 active torsions:
REMARK  status: ('A' for Active; 'I' for Inactive)
REMARK    1  A    between atoms: C_1  and  C_2
REMARK    2  A    between atoms: C_2  and  C_4
REMARK    3  A    between atoms: C_2  and  N_22
REMARK    4  A    between atoms: C_9  and  C_12
REMARK    5  A    between atoms: C_23  and  O_25
REMARK    6  A    between atoms: O_25  and  C_26
REMARK    7  A    between atoms: C_26  and  C_27
REMARK    8  A    between atoms: C_26  and  C_28
REMARK    9  A    between atoms: C_26  and  C_29
REMARK                            x       y       z     vdW  Elec       q    Type
REMARK                         _______ _______ _______ _____ _____    ______ ____
ROOT
ATOM      1  C   UNL     1       0.598  -0.531  -1.278  0.00  0.00    +0.236 C 
ATOM      2  O   UNL     1      -0.089  -1.168  -2.049  0.00  0.00    -0.274 OA
ATOM      3  N   UNL     1       1.893  -0.294  -1.567  0.00  0.00    -0.296 N 
ATOM      4  C   UNL     1       2.475  -0.694  -2.859  0.00  0.00    +0.113 C 
ATOM      5  C   UNL     1       2.939   0.573  -3.581  0.00  0.00    +0.054 C 
ATOM      6  C   UNL     1       3.689   1.467  -2.639  0.00  0.00    -0.039 C 
ATOM      7  C   UNL     1       3.618   1.391  -1.331  0.00  0.00    -0.004 C 
ATOM      8  C   UNL     1       2.778   0.381  -0.607  0.00  0.00    +0.135 C 
ENDROOT
BRANCH   6   9
ATOM      9  C   UNL     1       4.566   2.501  -3.222  0.00  0.00    +0.003 A 
ATOM     10  C   UNL     1       5.778   2.304  -3.803  0.00  0.00    +0.091 A 
ATOM     11  N   UNL     1       6.287   3.499  -4.223  0.00  0.00    -0.360 N 
ATOM     12  H   UNL     1       7.141   3.612  -4.668  0.00  0.00    +0.165 HD
ATOM     13  C   UNL     1       5.411   4.521  -3.925  0.00  0.00    +0.047 A 
ATOM     14  C   UNL     1       4.295   3.947  -3.293  0.00  0.00    +0.007 A 
ATOM     15  C   UNL     1       3.235   4.753  -2.882  0.00  0.00    +0.010 A 
ATOM     16  C   UNL     1       3.287   6.112  -3.101  0.00  0.00    +0.001 A 
ATOM     17  C   UNL     1       4.387   6.679  -3.729  0.00  0.00    +0.002 A 
ATOM     18  C   UNL     1       5.446   5.896  -4.133  0.00  0.00    +0.026 A 
ENDBRANCH   6   9
BRANCH   1  20
ATOM     19  C   UNL     1      -0.460   1.438  -0.205  0.00  0.00    +0.038 C 
ATOM     20  C   UNL     1       0.002  -0.005   0.003  0.00  0.00    +0.159 C 
BRANCH  20  21
ATOM     21  N   UNL     1      -1.143  -0.835   0.386  0.00  0.00    -0.270 N 
ATOM     22  C   UNL     1      -1.521  -0.906   1.677  0.00  0.00    +0.401 C 
ATOM     23  O   UNL     1      -0.912  -0.283   2.524  0.00  0.00    -0.226 OA
ATOM     24  H   UNL     1      -1.629  -1.332  -0.290  0.00  0.00    +0.153 HD
BRANCH  22  25
ATOM     25  O   UNL     1      -2.573  -1.669   2.030  0.00  0.00    -0.445 OA
BRANCH  25  26
ATOM     26  C   UNL     1      -2.918  -1.698   3.416  0.00  0.00    +0.107 C 
ATOM     27  C   UNL     1      -3.260  -0.283   3.886  0.00  0.00    +0.055 C 
ATOM     28  C   UNL     1      -4.129  -2.610   3.621  0.00  0.00    +0.055 C 
ATOM     29  C   UNL     1      -1.734  -2.232   4.225  0.00  0.00    +0.055 C 
ENDBRANCH  25  26
ENDBRANCH  22  25
ENDBRANCH  20  21
ENDBRANCH   1  20
TORSDOF 5
