REMARK  Name = ZINC10494344
REMARK  8 active torsions:
REMARK  status: ('A' for Active; 'I' for Inactive)
REMARK    1  A    between atoms: C_1  and  C_2
REMARK    2  A    between atoms: C_2  and  C_3
REMARK    3  A    between atoms: C_2  and  C_4
REMARK    4  A    between atoms: C_4  and  C_6
REMARK    5  A    between atoms: C_4  and  N_12
REMARK    6  A    between atoms: N_15  and  C_16
REMARK    7  A    between atoms: C_16  and  C_17
REMARK    8  A    between atoms: N_19  and  C_20
REMARK                            x       y       z     vdW  Elec       q    Type
REMARK                         _______ _______ _______ _____ _____    ______ ____
ROOT
ATOM      1  N   UNL     1      -0.011   0.964  -0.031  0.00  0.00    -0.292 N 
ATOM      2  C   UNL     1       1.146   1.654  -0.034  0.00  0.00    +0.300 C 
ATOM      3  O   UNL     1       1.129   2.869  -0.033  0.00  0.00    -0.253 OA
ATOM      4  N   UNL     1       2.323   0.996  -0.038  0.00  0.00    -0.291 N 
ATOM      5  H   UNL     1       0.002  -0.006  -0.032  0.00  0.00    +0.151 HD
ATOM      6  H   UNL     1       2.337   0.026  -0.039  0.00  0.00    +0.151 HD
ENDROOT
BRANCH   1   7
ATOM      7  C   UNL     1      -1.290   1.678  -0.033  0.00  0.00    +0.107 C 
BRANCH   7   8
ATOM      8  C   UNL     1      -2.356   0.800  -0.636  0.00  0.00    -0.027 A 
ATOM      9  C   UNL     1      -2.381  -0.552  -0.350  0.00  0.00    +0.005 A 
ATOM     10  C   UNL     1      -3.361  -1.357  -0.900  0.00  0.00    +0.000 A 
ATOM     11  C   UNL     1      -4.310  -0.811  -1.744  0.00  0.00    +0.000 A 
ATOM     12  C   UNL     1      -4.282   0.540  -2.035  0.00  0.00    +0.000 A 
ATOM     13  C   UNL     1      -3.304   1.345  -1.481  0.00  0.00    +0.005 A 
ENDBRANCH   7   8
BRANCH   7  15
ATOM     14  C   UNL     1      -3.012   2.782   1.402  0.00  0.00    +0.009 C 
ATOM     15  C   UNL     1      -1.677   2.035   1.404  0.00  0.00    +0.008 C 
ATOM     16  C   UNL     1      -1.809   0.754   2.229  0.00  0.00    +0.009 C 
ENDBRANCH   7  15
ENDBRANCH   1   7
BRANCH   4  17
ATOM     17  C   UNL     1       3.581   1.746  -0.041  0.00  0.00    +0.202 C 
BRANCH  17  18
ATOM     18  C   UNL     1       4.740   0.783  -0.045  0.00  0.00    +0.234 C 
ATOM     19  O   UNL     1       4.535  -0.412  -0.046  0.00  0.00    -0.274 OA
ATOM     20  N   UNL     1       6.005   1.250  -0.049  0.00  0.00    -0.283 N 
ATOM     21  H   UNL     1       6.169   2.204  -0.114  0.00  0.00    +0.155 HD
BRANCH  20  22
ATOM     22  C   UNL     1       7.080   0.359   0.042  0.00  0.00    +0.053 A 
ATOM     23  C   UNL     1       6.999  -0.892  -0.555  0.00  0.00    +0.044 A 
ATOM     24  C   UNL     1       8.065  -1.768  -0.468  0.00  0.00    +0.043 A 
ATOM     25  C   UNL     1       9.208  -1.403   0.222  0.00  0.00    +0.021 A 
ATOM     26  C   UNL     1       9.289  -0.160   0.822  0.00  0.00    +0.023 A 
ATOM     27  C   UNL     1       8.229   0.722   0.735  0.00  0.00    +0.062 A 
ATOM     28 CL   UNL     1       8.332   2.282   1.489  0.00  0.00    -0.082 Cl
ATOM     29 CL   UNL     1       7.968  -3.329  -1.221  0.00  0.00    -0.083 Cl
ENDBRANCH  20  22
ENDBRANCH  17  18
ENDBRANCH   4  17
TORSDOF 6
