REMARK  Name = ZINC25784102
REMARK  6 active torsions:
REMARK  status: ('A' for Active; 'I' for Inactive)
REMARK    1  A    between atoms: C_1  and  O_2
REMARK    2  A    between atoms: O_2  and  C_3
REMARK    3  A    between atoms: C_6  and  O_34
REMARK    4  A    between atoms: C_7  and  C_9
REMARK    5  A    between atoms: C_27  and  C_29
REMARK    6  A    between atoms: O_34  and  C_35
REMARK                            x       y       z     vdW  Elec       q    Type
REMARK                         _______ _______ _______ _____ _____    ______ ____
ROOT
ATOM      1  C   UNL     1       1.406  -4.144  -1.804  0.00  0.00    +0.238 C 
ATOM      2  C   UNL     1       0.577  -5.011  -2.705  0.00  0.00    +0.028 C 
ATOM      3  C   UNL     1      -0.609  -5.500  -2.288  0.00  0.00    +0.083 C 
ATOM      4  C   UNL     1      -1.046  -5.155  -0.912  0.00  0.00    +0.044 A 
ATOM      5  C   UNL     1      -2.362  -5.323  -0.504  0.00  0.00    +0.033 A 
ATOM      6  C   UNL     1      -2.725  -4.987   0.787  0.00  0.00    +0.042 A 
ATOM      7  C   UNL     1      -1.782  -4.486   1.668  0.00  0.00    +0.023 A 
ATOM      8  C   UNL     1      -0.469  -4.316   1.269  0.00  0.00    +0.048 A 
ATOM      9  C   UNL     1      -0.092  -4.649  -0.020  0.00  0.00    +0.131 A 
ATOM     10  O   UNL     1       1.188  -4.499  -0.437  0.00  0.00    -0.479 OA
ATOM     11 CL   UNL     1      -4.369  -5.195   1.305  0.00  0.00    -0.084 Cl
ATOM     12  N   UNL     1      -1.376  -6.278  -3.091  0.00  0.00    -0.213 NA
ATOM     13  C   UNL     1      -1.050  -6.631  -4.312  0.00  0.00    +0.237 C 
ATOM     14  N   UNL     1      -1.684  -7.391  -5.232  0.00  0.00    -0.205 NA
ATOM     15  C   UNL     1      -0.972  -7.474  -6.322  0.00  0.00    +0.203 C 
ATOM     16  N   UNL     1       0.179  -6.762  -6.167  0.00  0.00    -0.251 N 
ATOM     17  N   UNL     1       0.137  -6.217  -4.882  0.00  0.00    -0.208 N 
ATOM     18  C   UNL     1       1.041  -5.363  -4.101  0.00  0.00    +0.166 C 
ATOM     19  H   UNL     1       0.887  -6.655  -6.821  0.00  0.00    +0.171 HD
ENDROOT
BRANCH   1  24
ATOM     20  C   UNL     1      -0.563  -0.919  -1.786  0.00  0.00    +0.121 A 
ATOM     21  C   UNL     1       0.328  -0.046  -2.394  0.00  0.00    +0.049 A 
ATOM     22  C   UNL     1       1.564  -0.501  -2.811  0.00  0.00    +0.049 A 
ATOM     23  C   UNL     1       1.915  -1.829  -2.620  0.00  0.00    +0.127 A 
ATOM     24  C   UNL     1       1.025  -2.701  -2.011  0.00  0.00    +0.042 A 
ATOM     25  C   UNL     1      -0.210  -2.245  -1.590  0.00  0.00    +0.056 A 
BRANCH  20  27
ATOM     26  C   UNL     1      -2.077   0.907  -1.610  0.00  0.00    +0.277 C 
ATOM     27  O   UNL     1      -1.780  -0.471  -1.376  0.00  0.00    -0.495 OA
ENDBRANCH  20  27
BRANCH  23  28
ATOM     28  O   UNL     1       3.132  -2.276  -3.030  0.00  0.00    -0.495 OA
ATOM     29  C   UNL     1       4.046  -1.300  -3.533  0.00  0.00    +0.277 C 
ENDBRANCH  23  28
ENDBRANCH   1  24
BRANCH  18  30
ATOM     30  C   UNL     1       1.253  -4.081  -4.864  0.00  0.00    +0.016 A 
ATOM     31  C   UNL     1       2.408  -3.548  -5.334  0.00  0.00    +0.013 A 
ATOM     32  C   UNL     1       2.363  -2.346  -6.014  0.00  0.00    +0.008 A 
ATOM     33  C   UNL     1       1.166  -1.736  -6.192  0.00  0.00    +0.045 A 
ATOM     34  S   UNL     1       0.048  -2.873  -5.390  0.00  0.00    -0.099 S 
ENDBRANCH  18  30
TORSDOF 4
