REMARK  Name = ZINC39530972
REMARK  13 active torsions:
REMARK  status: ('A' for Active; 'I' for Inactive)
REMARK    1  A    between atoms: C_1  and  C_2
REMARK    2  A    between atoms: C_2  and  C_3
REMARK    3  A    between atoms: C_2  and  S_4
REMARK    4  A    between atoms: S_4  and  C_7
REMARK    5  A    between atoms: C_10  and  N_19
REMARK    6  A    between atoms: C_11  and  S_13
REMARK    7  A    between atoms: S_13  and  C_16
REMARK    8  A    between atoms: C_16  and  C_17
REMARK    9  A    between atoms: C_16  and  C_18
REMARK   10  A    between atoms: C_23  and  S_26
REMARK   11  A    between atoms: S_26  and  C_29
REMARK   12  A    between atoms: C_29  and  C_30
REMARK   13  A    between atoms: C_29  and  C_31
REMARK                            x       y       z     vdW  Elec       q    Type
REMARK                         _______ _______ _______ _____ _____    ______ ____
ROOT
ATOM      1  C   UNL     1       2.650  -1.026  -1.438  0.00  0.00    +0.090 A 
ATOM      2  C   UNL     1       2.408   0.183  -2.065  0.00  0.00    +0.029 A 
ATOM      3  C   UNL     1       3.197   1.280  -1.781  0.00  0.00    +0.027 A 
ATOM      4  C   UNL     1       4.235   1.169  -0.864  0.00  0.00    +0.055 A 
ATOM      5  C   UNL     1       4.475  -0.046  -0.236  0.00  0.00    +0.111 A 
ATOM      6  C   UNL     1       3.679  -1.139  -0.521  0.00  0.00    +0.055 A 
ENDROOT
BRANCH   4   7
ATOM      7  N   UNL     1       5.035   2.277  -0.575  0.00  0.00    -0.324 N 
ATOM      8  C   UNL     1       6.041   2.752  -1.536  0.00  0.00    +0.120 C 
ATOM      9  C   UNL     1       7.381   2.895  -0.807  0.00  0.00    +0.101 C 
ATOM     10  N   UNL     1       7.203   3.745   0.378  0.00  0.00    -0.293 NA
ATOM     11  C   UNL     1       6.278   3.131   1.340  0.00  0.00    +0.215 C 
ATOM     12  C   UNL     1       4.889   3.002   0.696  0.00  0.00    +0.147 C 
ATOM     13  H   UNL     1       8.090   3.952   0.811  0.00  0.00    +0.124 HD
BRANCH  11  14
ATOM     14  S   UNL     1       6.164   4.174   2.820  0.00  0.00    -0.012 S 
ATOM     15  O   UNL     1       5.801   5.487   2.417  0.00  0.00    -0.173 OA
ATOM     16  O   UNL     1       5.364   3.501   3.783  0.00  0.00    -0.173 OA
BRANCH  14  17
ATOM     17  C   UNL     1       7.876   4.209   3.418  0.00  0.00    +0.126 C 
ATOM     18  C   UNL     1       7.935   4.958   4.752  0.00  0.00    +0.031 C 
ATOM     19  C   UNL     1       8.377   2.777   3.616  0.00  0.00    +0.031 C 
ENDBRANCH  14  17
ENDBRANCH  11  14
ENDBRANCH   4   7
BRANCH   1  20
ATOM     20  S   UNL     1       1.642  -2.424  -1.803  0.00  0.00    -0.001 S 
ATOM     21  O   UNL     1       2.464  -3.548  -1.524  0.00  0.00    -0.169 OA
ATOM     22  O   UNL     1       1.159  -2.189  -3.119  0.00  0.00    -0.169 OA
BRANCH  20  24
ATOM     23  C   UNL     1      -0.485  -1.024  -0.804  0.00  0.00    +0.032 C 
ATOM     24  C   UNL     1       0.276  -2.337  -0.613  0.00  0.00    +0.130 C 
ATOM     25  C   UNL     1      -0.674  -3.515  -0.839  0.00  0.00    +0.032 C 
ENDBRANCH  20  24
ENDBRANCH   1  20
BRANCH   5  26
ATOM     26  S   UNL     1       5.790  -0.193   0.927  0.00  0.00    +0.001 S 
ATOM     27  O   UNL     1       6.011  -1.591   1.051  0.00  0.00    -0.169 OA
ATOM     28  O   UNL     1       6.812   0.660   0.429  0.00  0.00    -0.169 OA
BRANCH  26  29
ATOM     29  C   UNL     1       5.119   0.473   2.475  0.00  0.00    +0.130 C 
ATOM     30  C   UNL     1       3.795  -0.221   2.798  0.00  0.00    +0.032 C 
ATOM     31  C   UNL     1       6.114   0.225   3.611  0.00  0.00    +0.032 C 
ENDBRANCH  26  29
ENDBRANCH   5  26
TORSDOF 7
