REMARK  Name = ZINC65487922
REMARK  3 active torsions:
REMARK  status: ('A' for Active; 'I' for Inactive)
REMARK    1  A    between atoms: C_4  and  C_7
REMARK    2  A    between atoms: C_12  and  N_19
REMARK    3  A    between atoms: C_14  and  C_16
REMARK                            x       y       z     vdW  Elec       q    Type
REMARK                         _______ _______ _______ _____ _____    ______ ____
ROOT
ATOM      1  C   UNL     1       3.871  -0.427   0.248  0.00  0.00    +0.002 A 
ATOM      2  C   UNL     1       4.858  -0.055  -0.602  0.00  0.00    +0.056 A 
ATOM      3  S   UNL     1       6.157  -1.230  -0.270  0.00  0.00    -0.076 S 
ATOM      4  C   UNL     1       5.356  -2.187   0.989  0.00  0.00    +0.114 A 
ATOM      5  C   UNL     1       4.097  -1.568   1.129  0.00  0.00    +0.055 A 
ATOM      6  C   UNL     1       3.236  -2.147   2.099  0.00  0.00    +0.134 A 
ATOM      7  N   UNL     1       3.656  -3.193   2.793  0.00  0.00    -0.216 NA
ATOM      8  C   UNL     1       4.854  -3.721   2.613  0.00  0.00    +0.135 A 
ATOM      9  N   UNL     1       5.693  -3.232   1.720  0.00  0.00    -0.224 NA
ENDROOT
BRANCH   6  10
ATOM     10  N   UNL     1       1.974  -1.624   2.318  0.00  0.00    -0.313 N 
ATOM     11  C   UNL     1       0.813  -2.361   1.799  0.00  0.00    +0.108 C 
ATOM     12  C   UNL     1      -0.342  -2.421   2.803  0.00  0.00    +0.038 C 
ATOM     13  C   UNL     1       0.187  -2.672   4.201  0.00  0.00    +0.111 C 
ATOM     14  N   UNL     1       0.530  -1.379   4.793  0.00  0.00    -0.284 N 
ATOM     15  C   UNL     1       1.751  -0.687   4.565  0.00  0.00    +0.128 C 
ATOM     16  C   UNL     1       1.863  -0.376   3.053  0.00  0.00    +0.125 C 
ATOM     17  C   UNL     1      -0.373  -0.804   5.611  0.00  0.00    +0.300 C 
ATOM     18  O   UNL     1      -0.165   0.306   6.063  0.00  0.00    -0.253 OA
ATOM     19  N   UNL     1      -1.508  -1.458   5.928  0.00  0.00    -0.313 N 
ATOM     20  H   UNL     1      -1.712  -2.308   5.506  0.00  0.00    +0.146 HD
ATOM     21  H   UNL     1      -2.120  -1.080   6.578  0.00  0.00    +0.146 HD
ENDBRANCH   6  10
BRANCH   1  25
ATOM     22  C   UNL     1       0.192   1.700   0.356  0.00  0.00    +0.000 A 
ATOM     23  C   UNL     1       1.367   2.336   0.718  0.00  0.00    +0.001 A 
ATOM     24  C   UNL     1       2.564   1.650   0.685  0.00  0.00    +0.008 A 
ATOM     25  C   UNL     1       2.588   0.315   0.286  0.00  0.00    -0.017 A 
ATOM     26  C   UNL     1       1.402  -0.321  -0.078  0.00  0.00    +0.008 A 
ATOM     27  C   UNL     1       0.211   0.375  -0.041  0.00  0.00    +0.001 A 
ENDBRANCH   1  25
BRANCH   8  28
ATOM     28  C   UNL     1       5.267  -4.912   3.438  0.00  0.00    +0.057 C 
ATOM     29  C   UNL     1       6.725  -5.365   3.345  0.00  0.00    +0.012 C 
ATOM     30  C   UNL     1       5.622  -6.200   2.692  0.00  0.00    +0.012 C 
ENDBRANCH   8  28
TORSDOF 3
