REMARK  Name = ZINC35967105
REMARK  8 active torsions:
REMARK  status: ('A' for Active; 'I' for Inactive)
REMARK    1  A    between atoms: C_1  and  C_2
REMARK    2  A    between atoms: C_2  and  N_3
REMARK    3  A    between atoms: C_9  and  C_11
REMARK    4  A    between atoms: C_11  and  C_12
REMARK    5  A    between atoms: C_12  and  N_13
REMARK    6  A    between atoms: C_19  and  C_26
REMARK    7  A    between atoms: N_24  and  C_25
REMARK    8  A    between atoms: C_29  and  C_32
REMARK                            x       y       z     vdW  Elec       q    Type
REMARK                         _______ _______ _______ _____ _____    ______ ____
ROOT
ATOM      1  N   UNL     1      -5.491  -6.429  -1.569  0.00  0.00    -0.292 N 
ATOM      2  C   UNL     1      -4.617  -7.511  -2.047  0.00  0.00    +0.159 C 
ATOM      3  C   UNL     1      -5.108  -8.751  -1.336  0.00  0.00    +0.042 C 
ATOM      4  C   UNL     1      -6.139  -8.360  -0.560  0.00  0.00    +0.058 C 
ATOM      5  C   UNL     1      -6.360  -6.975  -0.699  0.00  0.00    +0.247 C 
ATOM      6  O   UNL     1      -7.226  -6.353  -0.110  0.00  0.00    -0.270 OA
ATOM      7  C   UNL     1      -6.832  -9.417   0.277  0.00  0.00    +0.142 C 
ATOM      8  N   UNL     1      -6.318 -10.793   0.171  0.00  0.00    -0.288 N 
ATOM      9  C   UNL     1      -5.276 -11.028  -0.651  0.00  0.00    +0.307 C 
ATOM     10  O   UNL     1      -4.845 -12.161  -0.745  0.00  0.00    -0.252 OA
ATOM     11  N   UNL     1      -4.701 -10.054  -1.368  0.00  0.00    -0.260 N 
ATOM     12  C   UNL     1      -3.574 -10.406  -2.235  0.00  0.00    +0.139 C 
ATOM     13  H   UNL     1      -6.719 -11.514   0.682  0.00  0.00    +0.151 HD
ENDROOT
BRANCH   7  14
ATOM     14  C   UNL     1      -8.288  -9.435  -0.110  0.00  0.00    -0.023 A 
ATOM     15  C   UNL     1      -8.692 -10.104  -1.251  0.00  0.00    +0.006 A 
ATOM     16  C   UNL     1     -10.028 -10.120  -1.606  0.00  0.00    +0.013 A 
ATOM     17  C   UNL     1     -10.960  -9.469  -0.820  0.00  0.00    +0.055 A 
ATOM     18  C   UNL     1     -10.557  -8.802   0.321  0.00  0.00    +0.013 A 
ATOM     19  C   UNL     1      -9.221  -8.789   0.678  0.00  0.00    +0.006 A 
BRANCH  17  20
ATOM     20  C   UNL     1     -12.416  -9.487  -1.208  0.00  0.00    +0.417 C 
ATOM     21  F   UNL     1     -13.041 -10.593  -0.623  0.00  0.00    -0.166 F 
ATOM     22  F   UNL     1     -13.032  -8.313  -0.760  0.00  0.00    -0.166 F 
ATOM     23  F   UNL     1     -12.527  -9.570  -2.600  0.00  0.00    -0.166 F 
ENDBRANCH  17  20
ENDBRANCH   7  14
BRANCH   1  24
ATOM     24  C   UNL     1      -5.424  -5.019  -1.962  0.00  0.00    +0.117 C 
BRANCH  24  25
ATOM     25  C   UNL     1      -4.481  -4.271  -1.018  0.00  0.00    +0.115 C 
BRANCH  25  32
ATOM     26  N   UNL     1      -1.376  -0.512   0.012  0.00  0.00    -0.300 NA
ATOM     27  C   UNL     1      -2.077  -0.159  -1.229  0.00  0.00    +0.103 C 
ATOM     28  C   UNL     1      -3.555  -0.545  -1.105  0.00  0.00    +0.123 C 
ATOM     29  N   UNL     1      -3.637  -1.964  -0.728  0.00  0.00    -0.299 N 
ATOM     30  C   UNL     1      -2.850  -2.424   0.427  0.00  0.00    +0.123 C 
ATOM     31  C   UNL     1      -1.400  -1.963   0.243  0.00  0.00    +0.103 C 
ATOM     32  C   UNL     1      -4.412  -2.821  -1.422  0.00  0.00    +0.217 C 
ATOM     33  O   UNL     1      -5.054  -2.425  -2.371  0.00  0.00    -0.276 OA
BRANCH  26  35
ATOM     34  C   UNL     1      -0.019   1.526   0.010  0.00  0.00    +0.020 C 
ATOM     35  C   UNL     1       0.002  -0.004   0.002  0.00  0.00    +0.081 C 
ENDBRANCH  26  35
ENDBRANCH  25  32
ENDBRANCH  24  25
ENDBRANCH   1  24
TORSDOF 6
