REMARK  Name = ZINC32717367
REMARK  8 active torsions:
REMARK  status: ('A' for Active; 'I' for Inactive)
REMARK    1  A    between atoms: C_1  and  C_2
REMARK    2  A    between atoms: C_2  and  C_4
REMARK    3  A    between atoms: C_2  and  O_24
REMARK    4  A    between atoms: N_6  and  C_7
REMARK    5  A    between atoms: C_7  and  C_8
REMARK    6  A    between atoms: C_8  and  S_9
REMARK    7  A    between atoms: S_9  and  N_12
REMARK    8  A    between atoms: O_24  and  C_25
REMARK                            x       y       z     vdW  Elec       q    Type
REMARK                         _______ _______ _______ _____ _____    ______ ____
ROOT
ATOM      1  C   UNL     1      -0.181   0.265   4.322  0.00  0.00    +0.204 C 
ENDROOT
BRANCH   1   2
ATOM      2  S   UNL     1       0.749  -0.082   5.841  0.00  0.00    +0.033 S 
ATOM      3  O   UNL     1       0.941  -1.482   5.988  0.00  0.00    -0.158 OA
ATOM      4  O   UNL     1       1.844   0.816   5.959  0.00  0.00    -0.158 OA
BRANCH   2   5
ATOM      5  N   UNL     1      -0.276   0.336   7.072  0.00  0.00    -0.178 NA
ATOM      6  C   UNL     1      -0.280   1.704   7.610  0.00  0.00    +0.128 C 
ATOM      7  C   UNL     1      -1.708   2.258   7.528  0.00  0.00    +0.123 C 
ATOM      8  N   UNL     1      -2.630   1.268   8.103  0.00  0.00    -0.314 N 
ATOM      9  C   UNL     1      -2.625  -0.100   7.566  0.00  0.00    +0.123 C 
ATOM     10  C   UNL     1      -1.201  -0.652   7.644  0.00  0.00    +0.128 C 
ATOM     11  C   UNL     1      -3.490   1.619   9.137  0.00  0.00    +0.099 A 
ATOM     12  C   UNL     1      -3.578   2.948   9.539  0.00  0.00    +0.042 A 
ATOM     13  C   UNL     1      -4.438   3.283  10.569  0.00  0.00    +0.005 A 
ATOM     14  C   UNL     1      -5.184   2.274  11.165  0.00  0.00    +0.018 A 
ATOM     15  C   UNL     1      -5.046   0.977  10.716  0.00  0.00    +0.084 A 
ATOM     16  N   UNL     1      -4.222   0.687   9.727  0.00  0.00    -0.350 N 
ATOM     17  H   UNL     1      -4.147  -0.233   9.427  0.00  0.00    +0.166 HD
ENDBRANCH   2   5
ENDBRANCH   1   2
BRANCH   1  18
ATOM     18  C   UNL     1       0.677  -0.088   3.106  0.00  0.00    +0.128 C 
BRANCH  18  21
ATOM     19  C   UNL     1       0.487  -0.044   0.677  0.00  0.00    +0.254 C 
ATOM     20  O   UNL     1       1.614  -0.487   0.610  0.00  0.00    -0.272 OA
ATOM     21  N   UNL     1      -0.074   0.192   1.880  0.00  0.00    -0.311 N 
ATOM     22  H   UNL     1      -0.975   0.547   1.934  0.00  0.00    +0.149 HD
BRANCH  19  24
ATOM     23  C   UNL     1      -0.543   1.749  -0.692  0.00  0.00    +0.062 C 
ATOM     24  C   UNL     1      -0.286   0.244  -0.584  0.00  0.00    +0.256 C 
BRANCH  24  25
ATOM     25  O   UNL     1       0.469  -0.193  -1.715  0.00  0.00    -0.478 OA
BRANCH  25  26
ATOM     26  C   UNL     1      -0.228  -0.499  -2.841  0.00  0.00    +0.140 A 
ATOM     27  C   UNL     1      -1.596  -0.276  -2.894  0.00  0.00    +0.048 A 
ATOM     28  C   UNL     1      -2.303  -0.588  -4.039  0.00  0.00    +0.023 A 
ATOM     29  C   UNL     1      -1.647  -1.123  -5.134  0.00  0.00    +0.043 A 
ATOM     30  C   UNL     1      -0.283  -1.348  -5.084  0.00  0.00    +0.043 A 
ATOM     31  C   UNL     1       0.429  -1.031  -3.942  0.00  0.00    +0.084 A 
ATOM     32 CL   UNL     1       2.142  -1.306  -3.883  0.00  0.00    -0.080 Cl
ATOM     33 CL   UNL     1      -2.539  -1.515  -6.571  0.00  0.00    -0.083 Cl
ENDBRANCH  25  26
ENDBRANCH  24  25
ENDBRANCH  19  24
ENDBRANCH  18  21
ENDBRANCH   1  18
TORSDOF 7
