REMARK  Name = ZINC12445841
REMARK  13 active torsions:
REMARK  status: ('A' for Active; 'I' for Inactive)
REMARK    1  A    between atoms: C_1  and  C_2
REMARK    2  A    between atoms: C_2  and  C_3
REMARK    3  A    between atoms: C_6  and  C_10
REMARK    4  A    between atoms: C_7  and  C_9
REMARK    5  A    between atoms: C_10  and  N_63
REMARK    6  A    between atoms: C_11  and  N_63
REMARK    7  A    between atoms: C_12  and  C_13
REMARK    8  A    between atoms: C_12  and  N_63
REMARK    9  A    between atoms: C_19  and  C_20
REMARK   10  A    between atoms: C_19  and  N_65
REMARK   11  A    between atoms: C_20  and  C_21
REMARK   12  A    between atoms: C_24  and  O_27
REMARK   13  A    between atoms: O_27  and  C_28
REMARK                            x       y       z     vdW  Elec       q    Type
REMARK                         _______ _______ _______ _____ _____    ______ ____
ROOT
ATOM      1  C   UNL     1      -1.436  -1.926   0.064  0.00  0.00    -0.044 C 
ATOM      2  C   UNL     1      -0.628  -2.522   1.221  0.00  0.00    -0.002 C 
ATOM      3  C   UNL     1      -0.798  -4.043   1.222  0.00  0.00    -0.018 C 
ATOM      4  C   UNL     1      -2.285  -4.385   1.337  0.00  0.00    -0.079 C 
ATOM      5  C   UNL     1      -2.904  -2.329   0.213  0.00  0.00    -0.077 C 
ATOM      6  N   UNL     1      -3.002  -3.804   0.182  0.00  0.00    +0.380 N 
ATOM      7  H   UNL     1      -2.572  -4.148  -0.685  0.00  0.00    -0.082 HD
ENDROOT
BRANCH   1   8
ATOM      8  C   UNL     1      -1.319  -0.401   0.092  0.00  0.00    -0.077 C 
BRANCH   8  10
ATOM      9  C   UNL     1       0.470  -0.366  -1.539  0.00  0.00    -0.096 C 
ATOM     10  N   UNL     1       0.089  -0.025  -0.152  0.00  0.00    +0.382 N 
ATOM     11  H   UNL     1       0.691  -0.547   0.497  0.00  0.00    -0.082 HD
BRANCH  10  12
ATOM     12  C   UNL     1       0.274   1.423   0.081  0.00  0.00    -0.023 C 
BRANCH  12  16
ATOM     13  C   UNL     1       3.783   2.373  -0.302  0.00  0.00    +0.107 A 
ATOM     14  N   UNL     1       2.526   2.300  -0.792  0.00  0.00    -0.347 N 
ATOM     15  H   UNL     1       2.220   2.616  -1.690  0.00  0.00    +0.167 HD
ATOM     16  C   UNL     1       1.750   1.714   0.171  0.00  0.00    +0.022 A 
ATOM     17  C   UNL     1       2.557   1.454   1.217  0.00  0.00    +0.057 A 
ATOM     18  N   UNL     1       3.794   1.862   0.898  0.00  0.00    -0.238 NA
ATOM     19  C   UNL     1       2.143   0.813   2.517  0.00  0.00    +0.067 C 
BRANCH  13  21
ATOM     20  C   UNL     1       5.617   4.035  -0.158  0.00  0.00    +0.012 C 
ATOM     21  C   UNL     1       4.974   2.949  -1.023  0.00  0.00    +0.071 C 
ENDBRANCH  13  21
ENDBRANCH  12  16
ENDBRANCH  10  12
ENDBRANCH   8  10
ENDBRANCH   1   8
BRANCH   6  22
ATOM     22  C   UNL     1      -4.421  -4.216   0.209  0.00  0.00    -0.074 C 
BRANCH  22  23
ATOM     23  C   UNL     1      -4.502  -5.722  -0.047  0.00  0.00    +0.016 C 
BRANCH  23  24
ATOM     24  C   UNL     1      -5.945  -6.156  -0.045  0.00  0.00    -0.049 A 
ATOM     25  C   UNL     1      -6.541  -6.564   1.134  0.00  0.00    +0.007 A 
ATOM     26  C   UNL     1      -7.866  -6.956   1.139  0.00  0.00    +0.046 A 
ATOM     27  C   UNL     1      -8.594  -6.951  -0.041  0.00  0.00    +0.120 A 
ATOM     28  C   UNL     1      -7.992  -6.547  -1.224  0.00  0.00    +0.046 A 
ATOM     29  C   UNL     1      -6.669  -6.150  -1.223  0.00  0.00    +0.007 A 
BRANCH  27  30
ATOM     30  O   UNL     1      -9.896  -7.342  -0.039  0.00  0.00    -0.495 OA
ATOM     31  C   UNL     1     -10.451  -7.745   1.214  0.00  0.00    +0.277 C 
ENDBRANCH  27  30
ENDBRANCH  23  24
ENDBRANCH  22  23
ENDBRANCH   6  22
TORSDOF 9
