REMARK  Name = ZINC10050130
REMARK  6 active torsions:
REMARK  status: ('A' for Active; 'I' for Inactive)
REMARK    1  A    between atoms: C_3  and  C_6
REMARK    2  A    between atoms: C_6  and  C_8
REMARK    3  A    between atoms: C_6  and  N_15
REMARK    4  A    between atoms: C_16  and  C_18
REMARK    5  A    between atoms: C_18  and  N_56
REMARK    6  A    between atoms: C_24  and  C_26
REMARK                            x       y       z     vdW  Elec       q    Type
REMARK                         _______ _______ _______ _____ _____    ______ ____
ROOT
ATOM      1  N   UNL     1       2.086   5.268   0.897  0.00  0.00    -0.306 N 
ATOM      2  C   UNL     1       1.919   5.461   2.221  0.00  0.00    +0.197 C 
ATOM      3  O   UNL     1       0.802   5.545   2.685  0.00  0.00    -0.278 OA
ATOM      4  H   UNL     1       2.980   5.201   0.526  0.00  0.00    +0.150 HD
ENDROOT
BRANCH   1   5
ATOM      5  C   UNL     1       0.918   5.160   0.020  0.00  0.00    +0.140 C 
BRANCH   5   6
ATOM      6  C   UNL     1       1.304   5.560  -1.381  0.00  0.00    -0.022 A 
ATOM      7  C   UNL     1       2.527   5.175  -1.897  0.00  0.00    +0.008 A 
ATOM      8  C   UNL     1       2.880   5.536  -3.184  0.00  0.00    +0.038 A 
ATOM      9  C   UNL     1       2.012   6.293  -3.952  0.00  0.00    +0.123 A 
ATOM     10  C   UNL     1       0.789   6.683  -3.432  0.00  0.00    +0.038 A 
ATOM     11  C   UNL     1       0.436   6.316  -2.148  0.00  0.00    +0.008 A 
ATOM     12  F   UNL     1       2.358   6.652  -5.208  0.00  0.00    -0.205 F 
ENDBRANCH   5   6
BRANCH   5  15
ATOM     13  C   UNL     1      -1.077   1.915   0.017  0.00  0.00    +0.008 A 
ATOM     14  C   UNL     1      -0.855   3.279   0.027  0.00  0.00    +0.013 A 
ATOM     15  C   UNL     1       0.421   3.738   0.017  0.00  0.00    +0.014 A 
ATOM     16  S   UNL     1       1.359   2.219   0.001  0.00  0.00    -0.099 S 
ATOM     17  C   UNL     1      -0.013   1.076   0.008  0.00  0.00    +0.045 A 
ENDBRANCH   5  15
ENDBRANCH   1   5
BRANCH   2  18
ATOM     18  C   UNL     1       3.121   5.571   3.123  0.00  0.00    +0.019 C 
BRANCH  18  26
ATOM     19  C   UNL     1       1.998   7.072   4.656  0.00  0.00    -0.059 C 
ATOM     20  C   UNL     1       1.392   7.170   6.061  0.00  0.00    +0.089 C 
ATOM     21  N   UNL     1       2.452   6.907   7.046  0.00  0.00    -0.303 N 
ATOM     22  C   UNL     1       3.267   5.694   6.883  0.00  0.00    +0.089 C 
ATOM     23  C   UNL     1       3.799   5.654   5.446  0.00  0.00    -0.059 C 
ATOM     24  C   UNL     1       2.670   7.755   8.070  0.00  0.00    +0.244 C 
ATOM     25  O   UNL     1       3.549   7.522   8.873  0.00  0.00    -0.273 OA
ATOM     26  N   UNL     1       2.655   5.755   4.514  0.00  0.00    +0.387 N 
ATOM     27  H   UNL     1       1.977   5.018   4.738  0.00  0.00    -0.081 HD
BRANCH  24  28
ATOM     28  C   UNL     1       1.823   8.992   8.218  0.00  0.00    +0.204 C 
ATOM     29  C   UNL     1       0.363   8.595   8.512  0.00  0.00    +0.043 C 
ATOM     30  C   UNL     1       0.052   9.274   9.868  0.00  0.00    +0.031 C 
ATOM     31  C   UNL     1       1.125  10.391   9.927  0.00  0.00    +0.161 C 
ATOM     32  O   UNL     1       2.289   9.774   9.330  0.00  0.00    -0.367 OA
ENDBRANCH  24  28
ENDBRANCH  18  26
ENDBRANCH   2  18
TORSDOF 6
