REMARK  Name = ZINC02659146
REMARK  11 active torsions:
REMARK  status: ('A' for Active; 'I' for Inactive)
REMARK    1  A    between atoms: C_1  and  C_2
REMARK    2  A    between atoms: C_2  and  N_3
REMARK    3  A    between atoms: C_4  and  C_26
REMARK    4  A    between atoms: C_7  and  S_8
REMARK    5  A    between atoms: S_8  and  C_9
REMARK    6  A    between atoms: C_9  and  C_10
REMARK    7  A    between atoms: N_12  and  N_13
REMARK    8  A    between atoms: C_17  and  C_25
REMARK    9  A    between atoms: C_19  and  C_24
REMARK   10  A    between atoms: C_22  and  O_23
REMARK   11  A    between atoms: C_29  and  C_32
REMARK                            x       y       z     vdW  Elec       q    Type
REMARK                         _______ _______ _______ _____ _____    ______ ____
ROOT
ATOM      1  C   UNL     1      -3.087  -0.602  -5.128  0.00  0.00    +0.242 C 
ATOM      2  O   UNL     1      -2.033  -0.158  -5.528  0.00  0.00    -0.273 OA
ATOM      3  N   UNL     1      -4.074  -0.885  -6.001  0.00  0.00    -0.206 N 
ATOM      4  H   UNL     1      -4.918  -1.241  -5.681  0.00  0.00    +0.177 HD
ENDROOT
BRANCH   3   5
ATOM      5  N   UNL     1      -3.896  -0.683  -7.263  0.00  0.00    -0.174 NA
ATOM      6  C   UNL     1      -4.857  -0.959  -8.113  0.00  0.00    +0.152 C 
ATOM      7  C   UNL     1      -4.842  -0.803  -9.586  0.00  0.00    +0.033 A 
ATOM      8  C   UNL     1      -3.898  -0.353 -10.497  0.00  0.00    +0.015 A 
ATOM      9  C   UNL     1      -4.203  -0.330 -11.844  0.00  0.00    -0.049 A 
ATOM     10  C   UNL     1      -5.446  -0.754 -12.285  0.00  0.00    +0.008 A 
ATOM     11  C   UNL     1      -6.395  -1.204 -11.393  0.00  0.00    -0.024 A 
ATOM     12  C   UNL     1      -6.109  -1.237 -10.024  0.00  0.00    +0.080 A 
ATOM     13  N   UNL     1      -6.846  -1.625  -8.950  0.00  0.00    -0.211 NA
ATOM     14  C   UNL     1      -6.199  -1.502  -7.821  0.00  0.00    +0.241 C 
ATOM     15  C   UNL     1      -7.742  -1.661 -11.892  0.00  0.00    +0.046 C 
ATOM     16  C   UNL     1      -3.180   0.159 -12.837  0.00  0.00    +0.044 C 
BRANCH  14  17
ATOM     17  O   UNL     1      -6.678  -1.816  -6.594  0.00  0.00    -0.491 OA
ATOM     18  H   UNL     1      -7.581  -2.160  -6.600  0.00  0.00    +0.294 HD
ENDBRANCH  14  17
ENDBRANCH   3   5
BRANCH   1  19
ATOM     19  C   UNL     1      -3.294  -0.839  -3.654  0.00  0.00    +0.174 C 
BRANCH  19  20
ATOM     20  S   UNL     1      -1.796  -0.364  -2.749  0.00  0.00    -0.077 S 
BRANCH  20  25
ATOM     21  N   UNL     1      -1.377  -0.498   0.014  0.00  0.00    -0.302 N 
ATOM     22  C   UNL     1      -2.111  -0.889   1.110  0.00  0.00    +0.165 A 
ATOM     23  N   UNL     1      -3.280  -1.290   0.668  0.00  0.00    -0.128 NA
ATOM     24  N   UNL     1      -3.327  -1.179  -0.611  0.00  0.00    -0.122 NA
ATOM     25  C   UNL     1      -2.192  -0.694  -1.064  0.00  0.00    +0.192 A 
BRANCH  22  26
ATOM     26  C   UNL     1      -1.666  -0.863   2.520  0.00  0.00    +0.019 A 
ATOM     27  C   UNL     1      -0.592  -0.057   2.901  0.00  0.00    +0.012 A 
ATOM     28  C   UNL     1      -0.181  -0.037   4.218  0.00  0.00    +0.004 A 
ATOM     29  C   UNL     1      -0.832  -0.813   5.160  0.00  0.00    -0.050 A 
ATOM     30  C   UNL     1      -1.898  -1.614   4.789  0.00  0.00    +0.004 A 
ATOM     31  C   UNL     1      -2.322  -1.638   3.477  0.00  0.00    +0.012 A 
ATOM     32  C   UNL     1      -0.378  -0.787   6.597  0.00  0.00    +0.044 C 
ENDBRANCH  22  26
BRANCH  21  34
ATOM     33  C   UNL     1      -0.048   1.554   0.025  0.00  0.00    +0.027 C 
ATOM     34  C   UNL     1      -0.009   0.025   0.005  0.00  0.00    +0.122 C 
ENDBRANCH  21  34
ENDBRANCH  20  25
ENDBRANCH  19  20
ENDBRANCH   1  19
TORSDOF 7
