REMARK  Name = ZINC12330176
REMARK  7 active torsions:
REMARK  status: ('A' for Active; 'I' for Inactive)
REMARK    1  A    between atoms: C_1  and  C_2
REMARK    2  A    between atoms: C_7  and  C_8
REMARK    3  A    between atoms: C_15  and  C_16
REMARK    4  A    between atoms: C_15  and  N_63
REMARK    5  A    between atoms: C_16  and  C_18
REMARK    6  A    between atoms: C_16  and  O_27
REMARK    7  A    between atoms: C_29  and  O_31
REMARK                            x       y       z     vdW  Elec       q    Type
REMARK                         _______ _______ _______ _____ _____    ______ ____
ROOT
ATOM      1  C   UNL     1       0.254   8.478   6.880  0.00  0.00    +0.044 C 
ATOM      2  C   UNL     1       0.816   7.789   5.664  0.00  0.00    -0.047 A 
ATOM      3  C   UNL     1       0.538   8.279   4.402  0.00  0.00    +0.013 A 
ATOM      4  C   UNL     1       1.051   7.651   3.280  0.00  0.00    +0.023 A 
ATOM      5  C   UNL     1       1.847   6.528   3.422  0.00  0.00    +0.127 A 
ATOM      6  C   UNL     1       2.126   6.038   4.694  0.00  0.00    +0.049 A 
ATOM      7  C   UNL     1       1.610   6.667   5.809  0.00  0.00    -0.044 A 
ATOM      8  C   UNL     1       1.913   6.131   7.185  0.00  0.00    +0.044 C 
ATOM      9  O   UNL     1       2.375   5.883   2.349  0.00  0.00    -0.485 OA
ATOM     10  C   UNL     1       1.814   6.153   1.066  0.00  0.00    +0.110 C 
ATOM     11  C   UNL     1       2.711   5.569  -0.026  0.00  0.00    +0.029 C 
ATOM     12  C   UNL     1       2.757   4.045   0.117  0.00  0.00    -0.075 C 
ATOM     13  C   UNL     1       0.534   4.010   1.081  0.00  0.00    -0.075 C 
ATOM     14  C   UNL     1       0.420   5.532   0.967  0.00  0.00    +0.029 C 
ATOM     15  C   UNL     1       1.710   7.672   0.885  0.00  0.00    +0.084 C 
ATOM     16  C   UNL     1       0.720   8.213   1.920  0.00  0.00    +0.152 C 
ATOM     17  N   UNL     1       1.385   3.510  -0.019  0.00  0.00    +0.382 N 
ATOM     18  H   UNL     1       0.992   3.824  -0.914  0.00  0.00    -0.082 HD
ENDROOT
BRANCH  16  19
ATOM     19  O   UNL     1       0.807   9.639   1.960  0.00  0.00    -0.387 OA
ATOM     20  H   UNL     1       0.204  10.052   2.594  0.00  0.00    +0.210 HD
ENDBRANCH  16  19
BRANCH  17  21
ATOM     21  C   UNL     1       1.417   2.032  -0.001  0.00  0.00    -0.042 C 
BRANCH  21  22
ATOM     22  C   UNL     1      -0.018   1.503  -0.019  0.00  0.00    +0.128 C 
BRANCH  22  23
ATOM     23  C   UNL     1       0.002  -0.003  -0.057  0.00  0.00    -0.021 A 
ATOM     24  C   UNL     1       0.218  -0.662  -1.253  0.00  0.00    +0.006 A 
ATOM     25  C   UNL     1       0.242  -2.043  -1.285  0.00  0.00    +0.004 A 
ATOM     26  C   UNL     1       0.040  -2.770  -0.124  0.00  0.00    -0.044 A 
ATOM     27  C   UNL     1      -0.181  -2.112   1.071  0.00  0.00    -0.044 A 
ATOM     28  C   UNL     1      -0.200  -0.727   1.101  0.00  0.00    +0.010 A 
ATOM     29  C   UNL     1      -0.372  -3.120   2.183  0.00  0.00    +0.036 C 
ATOM     30  C   UNL     1      -0.679  -4.455   1.470  0.00  0.00    +0.009 C 
ATOM     31  C   UNL     1       0.013  -4.266   0.103  0.00  0.00    +0.036 C 
ENDBRANCH  22  23
BRANCH  22  32
ATOM     32  O   UNL     1      -0.695   2.000  -1.175  0.00  0.00    -0.389 OA
ATOM     33  H   UNL     1      -0.284   1.741  -2.012  0.00  0.00    +0.210 HD
ENDBRANCH  22  32
ENDBRANCH  21  22
ENDBRANCH  17  21
TORSDOF 5
