REMARK  Name = ZINC34660044
REMARK  5 active torsions:
REMARK  status: ('A' for Active; 'I' for Inactive)
REMARK    1  A    between atoms: C_3  and  O_13
REMARK    2  A    between atoms: C_4  and  C_8
REMARK    3  A    between atoms: C_8  and  N_9
REMARK    4  A    between atoms: N_9  and  C_10
REMARK    5  A    between atoms: O_13  and  C_14
REMARK                            x       y       z     vdW  Elec       q    Type
REMARK                         _______ _______ _______ _____ _____    ______ ____
ROOT
ATOM      1  C   UNL     1       0.030   1.424   0.609  0.00  0.00    +0.019 A 
ATOM      2  C   UNL     1       1.208   2.117   0.403  0.00  0.00    +0.047 A 
ATOM      3  C   UNL     1       2.389   1.425   0.183  0.00  0.00    +0.123 A 
ATOM      4  C   UNL     1       2.386   0.037   0.170  0.00  0.00    -0.022 A 
ATOM      5  C   UNL     1       1.207  -0.652   0.377  0.00  0.00    +0.020 A 
ATOM      6  C   UNL     1       0.029   0.041   0.596  0.00  0.00    +0.018 A 
ATOM      7 BR   UNL     1      -1.583  -0.905   0.879  0.00  0.00    -0.050 Br
ENDROOT
BRANCH   4   8
ATOM      8  C   UNL     1       3.668  -0.718  -0.070  0.00  0.00    -0.043 C 
BRANCH   8   9
ATOM      9  N   UNL     1       4.447  -0.767   1.175  0.00  0.00    +0.384 N 
ATOM     10  H   UNL     1       4.661   0.172   1.476  0.00  0.00    -0.085 HD
ATOM     11  H   UNL     1       3.910  -1.236   1.889  0.00  0.00    -0.085 HD
BRANCH   9  12
ATOM     12  C   UNL     1       5.697  -1.503   0.941  0.00  0.00    -0.072 C 
ATOM     13  C   UNL     1       7.010  -0.734   1.099  0.00  0.00    -0.017 C 
ATOM     14  C   UNL     1       6.598  -1.767   2.149  0.00  0.00    -0.017 C 
ENDBRANCH   9  12
ENDBRANCH   8   9
ENDBRANCH   4   8
BRANCH   3  15
ATOM     15  O   UNL     1       3.548   2.104  -0.021  0.00  0.00    -0.479 OA
BRANCH  15  16
ATOM     16  C   UNL     1       3.457   3.527  -0.124  0.00  0.00    +0.259 C 
ATOM     17  C   UNL     1       4.636   4.060  -0.941  0.00  0.00    +0.054 C 
ATOM     18  C   UNL     1       5.885   3.238  -0.683  0.00  0.00    +0.006 C 
ATOM     19  C   UNL     1       6.423   3.369   0.730  0.00  0.00    +0.019 C 
ATOM     20  C   UNL     1       5.455   2.752   1.742  0.00  0.00    +0.104 C 
ATOM     21  N   UNL     1       4.460   3.768   2.121  0.00  0.00    -0.312 N 
ATOM     22  C   UNL     1       3.509   4.141   1.259  0.00  0.00    +0.254 C 
ATOM     23  O   UNL     1       2.689   4.976   1.581  0.00  0.00    -0.272 OA
ATOM     24  H   UNL     1       4.493   4.170   3.004  0.00  0.00    +0.149 HD
ENDBRANCH  15  16
ENDBRANCH   3  15
TORSDOF 5
