REMARK  Name = ZINC43754944
REMARK  7 active torsions:
REMARK  status: ('A' for Active; 'I' for Inactive)
REMARK    1  A    between atoms: C_1  and  C_2
REMARK    2  A    between atoms: C_2  and  C_3
REMARK    3  A    between atoms: C_3  and  C_4
REMARK    4  A    between atoms: C_4  and  O_5
REMARK    5  A    between atoms: O_5  and  C_6
REMARK    6  A    between atoms: C_12  and  C_29
REMARK    7  A    between atoms: C_23  and  C_28
REMARK                            x       y       z     vdW  Elec       q    Type
REMARK                         _______ _______ _______ _____ _____    ______ ____
ROOT
ATOM      1  C   UNL     1       1.219  -3.886  -2.938  0.00  0.00    +0.159 C 
ATOM      2  C   UNL     1       0.267  -4.535  -4.052  0.00  0.00    +0.107 C 
ATOM      3  C   UNL     1       0.721  -3.898  -5.304  0.00  0.00    +0.024 C 
ATOM      4  C   UNL     1       2.227  -3.646  -5.054  0.00  0.00    +0.004 C 
ATOM      5  C   UNL     1       2.498  -4.277  -3.627  0.00  0.00    +0.020 C 
ATOM      6  C   UNL     1       3.834  -3.786  -3.156  0.00  0.00    +0.012 C 
ATOM      7  C   UNL     1       4.899  -4.351  -4.113  0.00  0.00    +0.005 C 
ATOM      8  C   UNL     1       4.618  -3.955  -5.562  0.00  0.00    -0.001 C 
ATOM      9  C   UNL     1       3.186  -4.334  -6.008  0.00  0.00    -0.004 C 
ATOM     10  C   UNL     1       2.930  -3.864  -7.441  0.00  0.00    +0.004 C 
ATOM     11  C   UNL     1       3.947  -4.516  -8.379  0.00  0.00    +0.004 C 
ATOM     12  C   UNL     1       5.362  -4.107  -7.963  0.00  0.00    -0.005 C 
ATOM     13  C   UNL     1       5.635  -4.635  -6.481  0.00  0.00    -0.026 C 
ATOM     14  C   UNL     1       7.051  -4.228  -6.065  0.00  0.00    +0.007 C 
ATOM     15  C   UNL     1       7.214  -2.713  -6.199  0.00  0.00    +0.001 C 
ATOM     16  C   UNL     1       6.969  -2.297  -7.650  0.00  0.00    +0.000 C 
ATOM     17  C   UNL     1       5.504  -2.587  -8.066  0.00  0.00    +0.004 C 
ATOM     18  C   UNL     1       5.492  -6.154  -6.364  0.00  0.00    +0.012 C 
ATOM     19  C   UNL     1       2.558  -5.801  -3.741  0.00  0.00    +0.016 C 
ATOM     20  S   UNL     1      -1.256  -4.236  -3.149  0.00  0.00    -0.085 S 
ATOM     21  C   UNL     1      -0.551  -4.599  -1.528  0.00  0.00    +0.128 C 
ATOM     22  N   UNL     1       0.766  -4.442  -1.684  0.00  0.00    -0.339 N 
ATOM     23  N   UNL     1      -1.222  -4.952  -0.380  0.00  0.00    -0.339 N 
ATOM     24  H   UNL     1      -2.189  -5.030  -0.388  0.00  0.00    +0.144 HD
ATOM     25  H   UNL     1      -0.728  -5.124   0.437  0.00  0.00    +0.144 HD
ATOM     26  H   UNL     1       1.395  -4.701  -0.991  0.00  0.00    +0.164 HD
ENDROOT
BRANCH   1  27
ATOM     27  O   UNL     1       1.076  -2.464  -2.929  0.00  0.00    -0.353 OA
BRANCH  27  28
ATOM     28  C   UNL     1      -0.027  -1.996  -2.150  0.00  0.00    +0.163 C 
BRANCH  28  29
ATOM     29  C   UNL     1       0.015  -0.469  -2.074  0.00  0.00    +0.028 C 
BRANCH  29  31
ATOM     30  C   UNL     1      -1.124   1.560  -1.164  0.00  0.00    +0.004 C 
ATOM     31  C   UNL     1      -1.166   0.033  -1.240  0.00  0.00    -0.001 C 
ENDBRANCH  29  31
ENDBRANCH  28  29
ENDBRANCH  27  28
ENDBRANCH   1  27
TORSDOF 4
