REMARK  Name = ZINC35560738
REMARK  5 active torsions:
REMARK  status: ('A' for Active; 'I' for Inactive)
REMARK    1  A    between atoms: C_1  and  C_2
REMARK    2  A    between atoms: C_2  and  N_3
REMARK    3  A    between atoms: N_3  and  C_4
REMARK    4  A    between atoms: C_4  and  C_6
REMARK    5  A    between atoms: C_4  and  C_14
REMARK                            x       y       z     vdW  Elec       q    Type
REMARK                         _______ _______ _______ _____ _____    ______ ____
ROOT
ATOM      1  C   UNL     1       0.710  -1.947  -1.215  0.00  0.00    -0.007 C 
ENDROOT
BRANCH   1   2
ATOM      2  C   UNL     1      -0.742  -2.197  -1.532  0.00  0.00    -0.037 A 
ATOM      3  C   UNL     1      -1.347  -1.527  -2.578  0.00  0.00    +0.023 A 
ATOM      4  C   UNL     1      -2.680  -1.757  -2.869  0.00  0.00    +0.041 A 
ATOM      5  C   UNL     1      -3.407  -2.658  -2.112  0.00  0.00    +0.021 A 
ATOM      6  C   UNL     1      -2.803  -3.328  -1.066  0.00  0.00    +0.021 A 
ATOM      7  C   UNL     1      -1.468  -3.103  -0.779  0.00  0.00    +0.043 A 
ATOM      8 CL   UNL     1      -0.707  -3.950   0.531  0.00  0.00    -0.083 Cl
ATOM      9 CL   UNL     1      -3.439  -0.914  -4.183  0.00  0.00    -0.084 Cl
ENDBRANCH   1   2
BRANCH   1  10
ATOM     10  C   UNL     1       1.571  -2.551  -2.294  0.00  0.00    -0.035 A 
ATOM     11  C   UNL     1       1.957  -1.797  -3.387  0.00  0.00    +0.026 A 
ATOM     12  C   UNL     1       2.732  -2.372  -4.340  0.00  0.00    +0.056 A 
ATOM     13  S   UNL     1       2.939  -4.026  -3.701  0.00  0.00    -0.074 S 
ATOM     14  C   UNL     1       1.983  -3.839  -2.205  0.00  0.00    +0.058 A 
ATOM     15 BR   UNL     1       1.634  -5.110  -0.848  0.00  0.00    -0.042 Br
ATOM     16 BR   UNL     1       3.417  -1.617  -5.933  0.00  0.00    -0.043 Br
ENDBRANCH   1  10
BRANCH   1  17
ATOM     17  N   UNL     1       0.953  -0.500  -1.146  0.00  0.00    +0.386 N 
ATOM     18  H   UNL     1       0.648  -0.066  -2.005  0.00  0.00    -0.085 HD
ATOM     19  H   UNL     1       1.939  -0.330  -1.016  0.00  0.00    -0.085 HD
BRANCH  17  21
ATOM     20  C   UNL     1       0.459   1.577   0.053  0.00  0.00    -0.017 C 
ATOM     21  C   UNL     1       0.205   0.070  -0.018  0.00  0.00    -0.085 C 
ENDBRANCH  17  21
ENDBRANCH   1  17
TORSDOF 4
