REMARK  Name = ZINC51171126
REMARK  3 active torsions:
REMARK  status: ('A' for Active; 'I' for Inactive)
REMARK    1  A    between atoms: C_5  and  C_6
REMARK    2  A    between atoms: N_8  and  C_9
REMARK    3  A    between atoms: C_14  and  N_15
REMARK                            x       y       z     vdW  Elec       q    Type
REMARK                         _______ _______ _______ _____ _____    ______ ____
ROOT
ATOM      1  C   UNL     1      -1.998  -3.127   0.098  0.00  0.00    +0.057 A 
ATOM      2  C   UNL     1      -3.283  -2.604   0.100  0.00  0.00    +0.052 A 
ATOM      3  C   UNL     1      -4.373  -3.454   0.197  0.00  0.00    +0.078 A 
ATOM      4  C   UNL     1      -4.181  -4.831   0.294  0.00  0.00    +0.144 A 
ATOM      5  C   UNL     1      -2.899  -5.354   0.292  0.00  0.00    +0.072 A 
ATOM      6  C   UNL     1      -1.806  -4.505   0.188  0.00  0.00    +0.050 A 
ATOM      7  O   UNL     1      -5.262  -5.652   0.392  0.00  0.00    -0.481 OA
ATOM      8  C   UNL     1      -6.400  -5.136   1.087  0.00  0.00    +0.325 C 
ATOM      9  C   UNL     1      -6.694  -3.736   0.609  0.00  0.00    +0.255 C 
ATOM     10  O   UNL     1      -7.835  -3.325   0.592  0.00  0.00    -0.272 OA
ATOM     11  N   UNL     1      -5.681  -2.942   0.200  0.00  0.00    -0.280 N 
ATOM     12  H   UNL     1      -5.854  -2.031  -0.087  0.00  0.00    +0.155 HD
ENDROOT
BRANCH   1  15
ATOM     13  C   UNL     1      -1.027  -1.060  -0.579  0.00  0.00    +0.255 C 
ATOM     14  O   UNL     1      -2.081  -0.750  -1.105  0.00  0.00    -0.269 OA
ATOM     15  N   UNL     1      -0.892  -2.270  -0.001  0.00  0.00    -0.279 N 
ATOM     16  H   UNL     1      -0.030  -2.548   0.346  0.00  0.00    +0.155 HD
BRANCH  13  21
ATOM     17  C   UNL     1       0.163   1.161  -1.107  0.00  0.00    +0.022 A 
ATOM     18  C   UNL     1       1.362   1.812  -0.946  0.00  0.00    +0.028 A 
ATOM     19  C   UNL     1       2.372   1.179  -0.296  0.00  0.00    +0.079 A 
ATOM     20  S   UNL     1       1.725  -0.315   0.116  0.00  0.00    -0.072 S 
ATOM     21  C   UNL     1       0.094  -0.118  -0.575  0.00  0.00    +0.076 A 
ATOM     22 CL   UNL     1       3.968   1.779   0.034  0.00  0.00    -0.076 Cl
ENDBRANCH  13  21
ENDBRANCH   1  15
BRANCH   6  23
ATOM     23  N   UNL     1      -0.508  -5.033   0.180  0.00  0.00    -0.356 N 
ATOM     24  H   UNL     1       0.256  -4.440   0.112  0.00  0.00    +0.142 HD
ATOM     25  H   UNL     1      -0.374  -5.992   0.243  0.00  0.00    +0.142 HD
ENDBRANCH   6  23
TORSDOF 3
