REMARK  Name = ZINC59331661
REMARK  8 active torsions:
REMARK  status: ('A' for Active; 'I' for Inactive)
REMARK    1  A    between atoms: C_1  and  C_2
REMARK    2  A    between atoms: C_9  and  N_13
REMARK    3  A    between atoms: C_10  and  C_11
REMARK    4  A    between atoms: N_13  and  C_14
REMARK    5  A    between atoms: C_14  and  N_16
REMARK    6  A    between atoms: C_17  and  C_19
REMARK    7  A    between atoms: C_20  and  C_21
REMARK    8  A    between atoms: C_24  and  C_26
REMARK                            x       y       z     vdW  Elec       q    Type
REMARK                         _______ _______ _______ _____ _____    ______ ____
ROOT
ATOM      1  N   UNL     1       2.583  -7.339   3.357  0.00  0.00    -0.264 N 
ATOM      2  C   UNL     1       2.893  -7.599   4.642  0.00  0.00    +0.242 C 
ATOM      3  O   UNL     1       2.872  -6.703   5.467  0.00  0.00    -0.270 OA
ATOM      4  H   UNL     1       2.599  -8.053   2.700  0.00  0.00    +0.157 HD
ENDROOT
BRANCH   1   5
ATOM      5  C   UNL     1       2.250  -6.087   2.984  0.00  0.00    +0.141 C 
ATOM      6  S   UNL     1       2.222  -4.828   4.143  0.00  0.00    -0.018 S 
BRANCH   5   7
ATOM      7  N   UNL     1       1.940  -5.827   1.698  0.00  0.00    -0.290 N 
ATOM      8  H   UNL     1       1.956  -6.541   1.041  0.00  0.00    +0.154 HD
BRANCH   7  16
ATOM      9  C   UNL     1      -0.019   1.526   0.010  0.00  0.00    +0.008 C 
ATOM     10  C   UNL     1       0.002  -0.004   0.002  0.00  0.00    -0.009 C 
ATOM     11  C   UNL     1       0.724  -0.500  -1.254  0.00  0.00    +0.008 C 
ATOM     12  C   UNL     1       0.537  -2.012  -1.399  0.00  0.00    +0.037 C 
ATOM     13  C   UNL     1       0.935  -2.680  -0.092  0.00  0.00    -0.018 A 
ATOM     14  C   UNL     1       1.019  -1.977   1.059  0.00  0.00    -0.004 A 
ATOM     15  S   UNL     1       1.507  -3.165   2.275  0.00  0.00    -0.077 S 
ATOM     16  C   UNL     1       1.598  -4.539   1.314  0.00  0.00    +0.089 A 
ATOM     17  C   UNL     1       1.253  -4.090   0.049  0.00  0.00    +0.084 A 
ATOM     18  C   UNL     1       0.750  -0.515   1.242  0.00  0.00    +0.046 C 
BRANCH  17  19
ATOM     19  C   UNL     1       1.212  -4.980  -1.072  0.00  0.00    +0.102 C 
ATOM     20  N   UNL     1       1.179  -5.686  -1.962  0.00  0.00    -0.191 NA
ENDBRANCH  17  19
ENDBRANCH   7  16
ENDBRANCH   5   7
ENDBRANCH   1   5
BRANCH   2  21
ATOM     21  C   UNL     1       3.241  -8.911   5.034  0.00  0.00    +0.071 C 
ATOM     22  C   UNL     1       3.554  -9.174   6.330  0.00  0.00    +0.051 C 
BRANCH  22  23
ATOM     23  C   UNL     1       3.902 -10.486   6.721  0.00  0.00    +0.129 A 
ATOM     24  C   UNL     1       4.235 -10.889   8.001  0.00  0.00    +0.050 A 
ATOM     25  C   UNL     1       4.506 -12.258   7.936  0.00  0.00    +0.050 A 
ATOM     26  C   UNL     1       4.331 -12.641   6.626  0.00  0.00    +0.136 A 
ATOM     27  O   UNL     1       3.962 -11.563   5.910  0.00  0.00    -0.455 OA
BRANCH  26  28
ATOM     28  C   UNL     1       4.512 -14.006   6.095  0.00  0.00    +0.020 A 
ATOM     29  C   UNL     1       4.889 -15.046   6.949  0.00  0.00    +0.031 A 
ATOM     30  C   UNL     1       5.056 -16.321   6.447  0.00  0.00    +0.043 A 
ATOM     31  C   UNL     1       4.852 -16.570   5.100  0.00  0.00    +0.040 A 
ATOM     32  C   UNL     1       4.479 -15.544   4.248  0.00  0.00    +0.043 A 
ATOM     33  C   UNL     1       4.302 -14.266   4.739  0.00  0.00    +0.031 A 
ATOM     34 CL   UNL     1       4.226 -15.867   2.562  0.00  0.00    -0.083 Cl
ATOM     35 CL   UNL     1       5.525 -17.614   7.506  0.00  0.00    -0.083 Cl
ENDBRANCH  26  28
ENDBRANCH  22  23
ENDBRANCH   2  21
TORSDOF 7
