REMARK  Name = ZINC21363823
REMARK  3 active torsions:
REMARK  status: ('A' for Active; 'I' for Inactive)
REMARK    1  A    between atoms: C_3  and  C_6
REMARK    2  A    between atoms: N_11  and  C_12
REMARK    3  A    between atoms: C_12  and  N_13
REMARK                            x       y       z     vdW  Elec       q    Type
REMARK                         _______ _______ _______ _____ _____    ______ ____
ROOT
ATOM      1  N   UNL     1       0.742   3.224   2.133  0.00  0.00    -0.211 N 
ATOM      2  C   UNL     1       1.858   3.525   1.436  0.00  0.00    +0.248 C 
ATOM      3  O   UNL     1       2.586   2.755   0.848  0.00  0.00    -0.273 OA
ATOM      4  C   UNL     1       2.005   5.025   1.540  0.00  0.00    +0.113 C 
ATOM      5  C   UNL     1       3.317   5.412   2.159  0.00  0.00    +0.035 C 
ATOM      6  C   UNL     1       3.196   6.662   3.058  0.00  0.00    +0.003 C 
ATOM      7  C   UNL     1       2.298   7.753   2.442  0.00  0.00    +0.000 C 
ATOM      8  C   UNL     1       2.531   7.924   0.966  0.00  0.00    +0.000 C 
ATOM      9  C   UNL     1       1.504   7.061   0.207  0.00  0.00    +0.003 C 
ATOM     10  C   UNL     1       1.895   5.660   0.139  0.00  0.00    +0.035 C 
ATOM     11  N   UNL     1       0.864   5.441   2.363  0.00  0.00    -0.285 N 
ATOM     12  C   UNL     1       0.181   4.319   2.662  0.00  0.00    +0.310 C 
ATOM     13  O   UNL     1      -0.830   4.302   3.335  0.00  0.00    -0.252 OA
ATOM     14  H   UNL     1       0.721   6.504   2.608  0.00  0.00    +0.151 HD
ENDROOT
BRANCH   1  15
ATOM     15  C   UNL     1       0.215   1.867   2.297  0.00  0.00    +0.205 C 
BRANCH  15  20
ATOM     16  C   UNL     1      -1.449   2.800   0.776  0.00  0.00    +0.095 C 
ATOM     17  C   UNL     1      -1.948   2.439  -0.646  0.00  0.00    +0.025 C 
ATOM     18  C   UNL     1      -0.779   1.607  -1.222  0.00  0.00    +0.017 C 
ATOM     19  C   UNL     1      -0.013   1.086   0.008  0.00  0.00    +0.086 C 
ATOM     20  N   UNL     1      -0.726   1.573   1.208  0.00  0.00    -0.279 NA
BRANCH  16  23
ATOM     21  C   UNL     1      -4.191   4.300   2.953  0.00  0.00    +0.008 A 
ATOM     22  C   UNL     1      -3.102   4.280   2.102  0.00  0.00    +0.013 A 
ATOM     23  C   UNL     1      -2.611   3.085   1.691  0.00  0.00    +0.007 A 
ATOM     24  S   UNL     1      -3.704   1.935   2.511  0.00  0.00    -0.100 S 
ATOM     25  C   UNL     1      -4.736   3.125   3.352  0.00  0.00    +0.045 A 
ENDBRANCH  16  23
ENDBRANCH  15  20
ENDBRANCH   1  15
TORSDOF 3
