REMARK  Name = ZINC37282841
REMARK  2 active torsions:
REMARK  status: ('A' for Active; 'I' for Inactive)
REMARK    1  A    between atoms: C_12  and  N_14
REMARK    2  A    between atoms: N_14  and  C_15
REMARK                            x       y       z     vdW  Elec       q    Type
REMARK                         _______ _______ _______ _____ _____    ______ ____
ROOT
ATOM      1  C   UNL     1       0.356  -0.240  -0.142  0.00  0.00    +0.016 A 
ATOM      2  C   UNL     1       1.231   0.830  -0.061  0.00  0.00    +0.006 A 
ATOM      3  C   UNL     1       2.592   0.602  -0.091  0.00  0.00    -0.020 A 
ATOM      4  C   UNL     1       3.086  -0.682  -0.190  0.00  0.00    +0.123 A 
ATOM      5  C   UNL     1       2.210  -1.755  -0.282  0.00  0.00    +0.061 A 
ATOM      6  C   UNL     1       0.846  -1.529  -0.257  0.00  0.00    +0.021 A 
ATOM      7 BR   UNL     1      -0.354  -2.986  -0.378  0.00  0.00    -0.050 Br
ATOM      8  O   UNL     1       4.430  -0.905  -0.171  0.00  0.00    -0.492 OA
ATOM      9  C   UNL     1       5.076  -0.681   1.086  0.00  0.00    +0.229 C 
ATOM     10  C   UNL     1       5.480   0.770   1.237  0.00  0.00    +0.040 C 
ATOM     11  C   UNL     1       4.297   1.724   1.308  0.00  0.00    -0.008 C 
ATOM     12  C   UNL     1       3.557   1.771  -0.029  0.00  0.00    -0.036 C 
ENDROOT
BRANCH  12  13
ATOM     13  N   UNL     1       4.523   1.672  -1.131  0.00  0.00    +0.391 N 
ATOM     14  H   UNL     1       5.221   2.393  -1.031  0.00  0.00    -0.084 HD
ATOM     15  H   UNL     1       4.968   0.767  -1.107  0.00  0.00    -0.084 HD
BRANCH  13  16
ATOM     16  C   UNL     1       3.824   1.841  -2.412  0.00  0.00    +0.017 C 
ATOM     17  C   UNL     1       3.768   3.326  -2.775  0.00  0.00    -0.007 C 
ATOM     18  C   UNL     1       5.027   4.039  -2.317  0.00  0.00    +0.000 C 
ATOM     19  C   UNL     1       6.281   3.603  -3.052  0.00  0.00    +0.019 C 
ATOM     20  C   UNL     1       6.631   2.151  -2.718  0.00  0.00    +0.104 C 
ATOM     21  N   UNL     1       5.893   1.266  -3.634  0.00  0.00    -0.317 N 
ATOM     22  C   UNL     1       4.572   1.103  -3.501  0.00  0.00    +0.199 C 
ATOM     23  O   UNL     1       3.971   0.368  -4.256  0.00  0.00    -0.278 OA
ATOM     24  H   UNL     1       6.367   0.796  -4.337  0.00  0.00    +0.149 HD
ENDBRANCH  13  16
ENDBRANCH  12  13
TORSDOF 2
