REMARK  Name = ZINC43222982
REMARK  12 active torsions:
REMARK  status: ('A' for Active; 'I' for Inactive)
REMARK    1  A    between atoms: C_1  and  C_2
REMARK    2  A    between atoms: C_2  and  C_4
REMARK    3  A    between atoms: C_2  and  N_14
REMARK    4  A    between atoms: C_15  and  C_17
REMARK    5  A    between atoms: C_22  and  C_24
REMARK    6  A    between atoms: N_26  and  C_27
REMARK    7  A    between atoms: C_27  and  C_28
REMARK    8  A    between atoms: C_28  and  C_29
REMARK    9  A    between atoms: C_29  and  O_30
REMARK   10  A    between atoms: O_30  and  C_31
REMARK   11  A    between atoms: C_31  and  C_32
REMARK   12  A    between atoms: C_31  and  C_33
REMARK                            x       y       z     vdW  Elec       q    Type
REMARK                         _______ _______ _______ _____ _____    ______ ____
ROOT
ATOM      1  C   UNL     1       0.528  -1.218   3.594  0.00  0.00    +0.068 C 
ATOM      2  C   UNL     1       1.559  -0.196   4.118  0.00  0.00    -0.069 C 
ATOM      3  N   UNL     1       0.814   0.609   5.120  0.00  0.00    +0.380 N 
ATOM      4  C   UNL     1      -0.034  -0.385   5.828  0.00  0.00    -0.069 C 
ATOM      5  C   UNL     1      -0.521  -1.345   4.719  0.00  0.00    +0.068 C 
ATOM      6  H   UNL     1       1.452   1.051   5.764  0.00  0.00    -0.086 HD
ATOM      7  H   UNL     1       0.239   1.299   4.661  0.00  0.00    -0.086 HD
ENDROOT
BRANCH   1   9
ATOM      8  N   UNL     1       0.630  -0.498   1.230  0.00  0.00    -0.309 N 
ATOM      9  C   UNL     1      -0.118  -0.710   2.331  0.00  0.00    +0.215 C 
ATOM     10  O   UNL     1      -1.310  -0.490   2.306  0.00  0.00    -0.276 OA
ATOM     11  H   UNL     1       1.584  -0.674   1.250  0.00  0.00    +0.149 HD
BRANCH   8  13
ATOM     12  C   UNL     1      -0.038   1.525   0.030  0.00  0.00    +0.033 C 
ATOM     13  C   UNL     1       0.002  -0.004   0.002  0.00  0.00    +0.101 C 
BRANCH  13  14
ATOM     14  C   UNL     1       0.800  -0.464  -1.191  0.00  0.00    -0.020 A 
ATOM     15  C   UNL     1       2.132  -0.715  -1.067  0.00  0.00    +0.006 A 
ATOM     16  C   UNL     1       2.886  -1.141  -2.158  0.00  0.00    +0.001 A 
ATOM     17  C   UNL     1       2.313  -1.319  -3.380  0.00  0.00    +0.008 A 
ATOM     18  C   UNL     1       0.940  -1.070  -3.546  0.00  0.00    -0.018 A 
ATOM     19  C   UNL     1       0.172  -0.642  -2.435  0.00  0.00    -0.013 A 
ATOM     20  C   UNL     1      -1.203  -0.399  -2.600  0.00  0.00    +0.009 A 
ATOM     21  C   UNL     1      -1.777  -0.583  -3.820  0.00  0.00    +0.001 A 
ATOM     22  C   UNL     1      -1.023  -1.009  -4.912  0.00  0.00    +0.001 A 
ATOM     23  C   UNL     1       0.313  -1.242  -4.792  0.00  0.00    +0.008 A 
ENDBRANCH  13  14
ENDBRANCH   8  13
ENDBRANCH   1   9
BRANCH   5  24
ATOM     24  C   UNL     1      -0.569  -2.761   5.232  0.00  0.00    +0.215 C 
ATOM     25  O   UNL     1       0.161  -3.604   4.756  0.00  0.00    -0.276 OA
ATOM     26  N   UNL     1      -1.422  -3.090   6.222  0.00  0.00    -0.315 N 
ATOM     27  H   UNL     1      -2.006  -2.416   6.603  0.00  0.00    +0.149 HD
BRANCH  26  28
ATOM     28  C   UNL     1      -1.469  -4.466   6.722  0.00  0.00    +0.106 C 
BRANCH  28  29
ATOM     29  C   UNL     1      -2.514  -4.570   7.835  0.00  0.00    +0.047 C 
BRANCH  29  30
ATOM     30  C   UNL     1      -2.562  -6.008   8.356  0.00  0.00    +0.161 C 
BRANCH  30  31
ATOM     31  O   UNL     1      -3.538  -6.104   9.396  0.00  0.00    -0.377 OA
BRANCH  31  32
ATOM     32  C   UNL     1      -3.663  -7.413   9.955  0.00  0.00    +0.112 C 
ATOM     33  C   UNL     1      -2.698  -7.559  11.133  0.00  0.00    +0.037 C 
ATOM     34  C   UNL     1      -5.098  -7.624  10.442  0.00  0.00    +0.037 C 
ENDBRANCH  31  32
ENDBRANCH  30  31
ENDBRANCH  29  30
ENDBRANCH  28  29
ENDBRANCH  26  28
ENDBRANCH   5  24
TORSDOF 9
