REMARK  Name = ZINC65638091
REMARK  8 active torsions:
REMARK  status: ('A' for Active; 'I' for Inactive)
REMARK    1  A    between atoms: C_1  and  C_2
REMARK    2  A    between atoms: C_2  and  C_3
REMARK    3  A    between atoms: C_8  and  N_9
REMARK    4  A    between atoms: C_10  and  C_12
REMARK    5  A    between atoms: N_14  and  C_15
REMARK    6  A    between atoms: C_15  and  C_16
REMARK    7  A    between atoms: N_20  and  C_22
REMARK    8  A    between atoms: C_22  and  C_23
REMARK                            x       y       z     vdW  Elec       q    Type
REMARK                         _______ _______ _______ _____ _____    ______ ____
ROOT
ATOM      1  C   UNL     1       4.939  -0.222   1.158  0.00  0.00    +0.299 C 
ATOM      2  O   UNL     1       4.370   0.170   2.156  0.00  0.00    -0.265 OA
ATOM      3  N   UNL     1       6.271  -0.428   1.179  0.00  0.00    -0.307 N 
ATOM      4  H   UNL     1       6.726  -0.741   0.382  0.00  0.00    +0.149 HD
ENDROOT
BRANCH   1   6
ATOM      5  N   UNL     1       2.833  -0.269  -0.115  0.00  0.00    -0.278 N 
ATOM      6  C   UNL     1       4.164  -0.475  -0.093  0.00  0.00    +0.303 C 
ATOM      7  O   UNL     1       4.734  -0.866  -1.091  0.00  0.00    -0.265 OA
ATOM      8  H   UNL     1       2.387   0.106   0.662  0.00  0.00    +0.155 HD
BRANCH   5  14
ATOM      9  C   UNL     1       0.800  -1.086  -1.129  0.00  0.00    -0.026 A 
ATOM     10  C   UNL     1       0.070  -1.402  -2.258  0.00  0.00    +0.005 A 
ATOM     11  C   UNL     1       0.627  -1.234  -3.512  0.00  0.00    +0.000 A 
ATOM     12  C   UNL     1       1.917  -0.751  -3.641  0.00  0.00    +0.002 A 
ATOM     13  C   UNL     1       2.652  -0.433  -2.517  0.00  0.00    +0.023 A 
ATOM     14  C   UNL     1       2.093  -0.595  -1.255  0.00  0.00    +0.037 A 
BRANCH   9  16
ATOM     15  C   UNL     1      -0.422   0.052   0.704  0.00  0.00    +0.009 C 
ATOM     16  C   UNL     1       0.193  -1.270   0.238  0.00  0.00    +0.033 C 
ENDBRANCH   9  16
ENDBRANCH   5  14
ENDBRANCH   1   6
BRANCH   3  17
ATOM     17  C   UNL     1       7.031  -0.179   2.407  0.00  0.00    +0.106 C 
BRANCH  17  18
ATOM     18  C   UNL     1       8.510  -0.489   2.162  0.00  0.00    -0.011 C 
ATOM     19  C   UNL     1       9.075   0.496   1.135  0.00  0.00    +0.001 C 
ATOM     20  C   UNL     1      10.572   0.228   0.957  0.00  0.00    -0.018 C 
ATOM     21  C   UNL     1      11.271   0.341   2.313  0.00  0.00    -0.078 C 
ATOM     22  N   UNL     1      10.704  -0.644   3.243  0.00  0.00    +0.383 N 
ATOM     23  C   UNL     1       9.284  -0.350   3.475  0.00  0.00    -0.073 C 
ATOM     24  H   UNL     1      10.794  -1.568   2.848  0.00  0.00    -0.081 HD
BRANCH  22  25
ATOM     25  C   UNL     1      11.429  -0.586   4.519  0.00  0.00    -0.043 C 
BRANCH  25  26
ATOM     26  C   UNL     1      12.858  -1.016   4.304  0.00  0.00    -0.064 A 
ATOM     27  C   UNL     1      13.204  -2.348   4.427  0.00  0.00    +0.002 A 
ATOM     28  C   UNL     1      14.514  -2.742   4.231  0.00  0.00    +0.000 A 
ATOM     29  C   UNL     1      15.478  -1.804   3.911  0.00  0.00    +0.000 A 
ATOM     30  C   UNL     1      15.131  -0.472   3.787  0.00  0.00    +0.000 A 
ATOM     31  C   UNL     1      13.820  -0.078   3.979  0.00  0.00    +0.002 A 
ENDBRANCH  25  26
ENDBRANCH  22  25
ENDBRANCH  17  18
ENDBRANCH   3  17
TORSDOF 7
