REMARK  Name = ZINC13228262
REMARK  9 active torsions:
REMARK  status: ('A' for Active; 'I' for Inactive)
REMARK    1  A    between atoms: C_1  and  C_2
REMARK    2  A    between atoms: C_2  and  C_3
REMARK    3  A    between atoms: C_3  and  C_4
REMARK    4  A    between atoms: C_4  and  N_5
REMARK    5  A    between atoms: C_12  and  C_16
REMARK    6  A    between atoms: C_16  and  C_17
REMARK    7  A    between atoms: C_17  and  C_18
REMARK    8  A    between atoms: C_23  and  S_25
REMARK    9  A    between atoms: S_25  and  C_26
REMARK                            x       y       z     vdW  Elec       q    Type
REMARK                         _______ _______ _______ _____ _____    ______ ____
ROOT
ATOM      1  N   UNL     1       3.119  -1.063   2.876  0.00  0.00    -0.328 N 
ATOM      2  C   UNL     1       2.022  -0.309   3.260  0.00  0.00    +0.138 A 
ATOM      3  C   UNL     1       1.732  -0.108   4.603  0.00  0.00    +0.080 A 
ATOM      4  C   UNL     1       0.626   0.653   4.997  0.00  0.00    +0.094 A 
ATOM      5  C   UNL     1       0.425   0.794   6.451  0.00  0.00    +0.037 A 
ATOM      6  C   UNL     1      -0.600   1.502   7.117  0.00  0.00    -0.031 A 
ATOM      7  C   UNL     1      -0.624   1.520   8.493  0.00  0.00    -0.022 A 
ATOM      8  C   UNL     1       0.355   0.845   9.210  0.00  0.00    +0.046 A 
ATOM      9  N   UNL     1       1.309   0.186   8.583  0.00  0.00    -0.244 NA
ATOM     10  C   UNL     1       1.368   0.145   7.269  0.00  0.00    +0.111 A 
ATOM     11  S   UNL     1       2.485  -0.625   6.122  0.00  0.00    -0.064 S 
ATOM     12  C   UNL     1      -1.807   2.336   8.970  0.00  0.00    +0.037 C 
ATOM     13  C   UNL     1      -2.244   3.168   7.745  0.00  0.00    +0.009 C 
ATOM     14  C   UNL     1      -1.756   2.301   6.564  0.00  0.00    +0.036 C 
ATOM     15  N   UNL     1      -0.127   1.169   3.999  0.00  0.00    -0.221 NA
ATOM     16  C   UNL     1       0.174   0.961   2.735  0.00  0.00    +0.190 A 
ATOM     17  N   UNL     1       1.218   0.237   2.349  0.00  0.00    -0.206 NA
ATOM     18  H   UNL     1       3.696  -1.458   3.549  0.00  0.00    +0.147 HD
ENDROOT
BRANCH  16  19
ATOM     19  S   UNL     1      -0.860   1.669   1.497  0.00  0.00    -0.089 S 
ATOM     20  C   UNL     1      -0.013   1.086   0.008  0.00  0.00    +0.093 C 
ENDBRANCH  16  19
BRANCH   1  21
ATOM     21  C   UNL     1       3.409  -1.264   1.454  0.00  0.00    +0.103 C 
BRANCH  21  22
ATOM     22  C   UNL     1       4.664  -2.126   1.306  0.00  0.00    +0.018 C 
BRANCH  22  24
ATOM     23  C   UNL     1       6.222  -3.199  -0.327  0.00  0.00    +0.004 C 
ATOM     24  C   UNL     1       4.967  -2.336  -0.179  0.00  0.00    -0.002 C 
ENDBRANCH  22  24
ENDBRANCH  21  22
ENDBRANCH   1  21
BRANCH   8  25
ATOM     25  C   UNL     1       0.325   0.864  10.716  0.00  0.00    +0.055 C 
BRANCH  25  26
ATOM     26  C   UNL     1      -0.504  -0.317  11.226  0.00  0.00    +0.003 C 
ATOM     27  C   UNL     1      -0.533  -0.296  12.755  0.00  0.00    +0.004 C 
ENDBRANCH  25  26
ENDBRANCH   8  25
TORSDOF 6
