REMARK  Name = ZINC12772809
REMARK  11 active torsions:
REMARK  status: ('A' for Active; 'I' for Inactive)
REMARK    1  A    between atoms: C_1  and  C_2
REMARK    2  A    between atoms: C_4  and  C_33
REMARK    3  A    between atoms: C_6  and  C_29
REMARK    4  A    between atoms: C_10  and  C_11
REMARK    5  A    between atoms: C_16  and  C_19
REMARK    6  A    between atoms: C_22  and  C_24
REMARK    7  A    between atoms: C_24  and  N_25
REMARK    8  A    between atoms: C_26  and  C_28
REMARK    9  A    between atoms: C_29  and  C_30
REMARK   10  A    between atoms: C_29  and  C_31
REMARK   11  A    between atoms: C_29  and  C_32
REMARK                            x       y       z     vdW  Elec       q    Type
REMARK                         _______ _______ _______ _____ _____    ______ ____
ROOT
ATOM      1  C   UNL     1       4.127   4.666  -0.691  0.00  0.00    +0.257 C 
ATOM      2  O   UNL     1       5.309   4.427  -0.854  0.00  0.00    -0.269 OA
ATOM      3  N   UNL     1       3.703   5.942  -0.607  0.00  0.00    -0.260 N 
ATOM      4  C   UNL     1       4.614   6.985  -0.707  0.00  0.00    +0.165 A 
ATOM      5  N   UNL     1       4.401   8.286  -0.656  0.00  0.00    -0.224 NA
ATOM      6  C   UNL     1       5.405   9.153  -0.767  0.00  0.00    +0.087 A 
ATOM      7  C   UNL     1       6.677   8.683  -0.947  0.00  0.00    +0.077 A 
ATOM      8  S   UNL     1       6.384   6.919  -0.945  0.00  0.00    -0.060 S 
ATOM      9  H   UNL     1       2.761   6.133  -0.477  0.00  0.00    +0.157 HD
ENDROOT
BRANCH   1  19
ATOM     10  C   UNL     1       4.824   1.714  -0.597  0.00  0.00    +0.046 C 
ATOM     11  C   UNL     1       3.408   2.226  -0.539  0.00  0.00    -0.020 A 
ATOM     12  C   UNL     1       2.337   1.323  -0.435  0.00  0.00    +0.032 A 
ATOM     13  C   UNL     1       2.360  -0.093  -0.372  0.00  0.00    +0.050 A 
ATOM     14  N   UNL     1       1.226  -0.751  -0.276  0.00  0.00    -0.236 NA
ATOM     15  C   UNL     1       0.053  -0.142  -0.236  0.00  0.00    +0.136 A 
ATOM     16  N   UNL     1      -0.040   1.173  -0.291  0.00  0.00    -0.224 NA
ATOM     17  C   UNL     1       1.045   1.909  -0.388  0.00  0.00    +0.113 A 
ATOM     18  S   UNL     1       1.383   3.648  -0.486  0.00  0.00    -0.064 S 
ATOM     19  C   UNL     1       3.163   3.562  -0.585  0.00  0.00    +0.080 A 
ATOM     20  C   UNL     1       3.670  -0.836  -0.413  0.00  0.00    +0.066 C 
BRANCH  15  21
ATOM     21  C   UNL     1      -1.204  -0.966  -0.125  0.00  0.00    +0.022 C 
ATOM     22  C   UNL     1      -2.421  -0.040  -0.098  0.00  0.00    +0.019 C 
ATOM     23  C   UNL     1      -1.305  -1.906  -1.328  0.00  0.00    +0.019 C 
ATOM     24  C   UNL     1      -1.161  -1.791   1.163  0.00  0.00    +0.019 C 
ENDBRANCH  15  21
ENDBRANCH   1  19
BRANCH   6  25
ATOM     25  C   UNL     1       5.148  10.608  -0.702  0.00  0.00    +0.038 A 
ATOM     26  C   UNL     1       3.960  11.267  -0.534  0.00  0.00    +0.018 A 
ATOM     27  C   UNL     1       3.966  12.646  -0.501  0.00  0.00    +0.013 A 
ATOM     28  C   UNL     1       5.143  13.305  -0.645  0.00  0.00    +0.007 A 
ATOM     29  S   UNL     1       6.304  11.962  -0.829  0.00  0.00    -0.090 S 
BRANCH  28  30
ATOM     30  C   UNL     1       5.403  14.789  -0.649  0.00  0.00    +0.146 C 
BRANCH  30  31
ATOM     31  N   UNL     1       5.671  15.242   0.718  0.00  0.00    -0.311 N 
ATOM     32  C   UNL     1       5.932  16.542   0.958  0.00  0.00    +0.210 C 
ATOM     33  O   UNL     1       5.946  17.337   0.043  0.00  0.00    -0.276 OA
ATOM     34  C   UNL     1       6.208  17.008   2.365  0.00  0.00    +0.109 C 
ATOM     35  H   UNL     1       5.660  14.606   1.450  0.00  0.00    +0.149 HD
ENDBRANCH  30  31
ENDBRANCH  28  30
ENDBRANCH   6  25
TORSDOF 5
