REMARK  Name = ZINC22936058
REMARK  9 active torsions:
REMARK  status: ('A' for Active; 'I' for Inactive)
REMARK    1  A    between atoms: C_1  and  C_2
REMARK    2  A    between atoms: C_2  and  N_3
REMARK    3  A    between atoms: C_7  and  C_9
REMARK    4  A    between atoms: C_9  and  N_10
REMARK    5  A    between atoms: N_10  and  C_11
REMARK    6  A    between atoms: C_11  and  C_12
REMARK    7  A    between atoms: C_21  and  O_22
REMARK    8  A    between atoms: O_22  and  C_23
REMARK    9  A    between atoms: C_23  and  C_24
REMARK                            x       y       z     vdW  Elec       q    Type
REMARK                         _______ _______ _______ _____ _____    ______ ____
ROOT
ATOM      1  C   UNL     1      -3.421  -1.435   3.913  0.00  0.00    +0.016 A 
ATOM      2  C   UNL     1      -3.540  -0.174   4.521  0.00  0.00    -0.010 A 
ATOM      3  C   UNL     1      -2.426   0.468   5.089  0.00  0.00    +0.009 A 
ATOM      4  C   UNL     1      -2.577   1.690   5.671  0.00  0.00    +0.001 A 
ATOM      5  C   UNL     1      -3.821   2.315   5.713  0.00  0.00    +0.001 A 
ATOM      6  C   UNL     1      -4.922   1.723   5.173  0.00  0.00    +0.008 A 
ATOM      7  C   UNL     1      -4.805   0.463   4.564  0.00  0.00    -0.017 A 
ATOM      8  C   UNL     1      -5.920  -0.178   3.996  0.00  0.00    +0.012 A 
ATOM      9  C   UNL     1      -5.773  -1.398   3.414  0.00  0.00    +0.046 A 
ATOM     10  C   UNL     1      -4.524  -2.026   3.366  0.00  0.00    +0.126 A 
ENDROOT
BRANCH   1  11
ATOM     11  C   UNL     1      -2.084  -2.127   3.858  0.00  0.00    +0.120 C 
BRANCH  11  12
ATOM     12  N   UNL     1      -1.380  -1.736   2.629  0.00  0.00    -0.313 NA
ATOM     13  H   UNL     1      -1.287  -0.733   2.570  0.00  0.00    +0.122 HD
BRANCH  12  14
ATOM     14  C   UNL     1      -0.070  -2.393   2.541  0.00  0.00    +0.066 C 
BRANCH  14  19
ATOM     15  N   UNL     1       0.713  -0.491   1.192  0.00  0.00    +0.382 N 
ATOM     16  C   UNL     1       2.136  -0.100   1.116  0.00  0.00    -0.078 C 
ATOM     17  C   UNL     1       2.907  -1.290   1.740  0.00  0.00    -0.020 C 
ATOM     18  C   UNL     1       2.078  -2.500   1.235  0.00  0.00    -0.016 C 
ATOM     19  C   UNL     1       0.632  -1.962   1.251  0.00  0.00    -0.055 C 
ATOM     20  H   UNL     1       0.298  -0.094   2.022  0.00  0.00    -0.081 HD
BRANCH  15  22
ATOM     21  C   UNL     1      -0.019   1.526   0.010  0.00  0.00    -0.017 C 
ATOM     22  C   UNL     1       0.002  -0.004   0.002  0.00  0.00    -0.082 C 
ENDBRANCH  15  22
ENDBRANCH  14  19
ENDBRANCH  12  14
ENDBRANCH  11  12
ENDBRANCH   1  11
BRANCH  10  23
ATOM     23  O   UNL     1      -4.408  -3.243   2.773  0.00  0.00    -0.487 OA
BRANCH  23  24
ATOM     24  C   UNL     1      -5.596  -3.811   2.219  0.00  0.00    +0.264 C 
BRANCH  24  25
ATOM     25  C   UNL     1      -5.275  -5.151   1.608  0.00  0.00    -0.010 A 
ATOM     26  C   UNL     1      -4.889  -5.232   0.283  0.00  0.00    +0.008 A 
ATOM     27  C   UNL     1      -4.595  -6.460  -0.278  0.00  0.00    +0.020 A 
ATOM     28  C   UNL     1      -4.685  -7.609   0.488  0.00  0.00    +0.041 A 
ATOM     29  C   UNL     1      -5.071  -7.528   1.814  0.00  0.00    +0.020 A 
ATOM     30  C   UNL     1      -5.360  -6.298   2.375  0.00  0.00    +0.008 A 
ATOM     31 CL   UNL     1      -4.316  -9.153  -0.216  0.00  0.00    -0.084 Cl
ENDBRANCH  24  25
ENDBRANCH  23  24
ENDBRANCH  10  23
TORSDOF 8
