REMARK  Name = ZINC06579219
REMARK  6 active torsions:
REMARK  status: ('A' for Active; 'I' for Inactive)
REMARK    1  A    between atoms: C_1  and  O_2
REMARK    2  A    between atoms: O_2  and  C_3
REMARK    3  A    between atoms: C_3  and  C_5
REMARK    4  A    between atoms: C_9  and  N_10
REMARK    5  A    between atoms: C_11  and  C_13
REMARK    6  A    between atoms: C_13  and  N_50
REMARK                            x       y       z     vdW  Elec       q    Type
REMARK                         _______ _______ _______ _____ _____    ______ ____
ROOT
ATOM      1  N   UNL     1      -1.372   2.348  -2.478  0.00  0.00    -0.281 N 
ATOM      2  C   UNL     1      -2.126   2.743  -3.523  0.00  0.00    +0.201 C 
ATOM      3  O   UNL     1      -3.063   3.491  -3.346  0.00  0.00    -0.278 OA
ATOM      4  H   UNL     1      -0.622   1.749  -2.620  0.00  0.00    +0.155 HD
ENDROOT
BRANCH   1   9
ATOM      5  C   UNL     1      -1.018   2.506  -0.013  0.00  0.00    +0.091 A 
ATOM      6  C   UNL     1      -1.533   3.121   1.210  0.00  0.00    -0.021 A 
ATOM      7  C   UNL     1      -2.606   3.915   1.041  0.00  0.00    -0.004 A 
ATOM      8  S   UNL     1      -2.943   3.856  -0.702  0.00  0.00    -0.077 S 
ATOM      9  C   UNL     1      -1.668   2.797  -1.201  0.00  0.00    +0.086 A 
ATOM     10  C   UNL     1      -3.075   4.514   2.340  0.00  0.00    +0.043 C 
ATOM     11  C   UNL     1      -1.884   4.329   3.306  0.00  0.00    +0.010 C 
ATOM     12  C   UNL     1      -1.171   3.106   2.695  0.00  0.00    +0.037 C 
BRANCH   5  13
ATOM     13  C   UNL     1       0.147   1.619   0.017  0.00  0.00    +0.342 C 
ATOM     14  O   UNL     1      -0.003   0.423   0.178  0.00  0.00    -0.245 OA
BRANCH  13  16
ATOM     15  C   UNL     1       2.494   1.190  -0.107  0.00  0.00    +0.280 C 
ATOM     16  O   UNL     1       1.387   2.128  -0.141  0.00  0.00    -0.464 OA
ENDBRANCH  13  16
ENDBRANCH   5  13
ENDBRANCH   1   9
BRANCH   2  17
ATOM     17  C   UNL     1      -1.803   2.255  -4.912  0.00  0.00    +0.019 C 
BRANCH  17  25
ATOM     18  C   UNL     1      -2.444   2.469  -7.236  0.00  0.00    -0.078 C 
ATOM     19  C   UNL     1      -3.638   2.675  -8.168  0.00  0.00    -0.019 C 
ATOM     20  C   UNL     1      -3.882   4.176  -8.358  0.00  0.00    -0.002 C 
ATOM     21  C   UNL     1      -4.522   4.737  -7.085  0.00  0.00    -0.000 C 
ATOM     22  C   UNL     1      -5.611   3.779  -6.602  0.00  0.00    -0.002 C 
ATOM     23  C   UNL     1      -5.187   3.146  -5.277  0.00  0.00    -0.019 C 
ATOM     24  C   UNL     1      -4.133   2.066  -5.545  0.00  0.00    -0.078 C 
ATOM     25  N   UNL     1      -2.848   2.736  -5.840  0.00  0.00    +0.385 N 
ATOM     26  H   UNL     1      -2.963   3.749  -5.715  0.00  0.00    -0.081 HD
ENDBRANCH  17  25
ENDBRANCH   2  17
TORSDOF 5
