REMARK  Name = ZINC39326599
REMARK  6 active torsions:
REMARK  status: ('A' for Active; 'I' for Inactive)
REMARK    1  A    between atoms: C_1  and  C_2
REMARK    2  A    between atoms: C_9  and  C_26
REMARK    3  A    between atoms: C_10  and  S_12
REMARK    4  A    between atoms: S_12  and  C_13
REMARK    5  A    between atoms: C_13  and  C_14
REMARK    6  A    between atoms: C_14  and  C_16
REMARK                            x       y       z     vdW  Elec       q    Type
REMARK                         _______ _______ _______ _____ _____    ______ ____
ROOT
ATOM      1  S   UNL     1       0.064  -6.456   1.828  0.00  0.00    -0.097 S 
ENDROOT
BRANCH   1  10
ATOM      2  C   UNL     1      -0.019   1.526   0.010  0.00  0.00    +0.008 C 
ATOM      3  C   UNL     1       0.002  -0.004   0.002  0.00  0.00    -0.009 C 
ATOM      4  C   UNL     1      -1.434  -0.540   0.026  0.00  0.00    +0.010 C 
ATOM      5  C   UNL     1      -1.391  -2.046  -0.225  0.00  0.00    +0.056 C 
ATOM      6  C   UNL     1      -0.414  -2.712   0.710  0.00  0.00    +0.046 A 
ATOM      7  C   UNL     1       0.564  -2.007   1.377  0.00  0.00    -0.025 A 
ATOM      8  C   UNL     1       1.440  -2.681   2.219  0.00  0.00    +0.027 A 
ATOM      9  C   UNL     1       1.302  -4.063   2.370  0.00  0.00    +0.084 A 
ATOM     10  C   UNL     1       0.277  -4.715   1.662  0.00  0.00    +0.115 A 
ATOM     11  N   UNL     1      -0.526  -4.025   0.873  0.00  0.00    -0.244 NA
ATOM     12  C   UNL     1       0.728  -0.516   1.245  0.00  0.00    +0.040 C 
BRANCH   9  13
ATOM     13  C   UNL     1       2.184  -4.798   3.226  0.00  0.00    +0.102 C 
ATOM     14  N   UNL     1       2.884  -5.381   3.905  0.00  0.00    -0.191 NA
ENDBRANCH   9  13
ENDBRANCH   1  10
BRANCH   1  15
ATOM     15  C   UNL     1      -1.347  -6.830   0.751  0.00  0.00    +0.150 C 
BRANCH  15  16
ATOM     16  C   UNL     1      -1.639  -8.308   0.801  0.00  0.00    +0.150 C 
ATOM     17  O   UNL     1      -0.965  -9.034   1.492  0.00  0.00    -0.296 OA
BRANCH  16  18
ATOM     18  C   UNL     1      -2.772  -8.880  -0.011  0.00  0.00    +0.031 C 
ATOM     19  C   UNL     1      -2.527  -8.601  -1.496  0.00  0.00    +0.018 C 
ATOM     20  C   UNL     1      -3.678  -9.182  -2.320  0.00  0.00    -0.010 C 
ATOM     21  C   UNL     1      -3.758 -10.693  -2.091  0.00  0.00    +0.007 C 
ATOM     22  C   UNL     1      -4.003 -10.971  -0.607  0.00  0.00    -0.010 C 
ATOM     23  C   UNL     1      -2.853 -10.390   0.218  0.00  0.00    +0.018 C 
ATOM     24  C   UNL     1      -5.319 -10.319  -0.176  0.00  0.00    +0.007 C 
ATOM     25  C   UNL     1      -5.239  -8.809  -0.405  0.00  0.00    -0.010 C 
ATOM     26  C   UNL     1      -4.993  -8.530  -1.890  0.00  0.00    +0.007 C 
ATOM     27  C   UNL     1      -4.088  -8.228   0.419  0.00  0.00    +0.018 C 
ENDBRANCH  16  18
ENDBRANCH  15  16
ENDBRANCH   1  15
TORSDOF 5
