REMARK  Name = ZINC13968686
REMARK  6 active torsions:
REMARK  status: ('A' for Active; 'I' for Inactive)
REMARK    1  A    between atoms: C_2  and  C_3
REMARK    2  A    between atoms: C_3  and  N_4
REMARK    3  A    between atoms: C_8  and  S_25
REMARK    4  A    between atoms: N_13  and  C_14
REMARK    5  A    between atoms: C_14  and  C_16
REMARK    6  A    between atoms: S_25  and  N_28
REMARK                            x       y       z     vdW  Elec       q    Type
REMARK                         _______ _______ _______ _____ _____    ______ ____
ROOT
ATOM      1  N   UNL     1      -1.113   2.242   0.019  0.00  0.00    -0.317 N 
ATOM      2  C   UNL     1      -0.017   1.400   0.010  0.00  0.00    +0.058 A 
ATOM      3  C   UNL     1       0.002  -0.004   0.002  0.00  0.00    +0.029 A 
ATOM      4  C   UNL     1       1.193  -0.691  -0.013  0.00  0.00    +0.030 A 
ATOM      5  C   UNL     1       2.406  -0.024  -0.021  0.00  0.00    +0.106 A 
ATOM      6  C   UNL     1       2.417   1.360  -0.014  0.00  0.00    +0.045 A 
ATOM      7  C   UNL     1       1.227   2.048   0.001  0.00  0.00    +0.041 A 
ATOM      8  S   UNL     1       0.789   3.768   0.015  0.00  0.00    -0.052 S 
ATOM      9  C   UNL     1      -0.935   3.591   0.030  0.00  0.00    +0.167 A 
ATOM     10  N   UNL     1      -1.861   4.544   0.044  0.00  0.00    -0.152 NA
ENDROOT
BRANCH   5  11
ATOM     11  S   UNL     1       3.920  -0.926  -0.040  0.00  0.00    +0.056 S 
ATOM     12  O   UNL     1       4.911  -0.068   0.506  0.00  0.00    -0.153 OA
ATOM     13  O   UNL     1       3.635  -2.207   0.507  0.00  0.00    -0.153 OA
BRANCH  11  14
ATOM     14  N   UNL     1       4.325  -1.169  -1.627  0.00  0.00    -0.204 NA
ATOM     15  H   UNL     1       3.752  -0.828  -2.332  0.00  0.00    +0.144 HD
ATOM     16  H   UNL     1       5.135  -1.653  -1.852  0.00  0.00    +0.144 HD
ENDBRANCH  11  14
ENDBRANCH   5  11
BRANCH  10  17
ATOM     17  C   UNL     1      -1.497   5.831   0.047  0.00  0.00    +0.270 C 
ATOM     18  O   UNL     1      -0.315   6.129   0.038  0.00  0.00    -0.268 OA
BRANCH  17  19
ATOM     19  C   UNL     1      -2.528   6.891   0.062  0.00  0.00    +0.042 A 
ATOM     20  C   UNL     1      -3.881   6.551   0.072  0.00  0.00    +0.017 A 
ATOM     21  C   UNL     1      -4.841   7.540   0.086  0.00  0.00    +0.050 A 
ATOM     22  C   UNL     1      -4.466   8.877   0.089  0.00  0.00    +0.166 A 
ATOM     23  C   UNL     1      -3.114   9.223   0.079  0.00  0.00    +0.167 A 
ATOM     24  C   UNL     1      -2.149   8.235   0.071  0.00  0.00    +0.062 A 
ATOM     25  O   UNL     1      -3.014  10.585   0.084  0.00  0.00    -0.453 OA
ATOM     26  C   UNL     1      -4.303  11.063   0.511  0.00  0.00    +0.466 C 
ATOM     27  O   UNL     1      -5.208  10.021   0.101  0.00  0.00    -0.453 OA
ENDBRANCH  17  19
ENDBRANCH  10  17
BRANCH   1  28
ATOM     28  C   UNL     1      -2.467   1.682   0.022  0.00  0.00    +0.151 C 
BRANCH  28  30
ATOM     29  C   UNL     1      -4.480   3.059   0.144  0.00  0.00    +0.005 C 
ATOM     30  C   UNL     1      -3.398   2.623   0.742  0.00  0.00    -0.013 C 
ENDBRANCH  28  30
ENDBRANCH   1  28
TORSDOF 6
