REMARK  Name = ZINC12543677
REMARK  4 active torsions:
REMARK  status: ('A' for Active; 'I' for Inactive)
REMARK    1  A    between atoms: C_1  and  O_2
REMARK    2  A    between atoms: O_2  and  C_3
REMARK    3  A    between atoms: C_6  and  N_10
REMARK    4  A    between atoms: C_11  and  C_22
REMARK                            x       y       z     vdW  Elec       q    Type
REMARK                         _______ _______ _______ _____ _____    ______ ____
ROOT
ATOM      1  N   UNL     1      -2.467   4.479   0.049  0.00  0.00    -0.244 N 
ATOM      2  C   UNL     1      -3.716   3.724  -0.059  0.00  0.00    +0.204 C 
ATOM      3  N   UNL     1      -4.776   4.386   0.716  0.00  0.00    -0.321 N 
ATOM      4  C   UNL     1      -4.902   5.768   0.630  0.00  0.00    +0.041 A 
ATOM      5  C   UNL     1      -6.121   6.401   0.810  0.00  0.00    +0.024 A 
ATOM      6  C   UNL     1      -6.195   7.778   0.729  0.00  0.00    +0.002 A 
ATOM      7  C   UNL     1      -5.060   8.530   0.468  0.00  0.00    +0.001 A 
ATOM      8  C   UNL     1      -3.840   7.915   0.282  0.00  0.00    +0.015 A 
ATOM      9  C   UNL     1      -3.751   6.527   0.358  0.00  0.00    +0.058 A 
ATOM     10  C   UNL     1      -2.472   5.823   0.158  0.00  0.00    +0.254 C 
ATOM     11  O   UNL     1      -1.431   6.448   0.091  0.00  0.00    -0.270 OA
ATOM     12  H   UNL     1      -5.378   3.869   1.274  0.00  0.00    +0.148 HD
ENDROOT
BRANCH   1  16
ATOM     13  C   UNL     1       1.170   2.441   0.007  0.00  0.00    +0.138 A 
ATOM     14  C   UNL     1       0.298   2.281   1.073  0.00  0.00    +0.049 A 
ATOM     15  C   UNL     1      -0.906   2.956   1.088  0.00  0.00    +0.027 A 
ATOM     16  C   UNL     1      -1.246   3.795   0.034  0.00  0.00    +0.040 A 
ATOM     17  C   UNL     1      -0.370   3.959  -1.030  0.00  0.00    +0.047 A 
ATOM     18  C   UNL     1       0.833   3.279  -1.047  0.00  0.00    +0.084 A 
ATOM     19 CL   UNL     1       1.925   3.479  -2.381  0.00  0.00    -0.080 Cl
BRANCH  13  21
ATOM     20  C   UNL     1       2.639   0.930   1.109  0.00  0.00    +0.277 C 
ATOM     21  O   UNL     1       2.357   1.776  -0.007  0.00  0.00    -0.494 OA
ENDBRANCH  13  21
ENDBRANCH   1  16
BRANCH   2  22
ATOM     22  C   UNL     1      -4.125   3.643  -1.507  0.00  0.00    +0.028 A 
ATOM     23  C   UNL     1      -5.370   3.562  -2.039  0.00  0.00    +0.015 A 
ATOM     24  C   UNL     1      -5.508   3.498  -3.413  0.00  0.00    +0.008 A 
ATOM     25  C   UNL     1      -4.396   3.518  -4.188  0.00  0.00    +0.045 A 
ATOM     26  S   UNL     1      -3.098   3.637  -2.968  0.00  0.00    -0.098 S 
ENDBRANCH   2  22
TORSDOF 3
