REMARK  Name = ZINC23229785
REMARK  6 active torsions:
REMARK  status: ('A' for Active; 'I' for Inactive)
REMARK    1  A    between atoms: C_3  and  C_8
REMARK    2  A    between atoms: C_8  and  N_9
REMARK    3  A    between atoms: N_12  and  C_15
REMARK    4  A    between atoms: C_15  and  C_16
REMARK    5  A    between atoms: N_18  and  C_19
REMARK    6  A    between atoms: C_22  and  N_26
REMARK                            x       y       z     vdW  Elec       q    Type
REMARK                         _______ _______ _______ _____ _____    ______ ____
ROOT
ATOM      1  N   UNL     1       4.080   2.454   1.359  0.00  0.00    +0.384 N 
ATOM      2  C   UNL     1       3.116   3.334   2.030  0.00  0.00    -0.063 C 
ATOM      3  C   UNL     1       3.559   3.569   3.476  0.00  0.00    +0.066 C 
ATOM      4  N   UNL     1       4.895   4.182   3.483  0.00  0.00    -0.298 NA
ATOM      5  C   UNL     1       5.867   3.323   2.792  0.00  0.00    +0.066 C 
ATOM      6  C   UNL     1       5.404   3.090   1.352  0.00  0.00    -0.063 C 
ATOM      7  H   UNL     1       4.133   1.575   1.852  0.00  0.00    -0.081 HD
ENDROOT
BRANCH   1   8
ATOM      8  C   UNL     1       3.645   2.215  -0.024  0.00  0.00    -0.043 C 
BRANCH   8  11
ATOM      9  C   UNL     1      -0.050   1.437   0.007  0.00  0.00    +0.002 A 
ATOM     10  C   UNL     1       1.144   2.135  -0.000  0.00  0.00    +0.002 A 
ATOM     11  C   UNL     1       2.345   1.452  -0.016  0.00  0.00    -0.063 A 
ATOM     12  C   UNL     1       2.354   0.070  -0.025  0.00  0.00    +0.021 A 
ATOM     13  C   UNL     1       1.161  -0.630  -0.018  0.00  0.00    +0.041 A 
ATOM     14  C   UNL     1      -0.041   0.055  -0.002  0.00  0.00    +0.020 A 
ATOM     15 CL   UNL     1       1.172  -2.366  -0.029  0.00  0.00    -0.084 Cl
ENDBRANCH   8  11
ENDBRANCH   1   8
BRANCH   4  16
ATOM     16  C   UNL     1       5.333   4.475   4.854  0.00  0.00    +0.180 C 
BRANCH  16  17
ATOM     17  C   UNL     1       6.582   5.317   4.813  0.00  0.00    +0.231 C 
ATOM     18  O   UNL     1       7.060   5.641   3.747  0.00  0.00    -0.274 OA
ATOM     19  N   UNL     1       7.168   5.710   5.961  0.00  0.00    -0.283 N 
ATOM     20  H   UNL     1       6.750   5.507   6.813  0.00  0.00    +0.155 HD
BRANCH  19  21
ATOM     21  C   UNL     1       8.378   6.412   5.925  0.00  0.00    +0.048 A 
ATOM     22  C   UNL     1       8.635   7.304   4.893  0.00  0.00    +0.026 A 
ATOM     23  C   UNL     1       9.830   7.995   4.860  0.00  0.00    +0.034 A 
ATOM     24  C   UNL     1      10.772   7.798   5.853  0.00  0.00    +0.127 A 
ATOM     25  C   UNL     1      10.521   6.910   6.883  0.00  0.00    +0.049 A 
ATOM     26  C   UNL     1       9.324   6.220   6.925  0.00  0.00    +0.041 A 
ATOM     27 BR   UNL     1       8.977   5.011   8.337  0.00  0.00    -0.048 Br
BRANCH  24  28
ATOM     28  N   UNL     1      12.053   8.539   5.814  0.00  0.00    +0.056 N 
ATOM     29  O   UNL     1      12.274   9.316   4.914  0.00  0.00    -0.126 OA
ATOM     30  O   UNL     1      12.877   8.368   6.681  0.00  0.00    -0.126 OA
ENDBRANCH  24  28
ENDBRANCH  19  21
ENDBRANCH  16  17
ENDBRANCH   4  16
TORSDOF 6
