REMARK  Name = ZINC40800366
REMARK  7 active torsions:
REMARK  status: ('A' for Active; 'I' for Inactive)
REMARK    1  A    between atoms: C_1  and  C_2
REMARK    2  A    between atoms: C_2  and  C_3
REMARK    3  A    between atoms: C_6  and  O_9
REMARK    4  A    between atoms: O_9  and  C_10
REMARK    5  A    between atoms: C_11  and  N_25
REMARK    6  A    between atoms: C_12  and  N_16
REMARK    7  A    between atoms: N_16  and  C_17
REMARK                            x       y       z     vdW  Elec       q    Type
REMARK                         _______ _______ _______ _____ _____    ______ ____
ROOT
ATOM      1  C   UNL     1       2.047  -1.720   5.792  0.00  0.00    +0.246 A 
ATOM      2  C   UNL     1       2.672  -2.217   6.936  0.00  0.00    +0.128 A 
ATOM      3  C   UNL     1       1.911  -2.343   8.101  0.00  0.00    +0.151 A 
ATOM      4  N   UNL     1       0.629  -1.987   8.074  0.00  0.00    -0.218 NA
ATOM      5  C   UNL     1       0.078  -1.522   6.971  0.00  0.00    +0.227 A 
ATOM      6  N   UNL     1       0.763  -1.383   5.853  0.00  0.00    -0.199 NA
ENDROOT
BRANCH   2   7
ATOM      7  N   UNL     1       4.027  -2.580   6.917  0.00  0.00    -0.351 N 
ATOM      8  H   UNL     1       4.543  -2.488   6.101  0.00  0.00    +0.143 HD
ATOM      9  H   UNL     1       4.448  -2.924   7.720  0.00  0.00    +0.143 HD
ENDBRANCH   2   7
BRANCH   3  10
ATOM     10  N   UNL     1       2.483  -2.833   9.268  0.00  0.00    -0.298 N 
ATOM     11  H   UNL     1       3.435  -3.019   9.301  0.00  0.00    +0.154 HD
BRANCH  10  12
ATOM     12  C   UNL     1       1.688  -3.057  10.397  0.00  0.00    +0.035 A 
ATOM     13  C   UNL     1       2.221  -2.887  11.668  0.00  0.00    +0.026 A 
ATOM     14  C   UNL     1       1.434  -3.109  12.782  0.00  0.00    +0.043 A 
ATOM     15  C   UNL     1       0.115  -3.502  12.632  0.00  0.00    +0.159 A 
ATOM     16  C   UNL     1      -0.420  -3.673  11.364  0.00  0.00    +0.160 A 
ATOM     17  C   UNL     1       0.363  -3.445  10.247  0.00  0.00    +0.064 A 
ATOM     18  F   UNL     1      -1.707  -4.057  11.221  0.00  0.00    -0.202 F 
ATOM     19  F   UNL     1      -0.652  -3.719  13.723  0.00  0.00    -0.202 F 
ENDBRANCH  10  12
ENDBRANCH   3  10
BRANCH   1  20
ATOM     20  O   UNL     1       2.742  -1.578   4.635  0.00  0.00    -0.436 OA
BRANCH  20  24
ATOM     21  C   UNL     1       0.850   0.236   1.450  0.00  0.00    -0.047 A 
ATOM     22  C   UNL     1       1.241   0.990   2.541  0.00  0.00    +0.007 A 
ATOM     23  C   UNL     1       1.875   0.385   3.609  0.00  0.00    +0.046 A 
ATOM     24  C   UNL     1       2.119  -0.980   3.586  0.00  0.00    +0.130 A 
ATOM     25  C   UNL     1       1.725  -1.735   2.490  0.00  0.00    +0.046 A 
ATOM     26  C   UNL     1       1.087  -1.126   1.427  0.00  0.00    +0.007 A 
BRANCH  21  28
ATOM     27  C   UNL     1      -1.353   0.891   0.519  0.00  0.00    +0.009 C 
ATOM     28  C   UNL     1       0.159   0.899   0.286  0.00  0.00    +0.032 C 
ENDBRANCH  21  28
ENDBRANCH  20  24
ENDBRANCH   1  20
TORSDOF 6
