REMARK  Name = ZINC36500553
REMARK  15 active torsions:
REMARK  status: ('A' for Active; 'I' for Inactive)
REMARK    1  A    between atoms: C_1  and  C_2
REMARK    2  A    between atoms: C_2  and  C_3
REMARK    3  A    between atoms: C_3  and  C_4
REMARK    4  A    between atoms: C_5  and  C_6
REMARK    5  A    between atoms: C_6  and  C_8
REMARK    6  A    between atoms: C_6  and  N_22
REMARK    7  A    between atoms: N_10  and  C_11
REMARK    8  A    between atoms: C_11  and  S_12
REMARK    9  A    between atoms: S_12  and  C_15
REMARK   10  A    between atoms: C_18  and  C_21
REMARK   11  A    between atoms: N_22  and  C_23
REMARK   12  A    between atoms: C_23  and  C_24
REMARK   13  A    between atoms: C_29  and  C_31
REMARK   14  A    between atoms: C_32  and  O_38
REMARK   15  A    between atoms: C_36  and  O_37
REMARK                            x       y       z     vdW  Elec       q    Type
REMARK                         _______ _______ _______ _____ _____    ______ ____
ROOT
ATOM      1  C   UNL     1       1.946  -4.207   1.728  0.00  0.00    +0.186 C 
ENDROOT
BRANCH   1   2
ATOM      2  C   UNL     1       3.162  -4.615   0.938  0.00  0.00    +0.239 C 
ATOM      3  O   UNL     1       3.055  -5.412   0.029  0.00  0.00    -0.273 OA
ATOM      4  N   UNL     1       4.368  -4.096   1.240  0.00  0.00    -0.294 N 
ATOM      5  H   UNL     1       4.454  -3.459   1.967  0.00  0.00    +0.150 HD
BRANCH   4   6
ATOM      6  C   UNL     1       5.551  -4.494   0.472  0.00  0.00    +0.278 C 
BRANCH   6   7
ATOM      7  S   UNL     1       5.845  -3.288  -0.851  0.00  0.00    +0.013 S 
ATOM      8  O   UNL     1       7.026  -3.625  -1.567  0.00  0.00    -0.168 OA
ATOM      9  O   UNL     1       4.634  -3.013  -1.541  0.00  0.00    -0.168 OA
BRANCH   7  10
ATOM     10  C   UNL     1       6.239  -1.787  -0.017  0.00  0.00    +0.090 A 
ATOM     11  C   UNL     1       5.233  -0.904   0.328  0.00  0.00    +0.027 A 
ATOM     12  C   UNL     1       5.541   0.274   0.983  0.00  0.00    +0.005 A 
ATOM     13  C   UNL     1       6.856   0.568   1.293  0.00  0.00    -0.050 A 
ATOM     14  C   UNL     1       7.862  -0.315   0.949  0.00  0.00    +0.005 A 
ATOM     15  C   UNL     1       7.553  -1.495   0.298  0.00  0.00    +0.027 A 
ATOM     16  C   UNL     1       7.192   1.853   2.006  0.00  0.00    +0.044 C 
ENDBRANCH   7  10
ENDBRANCH   6   7
ENDBRANCH   4   6
ENDBRANCH   1   2
BRANCH   1  17
ATOM     17  N   UNL     1       0.797  -5.013   1.309  0.00  0.00    -0.275 N 
ATOM     18  C   UNL     1       0.403  -5.006   0.020  0.00  0.00    +0.255 C 
ATOM     19  O   UNL     1       1.000  -4.329  -0.795  0.00  0.00    -0.270 OA
BRANCH  18  20
ATOM     20  C   UNL     1      -0.752  -5.817  -0.401  0.00  0.00    +0.119 A 
ATOM     21  C   UNL     1      -2.044  -5.272  -0.377  0.00  0.00    +0.133 A 
ATOM     22  C   UNL     1      -3.123  -6.043  -0.776  0.00  0.00    +0.046 A 
ATOM     23  C   UNL     1      -2.930  -7.346  -1.196  0.00  0.00    +0.007 A 
ATOM     24  C   UNL     1      -1.661  -7.893  -1.224  0.00  0.00    +0.046 A 
ATOM     25  C   UNL     1      -0.567  -7.138  -0.834  0.00  0.00    +0.133 A 
BRANCH  25  26
ATOM     26  O   UNL     1       0.678  -7.675  -0.868  0.00  0.00    -0.506 OA
ATOM     27  H   UNL     1       0.938  -8.117  -0.048  0.00  0.00    +0.292 HD
ENDBRANCH  25  26
BRANCH  21  28
ATOM     28  O   UNL     1      -2.236  -3.994   0.036  0.00  0.00    -0.506 OA
ATOM     29  H   UNL     1      -2.188  -3.340  -0.675  0.00  0.00    +0.292 HD
ENDBRANCH  21  28
ENDBRANCH  18  20
BRANCH  17  30
ATOM     30  C   UNL     1       0.077  -5.828   2.291  0.00  0.00    +0.183 C 
BRANCH  30  31
ATOM     31  C   UNL     1      -0.933  -4.972   3.010  0.00  0.00    +0.122 A 
ATOM     32  C   UNL     1      -2.238  -4.867   2.701  0.00  0.00    +0.046 A 
ATOM     33  C   UNL     1      -2.807  -3.963   3.628  0.00  0.00    +0.041 A 
ATOM     34  C   UNL     1      -1.816  -3.570   4.447  0.00  0.00    +0.195 A 
ATOM     35  O   UNL     1      -0.684  -4.188   4.072  0.00  0.00    -0.466 OA
ENDBRANCH  30  31
ENDBRANCH  17  30
ENDBRANCH   1  17
BRANCH   1  37
ATOM     36  C   UNL     1       0.469  -2.382   1.056  0.00  0.00    -0.029 C 
ATOM     37  C   UNL     1       1.653  -2.749   1.481  0.00  0.00    +0.000 C 
BRANCH  36  38
ATOM     38  C   UNL     1       0.177  -0.924   0.810  0.00  0.00    +0.027 C 
BRANCH  38  40
ATOM     39  C   UNL     1      -0.625   0.739  -0.874  0.00  0.00    +0.004 C 
ATOM     40  C   UNL     1      -0.327  -0.741  -0.623  0.00  0.00    +0.001 C 
ENDBRANCH  38  40
ENDBRANCH  36  38
ENDBRANCH   1  37
TORSDOF 13
