REMARK  Name = ZINC36663992
REMARK  7 active torsions:
REMARK  status: ('A' for Active; 'I' for Inactive)
REMARK    1  A    between atoms: C_4  and  C_7
REMARK    2  A    between atoms: C_7  and  N_8
REMARK    3  A    between atoms: C_11  and  N_14
REMARK    4  A    between atoms: C_15  and  C_17
REMARK    5  A    between atoms: C_17  and  S_18
REMARK    6  A    between atoms: S_18  and  C_19
REMARK    7  A    between atoms: C_19  and  C_20
REMARK                            x       y       z     vdW  Elec       q    Type
REMARK                         _______ _______ _______ _____ _____    ______ ____
ROOT
ATOM      1  N   UNL     1       7.307  -1.835   2.882  0.00  0.00    -0.314 N 
ATOM      2  C   UNL     1       8.537  -1.434   3.260  0.00  0.00    +0.223 C 
ATOM      3  O   UNL     1       8.959  -0.353   2.905  0.00  0.00    -0.275 OA
ATOM      4  H   UNL     1       6.970  -2.699   3.166  0.00  0.00    +0.149 HD
ENDROOT
BRANCH   1   8
ATOM      5  N   UNL     1       4.153  -0.953   1.342  0.00  0.00    +0.384 N 
ATOM      6  C   UNL     1       4.457   0.334   2.004  0.00  0.00    -0.077 C 
ATOM      7  C   UNL     1       5.671   0.032   2.916  0.00  0.00    +0.002 C 
ATOM      8  C   UNL     1       6.479  -0.965   2.044  0.00  0.00    +0.055 C 
ATOM      9  C   UNL     1       5.376  -1.776   1.331  0.00  0.00    -0.056 C 
ATOM     10  H   UNL     1       3.426  -1.432   1.852  0.00  0.00    -0.081 HD
BRANCH   5  11
ATOM     11  C   UNL     1       3.711  -0.707  -0.038  0.00  0.00    -0.043 C 
BRANCH  11  15
ATOM     12  C   UNL     1      -0.017   1.378   0.010  0.00  0.00    +0.000 A 
ATOM     13  C   UNL     1       1.171   2.086   0.002  0.00  0.00    +0.000 A 
ATOM     14  C   UNL     1       2.377   1.411  -0.013  0.00  0.00    +0.002 A 
ATOM     15  C   UNL     1       2.396   0.029  -0.020  0.00  0.00    -0.064 A 
ATOM     16  C   UNL     1       1.208  -0.679  -0.012  0.00  0.00    +0.002 A 
ATOM     17  C   UNL     1       0.002  -0.004   0.002  0.00  0.00    +0.000 A 
ENDBRANCH  11  15
ENDBRANCH   5  11
ENDBRANCH   1   8
BRANCH   2  18
ATOM     18  C   UNL     1       9.389  -2.329   4.123  0.00  0.00    +0.165 C 
BRANCH  18  19
ATOM     19  S   UNL     1      10.976  -1.515   4.457  0.00  0.00    -0.144 S 
BRANCH  19  20
ATOM     20  C   UNL     1      11.871  -2.705   5.492  0.00  0.00    +0.143 C 
BRANCH  20  21
ATOM     21  C   UNL     1      13.224  -2.146   5.847  0.00  0.00    +0.121 A 
ATOM     22  N   UNL     1      14.068  -2.880   6.617  0.00  0.00    -0.310 N 
ATOM     23  H   UNL     1      13.788  -3.755   6.927  0.00  0.00    +0.170 HD
ATOM     24  C   UNL     1      15.286  -2.417   6.957  0.00  0.00    +0.260 A 
ATOM     25  O   UNL     1      16.034  -3.087   7.648  0.00  0.00    -0.267 OA
ATOM     26  C   UNL     1      15.688  -1.123   6.490  0.00  0.00    +0.075 A 
ATOM     27  C   UNL     1      16.958  -0.425   6.736  0.00  0.00    -0.023 A 
ATOM     28  C   UNL     1      17.098   0.793   6.185  0.00  0.00    -0.004 A 
ATOM     29  S   UNL     1      15.573   1.083   5.317  0.00  0.00    -0.073 S 
ATOM     30  C   UNL     1      14.751  -0.441   5.703  0.00  0.00    +0.116 A 
ATOM     31  N   UNL     1      13.566  -0.965   5.403  0.00  0.00    -0.226 NA
ATOM     32  C   UNL     1      18.431   1.413   6.506  0.00  0.00    +0.043 C 
ATOM     33  C   UNL     1      18.961   0.593   7.703  0.00  0.00    +0.010 C 
ATOM     34  C   UNL     1      18.242  -0.756   7.503  0.00  0.00    +0.037 C 
ENDBRANCH  20  21
ENDBRANCH  19  20
ENDBRANCH  18  19
ENDBRANCH   2  18
TORSDOF 7
