REMARK  Name = ZINC60276104
REMARK  5 active torsions:
REMARK  status: ('A' for Active; 'I' for Inactive)
REMARK    1  A    between atoms: C_13  and  C_15
REMARK    2  A    between atoms: C_15  and  C_16
REMARK    3  A    between atoms: C_16  and  N_17
REMARK    4  A    between atoms: C_18  and  C_20
REMARK    5  A    between atoms: C_23  and  C_28
REMARK                            x       y       z     vdW  Elec       q    Type
REMARK                         _______ _______ _______ _____ _____    ______ ____
ROOT
ATOM      1  C   UNL     1       0.494  -8.143   1.247  0.00  0.00    +0.113 C 
ENDROOT
BRANCH   1   2
ATOM      2  N   UNL     1      -0.749  -8.909   1.369  0.00  0.00    -0.311 N 
ATOM      3  C   UNL     1      -0.717 -10.256   1.330  0.00  0.00    +0.249 C 
ATOM      4  O   UNL     1       0.351 -10.838   1.294  0.00  0.00    -0.270 OA
ATOM      5  H   UNL     1      -1.595  -8.447   1.476  0.00  0.00    +0.149 HD
BRANCH   3   6
ATOM      6  C   UNL     1      -1.970 -11.021   1.332  0.00  0.00    +0.101 A 
ATOM      7  C   UNL     1      -1.946 -12.416   1.429  0.00  0.00    +0.020 A 
ATOM      8  C   UNL     1      -3.143 -13.114   1.429  0.00  0.00    +0.030 A 
ATOM      9  C   UNL     1      -4.345 -12.425   1.333  0.00  0.00    +0.085 A 
ATOM     10  N   UNL     1      -4.362 -11.059   1.238  0.00  0.00    -0.319 N 
ATOM     11  H   UNL     1      -5.210 -10.594   1.172  0.00  0.00    +0.169 HD
ATOM     12  C   UNL     1      -3.215 -10.353   1.241  0.00  0.00    +0.261 A 
ATOM     13  O   UNL     1      -3.250  -9.137   1.161  0.00  0.00    -0.267 OA
BRANCH   9  14
ATOM     14  C   UNL     1      -5.607 -13.167   1.333  0.00  0.00    +0.151 A 
ATOM     15  C   UNL     1      -6.859 -12.623   1.240  0.00  0.00    +0.051 A 
ATOM     16  C   UNL     1      -7.766 -13.693   1.278  0.00  0.00    +0.042 A 
ATOM     17  C   UNL     1      -7.041 -14.827   1.392  0.00  0.00    +0.196 A 
ATOM     18  O   UNL     1      -5.739 -14.506   1.419  0.00  0.00    -0.461 OA
ENDBRANCH   9  14
ENDBRANCH   3   6
ENDBRANCH   1   2
BRANCH   1  19
ATOM     19  C   UNL     1       0.180  -6.647   1.321  0.00  0.00    +0.114 C 
BRANCH  19  32
ATOM     20  C   UNL     1       2.344   1.464   0.199  0.00  0.00    +0.005 A 
ATOM     21  C   UNL     1       1.101   2.083   0.235  0.00  0.00    +0.018 A 
ATOM     22  C   UNL     1      -0.041   1.308   0.230  0.00  0.00    +0.084 A 
ATOM     23  N   UNL     1       0.035  -0.009   0.192  0.00  0.00    -0.350 N 
ATOM     24  C   UNL     1       1.200  -0.636   0.157  0.00  0.00    +0.099 A 
ATOM     25  C   UNL     1       2.392   0.082   0.159  0.00  0.00    +0.042 A 
ATOM     26  N   UNL     1       1.233  -2.025   0.118  0.00  0.00    -0.314 N 
ATOM     27  C   UNL     1       2.508  -2.739  -0.044  0.00  0.00    +0.125 C 
ATOM     28  C   UNL     1       2.665  -3.731   1.114  0.00  0.00    +0.126 C 
ATOM     29  N   UNL     1       1.426  -4.513   1.235  0.00  0.00    -0.298 N 
ATOM     30  C   UNL     1       0.152  -3.799   1.397  0.00  0.00    +0.126 C 
ATOM     31  C   UNL     1      -0.005  -2.807   0.244  0.00  0.00    +0.125 C 
ATOM     32  C   UNL     1       1.458  -5.859   1.196  0.00  0.00    +0.217 C 
ATOM     33  O   UNL     1       2.516  -6.437   1.062  0.00  0.00    -0.276 OA
ATOM     34  H   UNL     1      -0.783  -0.530   0.190  0.00  0.00    +0.166 HD
ENDBRANCH  19  32
ENDBRANCH   1  19
TORSDOF 5
