REMARK  Name = ZINC21531819
REMARK  5 active torsions:
REMARK  status: ('A' for Active; 'I' for Inactive)
REMARK    1  A    between atoms: C_1  and  C_2
REMARK    2  A    between atoms: C_2  and  C_29
REMARK    3  A    between atoms: N_5  and  C_9
REMARK    4  A    between atoms: C_9  and  C_10
REMARK    5  A    between atoms: C_23  and  C_25
REMARK                            x       y       z     vdW  Elec       q    Type
REMARK                         _______ _______ _______ _____ _____    ______ ____
ROOT
ATOM      1  C   UNL     1      -3.241   3.864   1.108  0.00  0.00    +0.238 C 
ATOM      2  O   UNL     1      -4.291   4.472   1.082  0.00  0.00    -0.273 OA
ATOM      3  N   UNL     1      -2.454   3.832   0.015  0.00  0.00    -0.256 N 
ATOM      4  C   UNL     1      -1.239   3.133   0.030  0.00  0.00    +0.058 A 
ATOM      5  C   UNL     1      -1.221   1.748   0.017  0.00  0.00    +0.025 A 
ATOM      6  C   UNL     1      -0.013   1.076   0.008  0.00  0.00    +0.002 A 
ATOM      7  C   UNL     1       1.177   1.781   0.000  0.00  0.00    +0.002 A 
ATOM      8  C   UNL     1       1.168   3.164   0.016  0.00  0.00    +0.025 A 
ATOM      9  C   UNL     1      -0.038   3.844   0.039  0.00  0.00    +0.055 A 
ATOM     10  N   UNL     1      -0.072   5.242   0.104  0.00  0.00    -0.284 N 
ATOM     11  C   UNL     1      -0.865   5.947  -0.732  0.00  0.00    +0.219 C 
ATOM     12  O   UNL     1      -0.950   7.151  -0.610  0.00  0.00    -0.275 OA
ATOM     13  C   UNL     1      -1.645   5.248  -1.814  0.00  0.00    +0.128 C 
ATOM     14  C   UNL     1      -2.852   4.527  -1.211  0.00  0.00    +0.194 C 
ATOM     15  H   UNL     1       0.549   5.773   0.840  0.00  0.00    +0.155 HD
ENDROOT
BRANCH  14  16
ATOM     16  C   UNL     1      -3.391   3.511  -2.220  0.00  0.00    +0.409 C 
ATOM     17  F   UNL     1      -4.500   2.855  -1.674  0.00  0.00    -0.169 F 
ATOM     18  F   UNL     1      -3.771   4.174  -3.392  0.00  0.00    -0.169 F 
ATOM     19  F   UNL     1      -2.395   2.574  -2.516  0.00  0.00    -0.169 F 
ENDBRANCH  14  16
BRANCH   1  20
ATOM     20  C   UNL     1      -2.818   3.144   2.363  0.00  0.00    +0.214 C 
BRANCH  20  25
ATOM     21  C   UNL     1      -5.707   2.087   5.913  0.00  0.00    +0.047 C 
ATOM     22  C   UNL     1      -5.660   3.084   4.753  0.00  0.00    +0.135 C 
ATOM     23  C   UNL     1      -4.888   2.506   3.584  0.00  0.00    +0.251 C 
ATOM     24  O   UNL     1      -5.159   1.510   2.947  0.00  0.00    -0.272 OA
ATOM     25  N   UNL     1      -3.837   3.329   3.399  0.00  0.00    -0.215 N 
ATOM     26  C   UNL     1      -3.836   4.334   4.283  0.00  0.00    +0.310 C 
ATOM     27  O   UNL     1      -2.986   5.202   4.317  0.00  0.00    -0.252 OA
ATOM     28  N   UNL     1      -4.883   4.278   5.126  0.00  0.00    -0.281 N 
ATOM     29  H   UNL     1      -5.216   4.913   5.960  0.00  0.00    +0.152 HD
BRANCH  22  30
ATOM     30  C   UNL     1      -7.055   3.467   4.329  0.00  0.00    -0.013 A 
ATOM     31  C   UNL     1      -7.682   2.774   3.310  0.00  0.00    +0.009 A 
ATOM     32  C   UNL     1      -8.963   3.120   2.923  0.00  0.00    +0.041 A 
ATOM     33  C   UNL     1      -9.616   4.168   3.549  0.00  0.00    +0.158 A 
ATOM     34  C   UNL     1      -8.985   4.866   4.567  0.00  0.00    +0.159 A 
ATOM     35  C   UNL     1      -7.704   4.514   4.956  0.00  0.00    +0.047 A 
ATOM     36  F   UNL     1      -9.620   5.889   5.180  0.00  0.00    -0.202 F 
ATOM     37  F   UNL     1     -10.866   4.509   3.168  0.00  0.00    -0.202 F 
ENDBRANCH  22  30
ENDBRANCH  20  25
ENDBRANCH   1  20
TORSDOF 4
