REMARK  Name = ZINC00679976
REMARK  11 active torsions:
REMARK  status: ('A' for Active; 'I' for Inactive)
REMARK    1  A    between atoms: C_1  and  C_2
REMARK    2  A    between atoms: C_2  and  C_3
REMARK    3  A    between atoms: C_3  and  C_4
REMARK    4  A    between atoms: C_3  and  C_5
REMARK    5  A    between atoms: C_3  and  C_6
REMARK    6  A    between atoms: C_13  and  N_18
REMARK    7  A    between atoms: C_14  and  C_15
REMARK    8  A    between atoms: C_19  and  C_21
REMARK    9  A    between atoms: C_21  and  O_22
REMARK   10  A    between atoms: O_22  and  C_23
REMARK   11  A    between atoms: C_28  and  C_29
REMARK                            x       y       z     vdW  Elec       q    Type
REMARK                         _______ _______ _______ _____ _____    ______ ____
ROOT
ATOM      1  C   UNL     1       0.011   1.072   2.506  0.00  0.00    -0.000 C 
ATOM      2  C   UNL     1      -0.704   1.565   3.768  0.00  0.00    +0.009 C 
ATOM      3  C   UNL     1       0.157   1.276   4.999  0.00  0.00    +0.037 C 
ATOM      4  C   UNL     1       0.548  -0.196   4.991  0.00  0.00    -0.023 A 
ATOM      5  C   UNL     1       0.469  -0.930   3.859  0.00  0.00    -0.004 A 
ATOM      6  S   UNL     1       1.014  -2.547   4.330  0.00  0.00    -0.077 S 
ATOM      7  C   UNL     1       1.343  -2.255   6.006  0.00  0.00    +0.084 A 
ATOM      8  C   UNL     1       1.024  -0.913   6.161  0.00  0.00    +0.068 A 
ATOM      9  C   UNL     1       0.018  -0.463   2.510  0.00  0.00    +0.046 C 
ENDROOT
BRANCH   8  10
ATOM     10  C   UNL     1       1.160  -0.245   7.459  0.00  0.00    +0.244 C 
ATOM     11  O   UNL     1       0.226  -0.232   8.238  0.00  0.00    -0.270 OA
ATOM     12  N   UNL     1       2.321   0.356   7.789  0.00  0.00    -0.325 N 
ATOM     13  H   UNL     1       3.066   0.346   7.167  0.00  0.00    +0.145 HD
ATOM     14  H   UNL     1       2.412   0.798   8.647  0.00  0.00    +0.145 HD
ENDBRANCH   8  10
BRANCH   7  15
ATOM     15  N   UNL     1       1.813  -3.145   6.960  0.00  0.00    -0.277 N 
ATOM     16  C   UNL     1       2.071  -4.423   6.620  0.00  0.00    +0.255 C 
ATOM     17  O   UNL     1       1.892  -4.795   5.479  0.00  0.00    -0.272 OA
ATOM     18  H   UNL     1       1.956  -2.847   7.872  0.00  0.00    +0.155 HD
BRANCH  16  19
ATOM     19  C   UNL     1       2.582  -5.390   7.656  0.00  0.00    +0.324 C 
BRANCH  19  20
ATOM     20  O   UNL     1       2.777  -6.672   7.056  0.00  0.00    -0.483 OA
BRANCH  20  21
ATOM     21  C   UNL     1       3.238  -7.666   7.861  0.00  0.00    +0.124 A 
ATOM     22  C   UNL     1       3.497  -7.412   9.200  0.00  0.00    +0.046 A 
ATOM     23  C   UNL     1       3.966  -8.424  10.015  0.00  0.00    +0.004 A 
ATOM     24  C   UNL     1       4.176  -9.689   9.498  0.00  0.00    +0.000 A 
ATOM     25  C   UNL     1       3.919  -9.944   8.164  0.00  0.00    +0.007 A 
ATOM     26  C   UNL     1       3.446  -8.937   7.345  0.00  0.00    -0.009 A 
ATOM     27  C   UNL     1       3.160  -9.218   5.893  0.00  0.00    +0.047 C 
ENDBRANCH  20  21
ENDBRANCH  19  20
ENDBRANCH  16  19
ENDBRANCH   7  15
BRANCH   1  28
ATOM     28  C   UNL     1      -0.729   1.579   1.267  0.00  0.00    -0.032 C 
ATOM     29  C   UNL     1      -0.750   3.109   1.275  0.00  0.00    +0.011 C 
ATOM     30  C   UNL     1      -2.164   1.050   1.278  0.00  0.00    +0.011 C 
BRANCH  28  32
ATOM     31  C   UNL     1      -0.753   1.593  -1.232  0.00  0.00    +0.004 C 
ATOM     32  C   UNL     1      -0.013   1.086   0.008  0.00  0.00    +0.003 C 
ENDBRANCH  28  32
ENDBRANCH   1  28
TORSDOF 7
