REMARK  Name = ZINC00258257
REMARK  5 active torsions:
REMARK  status: ('A' for Active; 'I' for Inactive)
REMARK    1  A    between atoms: C_7  and  C_11
REMARK    2  A    between atoms: C_11  and  C_12
REMARK    3  A    between atoms: N_14  and  N_15
REMARK    4  A    between atoms: C_16  and  C_17
REMARK    5  A    between atoms: C_20  and  N_23
REMARK                            x       y       z     vdW  Elec       q    Type
REMARK                         _______ _______ _______ _____ _____    ______ ____
ROOT
ATOM      1  C   UNL     1      -1.714   2.526   1.440  0.00  0.00    +0.237 C 
ATOM      2  O   UNL     1      -1.117   1.995   2.352  0.00  0.00    -0.274 OA
ATOM      3  N   UNL     1      -2.801   3.280   1.694  0.00  0.00    -0.207 N 
ATOM      4  H   UNL     1      -3.279   3.705   0.965  0.00  0.00    +0.177 HD
ENDROOT
BRANCH   3   5
ATOM      5  N   UNL     1      -3.241   3.453   3.014  0.00  0.00    -0.188 NA
ATOM      6  C   UNL     1      -4.288   4.179   3.259  0.00  0.00    +0.138 C 
BRANCH   6   7
ATOM      7  C   UNL     1      -4.751   4.360   4.647  0.00  0.00    -0.005 A 
ATOM      8  C   UNL     1      -4.068   3.746   5.700  0.00  0.00    +0.012 A 
ATOM      9  C   UNL     1      -4.504   3.925   6.997  0.00  0.00    +0.033 A 
ATOM     10  C   UNL     1      -5.620   4.700   7.255  0.00  0.00    +0.126 A 
ATOM     11  C   UNL     1      -6.304   5.307   6.216  0.00  0.00    +0.033 A 
ATOM     12  C   UNL     1      -5.877   5.142   4.915  0.00  0.00    +0.012 A 
BRANCH  10  13
ATOM     13  N   UNL     1      -6.086   4.881   8.648  0.00  0.00    +0.056 N 
ATOM     14  O   UNL     1      -7.068   5.563   8.879  0.00  0.00    -0.126 OA
ATOM     15  O   UNL     1      -5.486   4.348   9.565  0.00  0.00    -0.126 OA
ENDBRANCH  10  13
ENDBRANCH   6   7
ENDBRANCH   3   5
BRANCH   1  16
ATOM     16  C   UNL     1      -1.241   2.341   0.021  0.00  0.00    +0.134 C 
BRANCH  16  23
ATOM     17  C   UNL     1      -0.634  -2.308  -0.004  0.00  0.00    +0.001 A 
ATOM     18  C   UNL     1       0.704  -2.678  -0.019  0.00  0.00    +0.002 A 
ATOM     19  C   UNL     1       1.697  -1.724  -0.023  0.00  0.00    +0.026 A 
ATOM     20  C   UNL     1       1.359  -0.374  -0.013  0.00  0.00    +0.047 A 
ATOM     21  C   UNL     1       0.002  -0.004   0.002  0.00  0.00    +0.003 A 
ATOM     22  C   UNL     1      -0.989  -0.988   0.007  0.00  0.00    +0.010 A 
ATOM     23  C   UNL     1      -0.018   1.461   0.010  0.00  0.00    -0.014 A 
ATOM     24  C   UNL     1       1.260   1.871   0.000  0.00  0.00    +0.087 A 
ATOM     25  N   UNL     1       2.097   0.788  -0.014  0.00  0.00    -0.360 N 
ATOM     26  H   UNL     1       3.066   0.833  -0.023  0.00  0.00    +0.165 HD
ENDBRANCH  16  23
ENDBRANCH   1  16
TORSDOF 5
