REMARK  Name = ZINC65011120
REMARK  10 active torsions:
REMARK  status: ('A' for Active; 'I' for Inactive)
REMARK    1  A    between atoms: C_1  and  C_2
REMARK    2  A    between atoms: C_2  and  C_3
REMARK    3  A    between atoms: C_3  and  C_4
REMARK    4  A    between atoms: C_5  and  C_16
REMARK    5  A    between atoms: C_19  and  C_34
REMARK    6  A    between atoms: C_20  and  S_22
REMARK    7  A    between atoms: S_22  and  N_25
REMARK    8  A    between atoms: N_25  and  C_26
REMARK    9  A    between atoms: C_30  and  C_32
REMARK   10  A    between atoms: C_32  and  C_33
REMARK                            x       y       z     vdW  Elec       q    Type
REMARK                         _______ _______ _______ _____ _____    ______ ____
ROOT
ATOM      1  C   UNL     1      -1.391  -2.942  -2.671  0.00  0.00    -0.011 A 
ATOM      2  C   UNL     1      -2.455  -2.081  -2.934  0.00  0.00    +0.009 A 
ATOM      3  C   UNL     1      -2.480  -1.358  -4.109  0.00  0.00    +0.006 A 
ATOM      4  C   UNL     1      -1.450  -1.486  -5.025  0.00  0.00    -0.024 A 
ATOM      5  C   UNL     1      -0.392  -2.338  -4.769  0.00  0.00    +0.112 A 
ATOM      6  C   UNL     1      -0.353  -3.062  -3.594  0.00  0.00    +0.037 A 
ATOM      7  C   UNL     1      -1.483  -0.693  -6.306  0.00  0.00    +0.046 C 
ENDROOT
BRANCH   1   9
ATOM      8  C   UNL     1      -1.258  -3.196  -0.108  0.00  0.00    +0.073 A 
ATOM      9  C   UNL     1      -1.359  -3.722  -1.410  0.00  0.00    +0.045 A 
ATOM     10  C   UNL     1      -1.423  -5.106  -1.297  0.00  0.00    +0.139 A 
ATOM     11  N   UNL     1      -1.423  -5.394   0.030  0.00  0.00    -0.185 N 
ATOM     12  N   UNL     1      -1.269  -4.186   0.737  0.00  0.00    -0.167 NA
ATOM     13  C   UNL     1      -1.601  -6.578   0.655  0.00  0.00    +0.250 C 
ATOM     14  O   UNL     1      -1.446  -6.628   1.852  0.00  0.00    -0.271 OA
ATOM     15  C   UNL     1      -1.977  -7.813  -0.057  0.00  0.00    +0.110 C 
ATOM     16  C   UNL     1      -2.869  -7.603  -1.252  0.00  0.00    +0.105 C 
ATOM     17  C   UNL     1      -2.100  -7.130  -2.440  0.00  0.00    +0.219 C 
ATOM     18  O   UNL     1      -2.058  -7.805  -3.446  0.00  0.00    -0.275 OA
ATOM     19  N   UNL     1      -1.450  -5.948  -2.391  0.00  0.00    -0.270 N 
ATOM     20  H   UNL     1      -0.966  -5.668  -3.184  0.00  0.00    +0.156 HD
BRANCH   8  21
ATOM     21  C   UNL     1      -1.149  -1.735   0.247  0.00  0.00    +0.058 C 
BRANCH  21  23
ATOM     22  C   UNL     1       0.436   0.155   0.644  0.00  0.00    +0.004 C 
ATOM     23  C   UNL     1       0.326  -1.328   0.284  0.00  0.00    +0.003 C 
ENDBRANCH  21  23
ENDBRANCH   8  21
ENDBRANCH   1   9
BRANCH   5  24
ATOM     24  S   UNL     1       0.915  -2.495  -5.941  0.00  0.00    +0.073 S 
ATOM     25  O   UNL     1       1.316  -1.175  -6.280  0.00  0.00    -0.150 OA
ATOM     26  O   UNL     1       1.820  -3.455  -5.414  0.00  0.00    -0.150 OA
BRANCH  24  27
ATOM     27  N   UNL     1       0.265  -3.159  -7.312  0.00  0.00    -0.216 N 
ATOM     28  H   UNL     1       0.287  -2.666  -8.147  0.00  0.00    +0.174 HD
BRANCH  27  29
ATOM     29  C   UNL     1      -0.314  -4.429  -7.266  0.00  0.00    +0.048 A 
ATOM     30  C   UNL     1       0.341  -5.470  -6.619  0.00  0.00    +0.024 A 
ATOM     31  C   UNL     1      -0.234  -6.724  -6.575  0.00  0.00    +0.002 A 
ATOM     32  C   UNL     1      -1.461  -6.946  -7.174  0.00  0.00    +0.004 A 
ATOM     33  C   UNL     1      -2.115  -5.912  -7.819  0.00  0.00    -0.046 A 
ATOM     34  C   UNL     1      -1.548  -4.653  -7.862  0.00  0.00    +0.028 A 
BRANCH  33  35
ATOM     35  C   UNL     1      -3.451  -6.158  -8.472  0.00  0.00    +0.032 C 
ATOM     36  C   UNL     1      -4.569  -5.894  -7.461  0.00  0.00    +0.009 C 
ENDBRANCH  33  35
ENDBRANCH  27  29
ENDBRANCH  24  27
ENDBRANCH   5  24
TORSDOF 7
