REMARK  Name = ZINC63412013
REMARK  8 active torsions:
REMARK  status: ('A' for Active; 'I' for Inactive)
REMARK    1  A    between atoms: C_1  and  C_2
REMARK    2  A    between atoms: C_4  and  C_26
REMARK    3  A    between atoms: C_11  and  C_12
REMARK    4  A    between atoms: C_15  and  O_20
REMARK    5  A    between atoms: C_16  and  O_18
REMARK    6  A    between atoms: O_18  and  C_19
REMARK    7  A    between atoms: O_20  and  C_21
REMARK    8  A    between atoms: C_21  and  C_22
REMARK                            x       y       z     vdW  Elec       q    Type
REMARK                         _______ _______ _______ _____ _____    ______ ____
ROOT
ATOM      1  C   UNL     1       0.351   1.659   0.464  0.00  0.00    +0.044 C 
ATOM      2  C   UNL     1       0.180   0.167   0.337  0.00  0.00    -0.049 A 
ATOM      3  C   UNL     1      -0.072  -0.398  -0.903  0.00  0.00    +0.010 A 
ATOM      4  C   UNL     1      -0.237  -1.761  -1.035  0.00  0.00    -0.008 A 
ATOM      5  C   UNL     1      -0.149  -2.588   0.080  0.00  0.00    +0.135 A 
ATOM      6  C   UNL     1       0.117  -2.014   1.330  0.00  0.00    +0.064 A 
ATOM      7  C   UNL     1       0.280  -0.636   1.454  0.00  0.00    +0.018 A 
ATOM      8  C   UNL     1       0.244  -2.895   2.518  0.00  0.00    +0.196 C 
ATOM      9  O   UNL     1       0.607  -2.484   3.605  0.00  0.00    -0.287 OA
ATOM     10  C   UNL     1      -0.107  -4.314   2.277  0.00  0.00    +0.038 C 
ATOM     11  C   UNL     1      -0.678  -5.094   3.223  0.00  0.00    +0.018 C 
ATOM     12  C   UNL     1       0.225  -4.824   0.885  0.00  0.00    +0.268 C 
ATOM     13  O   UNL     1      -0.332  -3.921  -0.070  0.00  0.00    -0.486 OA
ATOM     14  C   UNL     1      -0.514  -2.356  -2.391  0.00  0.00    +0.047 C 
ENDROOT
BRANCH  11  15
ATOM     15  C   UNL     1      -1.135  -4.501   4.487  0.00  0.00    -0.021 A 
ATOM     16  C   UNL     1      -1.631  -3.192   4.509  0.00  0.00    +0.012 A 
ATOM     17  C   UNL     1      -2.058  -2.638   5.696  0.00  0.00    +0.050 A 
ATOM     18  C   UNL     1      -1.999  -3.376   6.871  0.00  0.00    +0.163 A 
ATOM     19  C   UNL     1      -1.506  -4.680   6.857  0.00  0.00    +0.162 A 
ATOM     20  C   UNL     1      -1.081  -5.245   5.671  0.00  0.00    +0.057 A 
BRANCH  19  21
ATOM     21  O   UNL     1      -1.449  -5.398   8.011  0.00  0.00    -0.491 OA
ATOM     22  C   UNL     1      -0.934  -6.728   7.923  0.00  0.00    +0.277 C 
ENDBRANCH  19  21
BRANCH  18  23
ATOM     23  O   UNL     1      -2.421  -2.824   8.039  0.00  0.00    -0.474 OA
BRANCH  23  24
ATOM     24  C   UNL     1      -2.913  -1.484   7.982  0.00  0.00    +0.347 C 
BRANCH  24  25
ATOM     25  C   UNL     1      -3.323  -1.054   9.329  0.00  0.00    +0.104 C 
ATOM     26  N   UNL     1      -3.639  -0.723  10.368  0.00  0.00    -0.193 NA
ENDBRANCH  24  25
ENDBRANCH  23  24
ENDBRANCH  18  23
ENDBRANCH  11  15
TORSDOF 5
