REMARK  Name = ZINC39206153
REMARK  11 active torsions:
REMARK  status: ('A' for Active; 'I' for Inactive)
REMARK    1  A    between atoms: C_1  and  C_2
REMARK    2  A    between atoms: C_2  and  C_3
REMARK    3  A    between atoms: C_3  and  C_4
REMARK    4  A    between atoms: C_6  and  C_18
REMARK    5  A    between atoms: C_8  and  C_16
REMARK    6  A    between atoms: C_9  and  N_15
REMARK    7  A    between atoms: C_21  and  N_24
REMARK    8  A    between atoms: N_24  and  C_25
REMARK    9  A    between atoms: N_24  and  C_27
REMARK   10  A    between atoms: C_25  and  C_26
REMARK   11  A    between atoms: C_27  and  C_28
REMARK                            x       y       z     vdW  Elec       q    Type
REMARK                         _______ _______ _______ _____ _____    ______ ____
ROOT
ATOM      1  C   UNL     1       0.762  -2.018   1.233  0.00  0.00    +0.069 C 
ATOM      2  C   UNL     1       1.746  -2.751   0.770  0.00  0.00    +0.030 C 
ATOM      3  C   UNL     1       3.013  -2.434   0.024  0.00  0.00    +0.098 C 
ATOM      4  C   UNL     1       3.128  -3.499  -1.052  0.00  0.00    +0.097 C 
ATOM      5  C   UNL     1       2.307  -4.569  -1.082  0.00  0.00    +0.195 C 
ATOM      6  O   UNL     1       1.298  -4.832  -0.233  0.00  0.00    -0.448 OA
ATOM      7  C   UNL     1       1.331  -4.196   1.048  0.00  0.00    +0.343 C 
ATOM      8  N   UNL     1      -0.011  -4.024   1.616  0.00  0.00    -0.138 NA
ATOM      9  N   UNL     1      -0.232  -2.810   1.710  0.00  0.00    -0.155 NA
ENDROOT
BRANCH   3  10
ATOM     10  C   UNL     1       4.196  -2.500   0.955  0.00  0.00    -0.035 A 
ATOM     11  C   UNL     1       4.496  -3.682   1.606  0.00  0.00    +0.006 A 
ATOM     12  C   UNL     1       5.580  -3.746   2.460  0.00  0.00    +0.023 A 
ATOM     13  C   UNL     1       6.368  -2.621   2.664  0.00  0.00    +0.030 A 
ATOM     14  C   UNL     1       6.064  -1.435   2.008  0.00  0.00    +0.023 A 
ATOM     15  C   UNL     1       4.982  -1.380   1.151  0.00  0.00    +0.006 A 
BRANCH  13  16
ATOM     16  N   UNL     1       7.465  -2.682   3.527  0.00  0.00    -0.330 N 
BRANCH  16  17
ATOM     17  C   UNL     1       8.295  -1.494   3.741  0.00  0.00    +0.102 C 
ATOM     18  C   UNL     1       7.739  -0.688   4.917  0.00  0.00    +0.024 C 
ENDBRANCH  16  17
BRANCH  16  19
ATOM     19  C   UNL     1       7.784  -3.933   4.219  0.00  0.00    +0.102 C 
ATOM     20  C   UNL     1       8.740  -4.761   3.359  0.00  0.00    +0.024 C 
ENDBRANCH  16  19
ENDBRANCH  13  16
ENDBRANCH   3  10
BRANCH   5  21
ATOM     21  N   UNL     1       2.523  -5.482  -2.083  0.00  0.00    -0.329 N 
ATOM     22  H   UNL     1       3.237  -5.341  -2.723  0.00  0.00    +0.145 HD
ATOM     23  H   UNL     1       1.960  -6.270  -2.150  0.00  0.00    +0.145 HD
ENDBRANCH   5  21
BRANCH   4  24
ATOM     24  C   UNL     1       4.135  -3.364  -2.062  0.00  0.00    +0.101 C 
ATOM     25  N   UNL     1       4.934  -3.256  -2.862  0.00  0.00    -0.191 NA
ENDBRANCH   4  24
BRANCH   1  26
ATOM     26  C   UNL     1       0.742  -0.511   1.242  0.00  0.00    +0.057 C 
BRANCH  26  28
ATOM     27  C   UNL     1      -0.019   1.526   0.010  0.00  0.00    +0.004 C 
ATOM     28  C   UNL     1       0.002  -0.004   0.002  0.00  0.00    +0.003 C 
ENDBRANCH  26  28
ENDBRANCH   1  26
TORSDOF 8
