REMARK  Name = ZINC21351789
REMARK  4 active torsions:
REMARK  status: ('A' for Active; 'I' for Inactive)
REMARK    1  A    between atoms: C_1  and  C_2
REMARK    2  A    between atoms: C_2  and  S_3
REMARK    3  A    between atoms: S_3  and  C_4
REMARK    4  A    between atoms: C_10  and  C_12
REMARK                            x       y       z     vdW  Elec       q    Type
REMARK                         _______ _______ _______ _____ _____    ______ ____
ROOT
ATOM      1  C   UNL     1      -7.512   4.646   0.097  0.00  0.00    +0.160 A 
ATOM      2  N   UNL     1      -6.508   5.512   0.092  0.00  0.00    -0.133 NA
ATOM      3  N   UNL     1      -5.304   5.136   0.079  0.00  0.00    -0.125 NA
ATOM      4  C   UNL     1      -4.969   3.856   0.070  0.00  0.00    +0.189 A 
ATOM      5  S   UNL     1      -6.596   3.108   0.074  0.00  0.00    -0.024 S 
ATOM      6  N   UNL     1      -3.712   3.261   0.055  0.00  0.00    -0.257 N 
ATOM      7  C   UNL     1      -2.604   4.028   0.048  0.00  0.00    +0.285 C 
ATOM      8  O   UNL     1      -2.703   5.240   0.055  0.00  0.00    -0.266 OA
ATOM      9  H   UNL     1      -3.623   2.165   0.048  0.00  0.00    +0.157 HD
ENDROOT
BRANCH   7  10
ATOM     10  C   UNL     1      -1.266   3.395   0.032  0.00  0.00    +0.194 A 
ATOM     11  C   UNL     1      -0.168   4.191   0.026  0.00  0.00    +0.103 A 
ATOM     12  C   UNL     1       1.161   3.564   0.010  0.00  0.00    +0.193 A 
ATOM     13  O   UNL     1       2.181   4.230   0.004  0.00  0.00    -0.287 OA
ATOM     14  C   UNL     1       1.201   2.089   0.002  0.00  0.00    +0.065 A 
ATOM     15  C   UNL     1       2.412   1.397  -0.013  0.00  0.00    +0.030 A 
ATOM     16  C   UNL     1       2.407   0.019  -0.020  0.00  0.00    +0.019 A 
ATOM     17  C   UNL     1       1.204  -0.677  -0.013  0.00  0.00    +0.019 A 
ATOM     18  C   UNL     1       0.002  -0.004   0.002  0.00  0.00    +0.048 A 
ATOM     19  C   UNL     1      -0.017   1.387   0.010  0.00  0.00    +0.140 A 
ATOM     20  O   UNL     1      -1.186   2.057   0.019  0.00  0.00    -0.450 OA
ATOM     21 BR   UNL     1       4.043  -0.929  -0.040  0.00  0.00    -0.050 Br
ENDBRANCH   7  10
BRANCH   1  22
ATOM     22  S   UNL     1      -9.251   4.929   0.114  0.00  0.00    -0.097 S 
BRANCH  22  24
ATOM     23  C   UNL     1     -10.882   7.124   0.139  0.00  0.00    +0.016 C 
ATOM     24  C   UNL     1      -9.402   6.736   0.124  0.00  0.00    +0.073 C 
ENDBRANCH  22  24
ENDBRANCH   1  22
TORSDOF 3
