REMARK  Name = ZINC37080500
REMARK  5 active torsions:
REMARK  status: ('A' for Active; 'I' for Inactive)
REMARK    1  A    between atoms: C_1  and  N_2
REMARK    2  A    between atoms: N_2  and  C_3
REMARK    3  A    between atoms: N_2  and  S_6
REMARK    4  A    between atoms: S_6  and  C_9
REMARK    5  A    between atoms: C_12  and  N_16
REMARK                            x       y       z     vdW  Elec       q    Type
REMARK                         _______ _______ _______ _____ _____    ______ ____
ROOT
ATOM      1  C   UNL     1       1.682  -1.059  -1.905  0.00  0.00    +0.142 A 
ATOM      2  C   UNL     1       2.323  -0.107  -2.678  0.00  0.00    +0.070 A 
ATOM      3  C   UNL     1       3.643  -0.289  -3.047  0.00  0.00    +0.044 A 
ATOM      4  C   UNL     1       4.325  -1.429  -2.641  0.00  0.00    +0.027 A 
ATOM      5  C   UNL     1       3.679  -2.382  -1.865  0.00  0.00    +0.044 A 
ATOM      6  C   UNL     1       2.361  -2.193  -1.495  0.00  0.00    +0.070 A 
ATOM      7 CL   UNL     1       1.555  -3.382  -0.520  0.00  0.00    -0.081 Cl
ATOM      8 CL   UNL     1       1.469   1.317  -3.185  0.00  0.00    -0.081 Cl
ENDROOT
BRANCH   1   9
ATOM      9  S   UNL     1      -0.000  -0.824  -1.437  0.00  0.00    +0.064 S 
ATOM     10  O   UNL     1      -0.531  -2.115  -1.167  0.00  0.00    -0.153 OA
ATOM     11  O   UNL     1      -0.572   0.049  -2.401  0.00  0.00    -0.153 OA
BRANCH   9  13
ATOM     12  C   UNL     1      -0.018   1.461   0.010  0.00  0.00    +0.132 C 
ATOM     13  N   UNL     1       0.002  -0.004   0.002  0.00  0.00    -0.177 NA
BRANCH  13  14
ATOM     14  C   UNL     1       0.024  -0.743   1.267  0.00  0.00    +0.080 C 
ATOM     15  C   UNL     1      -0.178   0.056   2.556  0.00  0.00    +0.022 C 
ATOM     16  C   UNL     1       1.205  -0.498   2.208  0.00  0.00    +0.022 C 
ENDBRANCH  13  14
ENDBRANCH   9  13
ENDBRANCH   1   9
BRANCH   4  17
ATOM     17  N   UNL     1       5.659  -1.615  -3.013  0.00  0.00    -0.358 N 
ATOM     18  H   UNL     1       6.109  -0.949  -3.555  0.00  0.00    +0.142 HD
ATOM     19  H   UNL     1       6.134  -2.411  -2.729  0.00  0.00    +0.142 HD
ENDBRANCH   4  17
TORSDOF 4
