REMARK  Name = ZINC39695357
REMARK  8 active torsions:
REMARK  status: ('A' for Active; 'I' for Inactive)
REMARK    1  A    between atoms: C_1  and  C_2
REMARK    2  A    between atoms: C_2  and  C_3
REMARK    3  A    between atoms: C_3  and  C_5
REMARK    4  A    between atoms: C_3  and  N_11
REMARK    5  A    between atoms: C_12  and  C_14
REMARK    6  A    between atoms: C_25  and  C_27
REMARK    7  A    between atoms: C_29  and  C_36
REMARK    8  A    between atoms: C_31  and  C_32
REMARK                            x       y       z     vdW  Elec       q    Type
REMARK                         _______ _______ _______ _____ _____    ______ ____
ROOT
ATOM      1  C   UNL     1      -3.286   1.411   2.640  0.00  0.00    +0.100 C 
ATOM      2  C   UNL     1      -2.323   1.356   3.847  0.00  0.00    +0.121 C 
ATOM      3  N   UNL     1      -1.801   2.737   3.973  0.00  0.00    -0.296 N 
ATOM      4  C   UNL     1      -2.972   3.601   3.689  0.00  0.00    +0.115 C 
ATOM      5  C   UNL     1      -3.712   2.885   2.542  0.00  0.00    -0.004 C 
ATOM      6  C   UNL     1      -3.289   3.469   1.197  0.00  0.00    -0.010 C 
ATOM      7  C   UNL     1      -3.774   4.918   1.100  0.00  0.00    -0.082 C 
ATOM      8  N   UNL     1      -5.235   4.957   1.235  0.00  0.00    +0.379 N 
ATOM      9  C   UNL     1      -5.628   4.480   2.567  0.00  0.00    -0.082 C 
ATOM     10  C   UNL     1      -5.221   3.013   2.726  0.00  0.00    -0.010 C 
ATOM     11  C   UNL     1      -0.545   3.121   4.277  0.00  0.00    +0.250 C 
ATOM     12  O   UNL     1       0.338   2.291   4.371  0.00  0.00    -0.270 OA
ATOM     13  H   UNL     1      -5.558   5.905   1.110  0.00  0.00    -0.086 HD
ATOM     14  H   UNL     1      -5.653   4.367   0.531  0.00  0.00    -0.086 HD
ENDROOT
BRANCH  11  15
ATOM     15  C   UNL     1      -0.244   4.547   4.494  0.00  0.00    +0.087 A 
ATOM     16  C   UNL     1      -1.204   5.659   4.564  0.00  0.00    +0.058 A 
ATOM     17  C   UNL     1      -0.473   6.764   4.775  0.00  0.00    +0.103 A 
ATOM     18  O   UNL     1       0.824   6.429   4.838  0.00  0.00    -0.455 OA
ATOM     19  C   UNL     1       0.985   5.111   4.678  0.00  0.00    +0.220 A 
ATOM     20  C   UNL     1      -1.023   8.160   4.917  0.00  0.00    +0.086 C 
BRANCH  19  21
ATOM     21  C   UNL     1       2.299   4.375   4.696  0.00  0.00    +0.451 C 
ATOM     22  F   UNL     1       2.822   4.321   3.400  0.00  0.00    -0.163 F 
ATOM     23  F   UNL     1       3.198   5.045   5.534  0.00  0.00    -0.163 F 
ATOM     24  F   UNL     1       2.099   3.075   5.172  0.00  0.00    -0.163 F 
ENDBRANCH  19  21
ENDBRANCH  11  15
BRANCH   1  26
ATOM     25  N   UNL     1      -3.260   0.378   0.392  0.00  0.00    -0.308 N 
ATOM     26  C   UNL     1      -2.575   0.985   1.381  0.00  0.00    +0.219 C 
ATOM     27  O   UNL     1      -1.385   1.188   1.259  0.00  0.00    -0.275 OA
ATOM     28  H   UNL     1      -4.211   0.216   0.490  0.00  0.00    +0.149 HD
BRANCH  25  29
ATOM     29  C   UNL     1      -2.569  -0.035  -0.831  0.00  0.00    +0.103 C 
BRANCH  29  30
ATOM     30  C   UNL     1      -3.556  -0.102  -1.968  0.00  0.00    -0.027 A 
ATOM     31  C   UNL     1      -4.826  -0.604  -1.753  0.00  0.00    +0.005 A 
ATOM     32  C   UNL     1      -5.731  -0.664  -2.796  0.00  0.00    +0.000 A 
ATOM     33  C   UNL     1      -5.366  -0.223  -4.054  0.00  0.00    +0.000 A 
ATOM     34  C   UNL     1      -4.097   0.280  -4.269  0.00  0.00    +0.000 A 
ATOM     35  C   UNL     1      -3.193   0.344  -3.225  0.00  0.00    +0.005 A 
ENDBRANCH  29  30
BRANCH  29  37
ATOM     36  C   UNL     1      -0.850  -1.320   0.449  0.00  0.00    +0.006 C 
ATOM     37  C   UNL     1      -1.940  -1.414  -0.620  0.00  0.00    +0.024 C 
ENDBRANCH  29  37
ENDBRANCH  25  29
ENDBRANCH   1  26
TORSDOF 6
