REMARK  Name = ZINC35074101
REMARK  11 active torsions:
REMARK  status: ('A' for Active; 'I' for Inactive)
REMARK    1  A    between atoms: C_1  and  C_2
REMARK    2  A    between atoms: C_5  and  N_9
REMARK    3  A    between atoms: C_6  and  C_8
REMARK    4  A    between atoms: C_10  and  C_12
REMARK    5  A    between atoms: C_14  and  C_35
REMARK    6  A    between atoms: C_16  and  C_24
REMARK    7  A    between atoms: C_18  and  C_22
REMARK    8  A    between atoms: C_18  and  O_23
REMARK    9  A    between atoms: N_26  and  C_27
REMARK   10  A    between atoms: C_30  and  C_34
REMARK   11  A    between atoms: C_32  and  C_33
REMARK                            x       y       z     vdW  Elec       q    Type
REMARK                         _______ _______ _______ _____ _____    ______ ____
ROOT
ATOM      1  C   UNL     1       0.491  -7.151  -0.796  0.00  0.00    +0.149 C 
ATOM      2  C   UNL     1       0.153  -7.242  -2.288  0.00  0.00    +0.053 C 
ATOM      3  C   UNL     1       0.087  -8.712  -2.704  0.00  0.00    +0.115 C 
ATOM      4  C   UNL     1       1.460  -9.363  -2.533  0.00  0.00    +0.082 C 
ATOM      5  C   UNL     1       1.847  -9.352  -1.050  0.00  0.00    +0.110 C 
ATOM      6  C   UNL     1       1.762  -7.930  -0.537  0.00  0.00    +0.148 C 
ATOM      7  O   UNL     1       2.685  -7.429   0.058  0.00  0.00    -0.296 OA
ATOM      8  C   UNL     1       1.407 -10.807  -3.035  0.00  0.00    +0.042 C 
ENDROOT
BRANCH   2   9
ATOM      9  C   UNL     1      -1.179  -6.586  -2.542  0.00  0.00    -0.039 A 
ATOM     10  C   UNL     1      -2.290  -6.916  -1.781  0.00  0.00    +0.023 A 
ATOM     11  C   UNL     1      -3.495  -6.293  -2.043  0.00  0.00    +0.111 A 
ATOM     12  N   UNL     1      -3.596  -5.396  -3.005  0.00  0.00    -0.263 NA
ATOM     13  C   UNL     1      -2.561  -5.059  -3.749  0.00  0.00    +0.111 A 
ATOM     14  C   UNL     1      -1.322  -5.635  -3.541  0.00  0.00    +0.023 A 
ENDBRANCH   2   9
BRANCH   1  16
ATOM     15  N   UNL     1       1.010  -5.389   0.861  0.00  0.00    -0.285 N 
ATOM     16  C   UNL     1       0.695  -5.709  -0.410  0.00  0.00    +0.228 C 
ATOM     17  O   UNL     1       0.575  -4.835  -1.243  0.00  0.00    -0.275 OA
ATOM     18  H   UNL     1       1.173  -6.090   1.511  0.00  0.00    +0.155 HD
BRANCH  15  23
ATOM     19  C   UNL     1       1.381   0.057   2.406  0.00  0.00    +0.044 C 
ATOM     20  C   UNL     1       1.282  -1.389   1.995  0.00  0.00    -0.050 A 
ATOM     21  C   UNL     1       1.649  -1.771   0.717  0.00  0.00    +0.005 A 
ATOM     22  C   UNL     1       1.560  -3.095   0.338  0.00  0.00    +0.024 A 
ATOM     23  C   UNL     1       1.102  -4.046   1.242  0.00  0.00    +0.036 A 
ATOM     24  C   UNL     1       0.735  -3.660   2.524  0.00  0.00    -0.029 A 
ATOM     25  C   UNL     1       0.831  -2.334   2.899  0.00  0.00    +0.008 A 
ATOM     26  C   UNL     1       0.238  -4.687   3.508  0.00  0.00    +0.045 C 
ENDBRANCH  15  23
ENDBRANCH   1  16
BRANCH   3  27
ATOM     27  C   UNL     1      -0.919  -9.432  -1.843  0.00  0.00    +0.224 C 
ATOM     28  O   UNL     1      -0.742  -9.516  -0.646  0.00  0.00    -0.275 OA
ATOM     29  N   UNL     1      -2.014  -9.983  -2.402  0.00  0.00    -0.285 N 
ATOM     30  H   UNL     1      -2.122  -9.976  -3.366  0.00  0.00    +0.155 HD
BRANCH  29  31
ATOM     31  C   UNL     1      -2.996 -10.565  -1.593  0.00  0.00    +0.036 A 
ATOM     32  C   UNL     1      -3.063 -10.246  -0.242  0.00  0.00    +0.024 A 
ATOM     33  C   UNL     1      -4.033 -10.821   0.554  0.00  0.00    +0.005 A 
ATOM     34  C   UNL     1      -4.937 -11.715   0.009  0.00  0.00    -0.050 A 
ATOM     35  C   UNL     1      -4.872 -12.035  -1.335  0.00  0.00    +0.008 A 
ATOM     36  C   UNL     1      -3.909 -11.457  -2.138  0.00  0.00    -0.029 A 
ATOM     37  C   UNL     1      -3.843 -11.801  -3.604  0.00  0.00    +0.045 C 
ATOM     38  C   UNL     1      -5.994 -12.342   0.881  0.00  0.00    +0.044 C 
ENDBRANCH  29  31
ENDBRANCH   3  27
BRANCH   4  39
ATOM     39  O   UNL     1       2.431  -8.632  -3.284  0.00  0.00    -0.388 OA
ATOM     40  H   UNL     1       3.328  -8.990  -3.221  0.00  0.00    +0.210 HD
ENDBRANCH   4  39
TORSDOF 6
