REMARK  Name = ZINC63366649
REMARK  5 active torsions:
REMARK  status: ('A' for Active; 'I' for Inactive)
REMARK    1  A    between atoms: C_6  and  C_10
REMARK    2  A    between atoms: C_16  and  C_18
REMARK    3  A    between atoms: C_18  and  C_19
REMARK    4  A    between atoms: N_23  and  C_27
REMARK    5  A    between atoms: C_27  and  C_28
REMARK                            x       y       z     vdW  Elec       q    Type
REMARK                         _______ _______ _______ _____ _____    ______ ____
ROOT
ATOM      1  C   UNL     1       3.542  -2.787  -1.302  0.00  0.00    +0.035 C 
ATOM      2  C   UNL     1       3.015  -4.223  -1.291  0.00  0.00    +0.026 C 
ATOM      3  C   UNL     1       3.458  -4.935  -2.572  0.00  0.00    +0.108 C 
ATOM      4  N   UNL     1       4.919  -4.829  -2.691  0.00  0.00    -0.301 N 
ATOM      5  C   UNL     1       5.538  -3.499  -2.623  0.00  0.00    +0.108 C 
ATOM      6  C   UNL     1       5.071  -2.803  -1.341  0.00  0.00    +0.026 C 
ATOM      7  C   UNL     1       5.676  -5.931  -2.860  0.00  0.00    +0.218 C 
ATOM      8  O   UNL     1       5.152  -7.024  -2.914  0.00  0.00    -0.276 OA
ENDROOT
BRANCH   1  14
ATOM      9  C   UNL     1      -0.016   1.344   0.009  0.00  0.00    +0.002 A 
ATOM     10  C   UNL     1       1.158   2.118   0.002  0.00  0.00    +0.002 A 
ATOM     11  C   UNL     1       2.389   1.570  -0.013  0.00  0.00    +0.027 A 
ATOM     12  C   UNL     1       2.533   0.108  -0.022  0.00  0.00    +0.060 A 
ATOM     13  N   UNL     1       3.569  -0.680  -0.036  0.00  0.00    -0.363 N 
ATOM     14  C   UNL     1       3.071  -2.062  -0.039  0.00  0.00    +0.177 C 
ATOM     15  N   UNL     1       1.606  -1.974  -0.024  0.00  0.00    -0.363 N 
ATOM     16  C   UNL     1       1.290  -0.712  -0.014  0.00  0.00    +0.060 A 
ATOM     17  C   UNL     1       0.002  -0.004   0.002  0.00  0.00    +0.027 A 
ATOM     18  H   UNL     1       4.499  -0.405  -0.045  0.00  0.00    +0.162 HD
ATOM     19  H   UNL     1       0.987  -2.721  -0.022  0.00  0.00    +0.162 HD
ENDBRANCH   1  14
BRANCH   7  20
ATOM     20  C   UNL     1       7.173  -5.806  -2.980  0.00  0.00    +0.127 C 
BRANCH  20  21
ATOM     21  C   UNL     1       7.788  -7.195  -3.162  0.00  0.00    +0.170 C 
ATOM     22  C   UNL     1       9.288  -7.093  -3.356  0.00  0.00    +0.244 C 
ATOM     23  O   UNL     1       9.873  -6.524  -4.253  0.00  0.00    -0.273 OA
ATOM     24  N   UNL     1       9.835  -7.765  -2.325  0.00  0.00    -0.220 N 
ATOM     25  C   UNL     1       8.900  -8.273  -1.514  0.00  0.00    +0.309 C 
ATOM     26  O   UNL     1       9.150  -8.920  -0.516  0.00  0.00    -0.252 OA
ATOM     27  N   UNL     1       7.648  -7.989  -1.929  0.00  0.00    -0.287 N 
ATOM     28  H   UNL     1       6.819  -8.254  -1.500  0.00  0.00    +0.151 HD
BRANCH  24  29
ATOM     29  C   UNL     1      11.277  -7.922  -2.117  0.00  0.00    +0.153 C 
BRANCH  29  30
ATOM     30  C   UNL     1      11.791  -6.781  -1.277  0.00  0.00    -0.026 A 
ATOM     31  C   UNL     1      12.232  -5.621  -1.885  0.00  0.00    +0.009 A 
ATOM     32  C   UNL     1      12.704  -4.571  -1.119  0.00  0.00    +0.050 A 
ATOM     33  C   UNL     1      12.735  -4.680   0.262  0.00  0.00    +0.166 A 
ATOM     34  C   UNL     1      12.290  -5.849   0.875  0.00  0.00    +0.167 A 
ATOM     35  C   UNL     1      11.814  -6.895   0.100  0.00  0.00    +0.054 A 
ATOM     36  O   UNL     1      12.421  -5.710   2.226  0.00  0.00    -0.453 OA
ATOM     37  C   UNL     1      13.329  -4.608   2.413  0.00  0.00    +0.466 C 
ATOM     38  O   UNL     1      13.145  -3.809   1.229  0.00  0.00    -0.453 OA
ENDBRANCH  29  30
ENDBRANCH  24  29
ENDBRANCH  20  21
ENDBRANCH   7  20
TORSDOF 5
