REMARK  Name = ZINC33579830
REMARK  8 active torsions:
REMARK  status: ('A' for Active; 'I' for Inactive)
REMARK    1  A    between atoms: C_1  and  C_2
REMARK    2  A    between atoms: C_3  and  C_7
REMARK    3  A    between atoms: C_7  and  C_8
REMARK    4  A    between atoms: C_8  and  N_9
REMARK    5  A    between atoms: C_14  and  C_36
REMARK    6  A    between atoms: C_17  and  C_22
REMARK    7  A    between atoms: C_17  and  C_33
REMARK    8  A    between atoms: C_22  and  C_23
REMARK                            x       y       z     vdW  Elec       q    Type
REMARK                         _______ _______ _______ _____ _____    ______ ____
ROOT
ATOM      1  N   UNL     1       4.386   4.664  -1.064  0.00  0.00    -0.241 N 
ATOM      2  C   UNL     1       3.394   5.394  -1.657  0.00  0.00    +0.224 C 
ATOM      3  O   UNL     1       3.497   6.128  -2.615  0.00  0.00    -0.275 OA
ATOM      4  C   UNL     1       2.148   5.093  -0.869  0.00  0.00    +0.079 C 
ATOM      5  C   UNL     1       0.818   4.862  -1.582  0.00  0.00    -0.001 C 
ATOM      6  N   UNL     1       0.211   3.676  -0.928  0.00  0.00    +0.397 N 
ATOM      7  C   UNL     1       1.235   3.094   0.007  0.00  0.00    +0.052 C 
ATOM      8  C   UNL     1       2.498   3.576  -0.585  0.00  0.00    +0.086 C 
ATOM      9  C   UNL     1       3.900   3.673  -0.247  0.00  0.00    +0.225 C 
ATOM     10  O   UNL     1       4.510   3.024   0.575  0.00  0.00    -0.275 OA
ATOM     11  H   UNL     1      -0.685   3.985  -0.369  0.00  0.00    -0.083 HD
ATOM     12  H   UNL     1      -0.071   2.939  -1.694  0.00  0.00    -0.083 HD
ENDROOT
BRANCH   5  13
ATOM     13  C   UNL     1       1.052   4.563  -3.041  0.00  0.00    +0.065 A 
ATOM     14  N   UNL     1       1.502   3.461  -3.595  0.00  0.00    -0.254 NA
ATOM     15  C   UNL     1       1.646   3.358  -4.900  0.00  0.00    +0.118 A 
ATOM     16  C   UNL     1       1.327   4.429  -5.671  0.00  0.00    +0.066 A 
ATOM     17  S   UNL     1       0.801   5.590  -4.419  0.00  0.00    -0.082 S 
ENDBRANCH   5  13
BRANCH   7  18
ATOM     18  C   UNL     1       1.177   1.588  -0.001  0.00  0.00    +0.347 C 
ATOM     19  O   UNL     1       2.199   0.944  -0.014  0.00  0.00    -0.248 OA
ATOM     20  O   UNL     1      -0.011   0.963   0.007  0.00  0.00    -0.248 OA
ENDBRANCH   7  18
BRANCH   1  21
ATOM     21  C   UNL     1       5.814   4.913  -1.276  0.00  0.00    +0.121 C 
BRANCH  21  22
ATOM     22  C   UNL     1       6.318   5.915  -0.235  0.00  0.00    +0.063 C 
BRANCH  22  25
ATOM     23  C   UNL     1       7.592   8.083  -2.039  0.00  0.00    +0.066 C 
ATOM     24  C   UNL     1       8.399   7.103  -1.228  0.00  0.00    +0.049 A 
ATOM     25  C   UNL     1       7.787   6.171  -0.453  0.00  0.00    +0.014 A 
ATOM     26  S   UNL     1       9.206   5.329   0.231  0.00  0.00    -0.080 S 
ATOM     27  C   UNL     1      10.430   6.277  -0.555  0.00  0.00    +0.156 A 
ATOM     28  N   UNL     1       9.715   7.130  -1.252  0.00  0.00    -0.252 NA
ENDBRANCH  22  25
ENDBRANCH  21  22
ENDBRANCH   1  21
BRANCH   7  29
ATOM     29  C   UNL     1       1.054   3.639   1.425  0.00  0.00    +0.037 C 
BRANCH  29  30
ATOM     30  C   UNL     1      -0.277   3.188   1.970  0.00  0.00    -0.023 A 
ATOM     31  C   UNL     1      -1.426   3.881   1.946  0.00  0.00    +0.087 A 
ATOM     32  N   UNL     1      -2.424   3.151   2.531  0.00  0.00    -0.360 N 
ATOM     33  H   UNL     1      -3.442   3.562   2.594  0.00  0.00    +0.165 HD
ATOM     34  C   UNL     1      -1.927   1.942   2.965  0.00  0.00    +0.047 A 
ATOM     35  C   UNL     1      -0.561   1.912   2.632  0.00  0.00    +0.003 A 
ATOM     36  C   UNL     1       0.210   0.794   2.954  0.00  0.00    +0.010 A 
ATOM     37  C   UNL     1      -0.368  -0.268   3.592  0.00  0.00    +0.001 A 
ATOM     38  C   UNL     1      -1.716  -0.243   3.921  0.00  0.00    +0.002 A 
ATOM     39  C   UNL     1      -2.495   0.850   3.613  0.00  0.00    +0.026 A 
ENDBRANCH  29  30
ENDBRANCH   7  29
TORSDOF 7
