REMARK  Name = ZINC02949117
REMARK  8 active torsions:
REMARK  status: ('A' for Active; 'I' for Inactive)
REMARK    1  A    between atoms: CG_4  and  CB_7
REMARK    2  A    between atoms: CB_7  and  CA_8
REMARK    3  A    between atoms: CA_8  and  C_10
REMARK    4  A    between atoms: CA_8  and  N_13
REMARK    5  A    between atoms: C_14  and  CA_16
REMARK    6  A    between atoms: CA_16  and  N_25
REMARK    7  A    between atoms: C_17  and  C_18
REMARK    8  A    between atoms: C_26  and  C_28
REMARK                            x       y       z     vdW  Elec       q    Type
REMARK                         _______ _______ _______ _____ _____    ______ ____
ROOT
ATOM      1  CA  UNL     1       4.950   1.672   3.994  0.00  0.00    +0.097 C 
ATOM      2  C   UNL     1       4.841   2.834   3.309  0.00  0.00    +0.036 C 
ENDROOT
BRANCH   2   3
ATOM      3  C   UNL     1       4.973   4.118   4.014  0.00  0.00    -0.023 A 
ATOM      4  C   UNL     1       5.582   4.170   5.273  0.00  0.00    +0.009 A 
ATOM      5  C   UNL     1       5.702   5.377   5.927  0.00  0.00    +0.020 A 
ATOM      6  C   UNL     1       5.222   6.537   5.342  0.00  0.00    +0.041 A 
ATOM      7  C   UNL     1       4.618   6.494   4.096  0.00  0.00    +0.020 A 
ATOM      8  C   UNL     1       4.496   5.295   3.427  0.00  0.00    +0.009 A 
ATOM      9 CL   UNL     1       5.377   8.053   6.175  0.00  0.00    -0.084 Cl
ENDBRANCH   2   3
BRANCH   1  11
ATOM     10  N   UNL     1       4.884   0.377   1.926  0.00  0.00    -0.297 N 
ATOM     11  C   UNL     1       4.972   0.393   3.271  0.00  0.00    +0.259 C 
ATOM     12  O   UNL     1       5.070  -0.652   3.886  0.00  0.00    -0.269 OA
ATOM     13  H   UNL     1       4.806   1.210   1.435  0.00  0.00    +0.150 HD
BRANCH  10  14
ATOM     14  CA  UNL     1       4.906  -0.899   1.206  0.00  0.00    +0.191 C 
BRANCH  14  15
ATOM     15  C   UNL     1       6.334  -1.319   0.973  0.00  0.00    +0.376 C 
ATOM     16  O   UNL     1       7.244  -0.542   1.205  0.00  0.00    -0.244 OA
ATOM     17  OXT UNL     1       6.580  -2.437   0.553  0.00  0.00    -0.244 OA
ENDBRANCH  14  15
BRANCH  14  18
ATOM     18  CB  UNL     1       4.196  -0.737  -0.140  0.00  0.00    +0.069 C 
BRANCH  18  22
ATOM     19  CZ  UNL     1       0.063   0.115   0.521  0.00  0.00    +0.000 A 
ATOM     20  CE1 UNL     1       0.975   1.149   0.428  0.00  0.00    +0.000 A 
ATOM     21  CD1 UNL     1       2.313   0.874   0.214  0.00  0.00    +0.004 A 
ATOM     22  CG  UNL     1       2.738  -0.436   0.094  0.00  0.00    -0.045 A 
ATOM     23  CD2 UNL     1       1.826  -1.470   0.188  0.00  0.00    +0.004 A 
ATOM     24  CE2 UNL     1       0.488  -1.195   0.400  0.00  0.00    +0.000 A 
ENDBRANCH  18  22
ENDBRANCH  14  18
ENDBRANCH  10  14
ENDBRANCH   1  11
BRANCH   1  25
ATOM     25  N   UNL     1       5.041   1.689   5.389  0.00  0.00    -0.277 N 
ATOM     26  C   UNL     1       6.098   1.120   6.002  0.00  0.00    +0.248 C 
ATOM     27  O   UNL     1       6.916   0.498   5.351  0.00  0.00    -0.270 OA
ATOM     28  H   UNL     1       4.343   2.109   5.916  0.00  0.00    +0.155 HD
BRANCH  26  29
ATOM     29  C   UNL     1       6.263   1.253   7.465  0.00  0.00    +0.037 A 
ATOM     30  C   UNL     1       5.269   1.864   8.230  0.00  0.00    +0.013 A 
ATOM     31  C   UNL     1       5.429   1.984   9.595  0.00  0.00    +0.001 A 
ATOM     32  C   UNL     1       6.573   1.500  10.205  0.00  0.00    +0.000 A 
ATOM     33  C   UNL     1       7.563   0.894   9.452  0.00  0.00    +0.001 A 
ATOM     34  C   UNL     1       7.412   0.762   8.088  0.00  0.00    +0.013 A 
ENDBRANCH  26  29
ENDBRANCH   1  25
TORSDOF 8
