REMARK  Name = ZINC61856019
REMARK  7 active torsions:
REMARK  status: ('A' for Active; 'I' for Inactive)
REMARK    1  A    between atoms: C_3  and  C_18
REMARK    2  A    between atoms: C_6  and  N_7
REMARK    3  A    between atoms: N_7  and  C_8
REMARK    4  A    between atoms: N_7  and  C_11
REMARK    5  A    between atoms: C_8  and  C_9
REMARK    6  A    between atoms: C_9  and  O_10
REMARK    7  A    between atoms: N_19  and  O_20
REMARK                            x       y       z     vdW  Elec       q    Type
REMARK                         _______ _______ _______ _____ _____    ______ ____
ROOT
ATOM      1  C   UNL     1       1.186  -0.218  -1.471  0.00  0.00    +0.024 A 
ATOM      2  C   UNL     1       2.264   0.626  -1.314  0.00  0.00    +0.014 A 
ATOM      3  C   UNL     1       2.459   1.287  -0.101  0.00  0.00    +0.036 A 
ATOM      4  C   UNL     1       1.561   1.091   0.952  0.00  0.00    +0.053 A 
ATOM      5  C   UNL     1       0.485   0.245   0.788  0.00  0.00    +0.043 A 
ATOM      6  C   UNL     1       0.294  -0.412  -0.422  0.00  0.00    +0.031 A 
ATOM      7 CL   UNL     1       1.801   1.911   2.463  0.00  0.00    -0.083 Cl
ENDROOT
BRANCH   3   8
ATOM      8  C   UNL     1       3.615   2.194   0.071  0.00  0.00    +0.164 C 
ATOM      9  N   UNL     1       3.814   3.162  -0.776  0.00  0.00    -0.071 NA
ATOM     10  N   UNL     1       4.486   2.012   1.132  0.00  0.00    -0.340 N 
ATOM     11  H   UNL     1       4.338   1.290   1.762  0.00  0.00    +0.144 HD
ATOM     12  H   UNL     1       5.244   2.607   1.244  0.00  0.00    +0.144 HD
BRANCH   9  13
ATOM     13  O   UNL     1       2.861   3.422  -1.791  0.00  0.00    -0.408 OA
ATOM     14  H   UNL     1       3.130   4.109  -2.416  0.00  0.00    +0.328 HD
ENDBRANCH   9  13
ENDBRANCH   3   8
BRANCH   6  15
ATOM     15  N   UNL     1      -0.795  -1.267  -0.585  0.00  0.00    -0.325 N 
BRANCH  15  16
ATOM     16  C   UNL     1      -0.639  -2.705  -0.353  0.00  0.00    +0.074 C 
ATOM     17  C   UNL     1       0.480  -3.247  -1.246  0.00  0.00    +0.022 C 
ATOM     18  C   UNL     1       0.643  -4.748  -1.004  0.00  0.00    +0.002 C 
ATOM     19  C   UNL     1       0.998  -4.993   0.464  0.00  0.00    +0.000 C 
ATOM     20  C   UNL     1      -0.120  -4.451   1.357  0.00  0.00    +0.002 C 
ATOM     21  C   UNL     1      -0.284  -2.949   1.115  0.00  0.00    +0.022 C 
ENDBRANCH  15  16
BRANCH  15  22
ATOM     22  C   UNL     1      -2.096  -0.727  -0.987  0.00  0.00    +0.133 C 
BRANCH  22  23
ATOM     23  C   UNL     1      -2.197  -0.724  -2.514  0.00  0.00    +0.174 C 
BRANCH  23  24
ATOM     24  O   UNL     1      -2.181  -2.070  -2.995  0.00  0.00    -0.393 OA
ATOM     25  H   UNL     1      -2.242  -2.144  -3.957  0.00  0.00    +0.209 HD
ENDBRANCH  23  24
ENDBRANCH  22  23
ENDBRANCH  15  22
ENDBRANCH   6  15
TORSDOF 7
