REMARK  Name = ZINC39467854
REMARK  7 active torsions:
REMARK  status: ('A' for Active; 'I' for Inactive)
REMARK    1  A    between atoms: C_1  and  O_2
REMARK    2  A    between atoms: O_2  and  P_3
REMARK    3  A    between atoms: C_11  and  S_23
REMARK    4  A    between atoms: C_12  and  S_21
REMARK    5  A    between atoms: S_21  and  C_22
REMARK    6  A    between atoms: S_23  and  O_26
REMARK    7  A    between atoms: O_26  and  C_27
REMARK                            x       y       z     vdW  Elec       q    Type
REMARK                         _______ _______ _______ _____ _____    ______ ____
ROOT
ATOM      1  P   UNL     1       0.976  -1.971  -0.381  0.00  0.00    +0.421 P 
ATOM      2  O   UNL     1       0.469  -1.267  -1.580  0.00  0.00    -0.239 OA
ATOM      3  N   UNL     1       2.624  -1.899  -0.325  0.00  0.00    -0.156 NA
ATOM      4  N   UNL     1       3.331  -2.768  -1.132  0.00  0.00    -0.228 NA
ATOM      5  C   UNL     1       4.761  -2.561  -0.846  0.00  0.00    +0.111 C 
ATOM      6  C   UNL     1       5.630  -3.450  -1.724  0.00  0.00    +0.036 C 
ATOM      7  C   UNL     1       5.428  -3.120  -3.179  0.00  0.00    +0.010 C 
ATOM      8  C   UNL     1       5.733  -4.025  -4.104  0.00  0.00    +0.138 C 
ATOM      9  C   UNL     1       6.277  -5.334  -3.689  0.00  0.00    +0.032 C 
ATOM     10  C   UNL     1       6.062  -5.775  -2.444  0.00  0.00    -0.006 C 
ATOM     11  C   UNL     1       5.260  -4.918  -1.494  0.00  0.00    +0.023 C 
ATOM     12  C   UNL     1       3.770  -5.098  -1.787  0.00  0.00    +0.031 C 
ATOM     13  C   UNL     1       2.932  -4.160  -0.910  0.00  0.00    +0.100 C 
ATOM     14  C   UNL     1       1.461  -4.389  -1.282  0.00  0.00    +0.191 C 
ATOM     15  O   UNL     1       0.620  -3.556  -0.465  0.00  0.00    -0.294 OA
ATOM     16  H   UNL     1       3.079  -1.269   0.255  0.00  0.00    +0.153 HD
ENDROOT
BRANCH   8  17
ATOM     17  S   UNL     1       5.491  -3.664  -5.812  0.00  0.00    +0.152 S 
ATOM     18  O   UNL     1       4.898  -4.819  -6.391  0.00  0.00    -0.131 OA
ATOM     19  O   UNL     1       4.881  -2.383  -5.874  0.00  0.00    -0.131 OA
BRANCH  17  20
ATOM     20  O   UNL     1       6.869  -3.521  -6.441  0.00  0.00    -0.342 OA
BRANCH  20  21
ATOM     21  C   UNL     1       7.502  -2.360  -6.128  0.00  0.00    +0.157 A 
ATOM     22  C   UNL     1       7.346  -1.243  -6.936  0.00  0.00    +0.048 A 
ATOM     23  C   UNL     1       7.990  -0.064  -6.614  0.00  0.00    +0.004 A 
ATOM     24  C   UNL     1       8.790   0.003  -5.489  0.00  0.00    +0.000 A 
ATOM     25  C   UNL     1       8.948  -1.109  -4.682  0.00  0.00    +0.004 A 
ATOM     26  C   UNL     1       8.301  -2.288  -4.996  0.00  0.00    +0.048 A 
ENDBRANCH  20  21
ENDBRANCH  17  20
ENDBRANCH   8  17
BRANCH   1  28
ATOM     27  C   UNL     1       0.216   0.083   1.150  0.00  0.00    +0.206 C 
ATOM     28  O   UNL     1       0.343  -1.327   0.952  0.00  0.00    -0.299 OA
ENDBRANCH   1  28
BRANCH   9  29
ATOM     29  S   UNL     1       7.202  -6.310  -4.827  0.00  0.00    -0.127 S 
ATOM     30  C   UNL     1       7.644  -7.791  -3.877  0.00  0.00    +0.090 C 
ENDBRANCH   9  29
TORSDOF 5
