REMARK  Name = ZINC21740521
REMARK  5 active torsions:
REMARK  status: ('A' for Active; 'I' for Inactive)
REMARK    1  A    between atoms: C_1  and  C_2
REMARK    2  A    between atoms: C_3  and  C_25
REMARK    3  A    between atoms: C_11  and  C_13
REMARK    4  A    between atoms: C_13  and  S_14
REMARK    5  A    between atoms: S_14  and  C_15
REMARK                            x       y       z     vdW  Elec       q    Type
REMARK                         _______ _______ _______ _____ _____    ______ ____
ROOT
ATOM      1  C   UNL     1      -0.018   1.503   0.010  0.00  0.00    +0.045 C 
ATOM      2  C   UNL     1       0.002  -0.004   0.002  0.00  0.00    -0.026 A 
ATOM      3  C   UNL     1       0.006  -0.677  -1.160  0.00  0.00    -0.008 A 
ATOM      4  S   UNL     1       0.032  -2.385  -0.648  0.00  0.00    -0.073 S 
ATOM      5  C   UNL     1       0.037  -2.144   1.110  0.00  0.00    +0.116 A 
ATOM      6  C   UNL     1       0.024  -0.745   1.250  0.00  0.00    +0.075 A 
ATOM      7  C   UNL     1       0.029  -0.257   2.597  0.00  0.00    +0.260 A 
ATOM      8  O   UNL     1       0.014   0.942   2.821  0.00  0.00    -0.267 OA
ATOM      9  N   UNL     1       0.051  -1.142   3.611  0.00  0.00    -0.310 N 
ATOM     10  H   UNL     1       0.054  -0.817   4.525  0.00  0.00    +0.170 HD
ATOM     11  C   UNL     1       0.067  -2.480   3.380  0.00  0.00    +0.121 A 
ATOM     12  N   UNL     1       0.053  -2.956   2.163  0.00  0.00    -0.226 NA
ATOM     13  C   UNL     1      -0.009  -0.122  -2.561  0.00  0.00    +0.052 C 
ENDROOT
BRANCH  11  14
ATOM     14  C   UNL     1       0.090  -3.432   4.547  0.00  0.00    +0.148 C 
BRANCH  14  15
ATOM     15  S   UNL     1       0.108  -5.139   3.935  0.00  0.00    -0.117 S 
BRANCH  15  16
ATOM     16  C   UNL     1       0.134  -6.118   5.400  0.00  0.00    +0.012 A 
ATOM     17  C   UNL     1       0.131  -5.504   6.646  0.00  0.00    +0.018 A 
ATOM     18  C   UNL     1       0.152  -6.271   7.795  0.00  0.00    +0.050 A 
ATOM     19  C   UNL     1       0.177  -7.655   7.708  0.00  0.00    +0.162 A 
ATOM     20  C   UNL     1       0.177  -8.273   6.463  0.00  0.00    +0.163 A 
ATOM     21  C   UNL     1       0.152  -7.503   5.310  0.00  0.00    +0.064 A 
ATOM     22  O   UNL     1       0.193  -9.630   6.359  0.00  0.00    -0.485 OA
ATOM     23  C   UNL     1       0.589 -10.360   7.524  0.00  0.00    +0.270 C 
ATOM     24  C   UNL     1      -0.153  -9.776   8.734  0.00  0.00    +0.270 C 
ATOM     25  O   UNL     1       0.202  -8.394   8.852  0.00  0.00    -0.485 OA
ENDBRANCH  15  16
ENDBRANCH  14  15
ENDBRANCH  11  14
TORSDOF 3
