REMARK  Name = ZINC01495293
REMARK  4 active torsions:
REMARK  status: ('A' for Active; 'I' for Inactive)
REMARK    1  A    between atoms: C_7  and  C_11
REMARK    2  A    between atoms: C_11  and  C_12
REMARK    3  A    between atoms: C_12  and  N_13
REMARK    4  A    between atoms: C_17  and  C_20
REMARK                            x       y       z     vdW  Elec       q    Type
REMARK                         _______ _______ _______ _____ _____    ______ ____
ROOT
ATOM      1  N   UNL     1       6.034  -0.904  -0.062  0.00  0.00    -0.313 N 
ATOM      2  C   UNL     1       4.824  -0.233  -0.047  0.00  0.00    +0.215 A 
ATOM      3  N   UNL     1       4.824   1.093  -0.039  0.00  0.00    -0.222 NA
ATOM      4  C   UNL     1       3.690   1.770  -0.024  0.00  0.00    +0.124 A 
ATOM      5  C   UNL     1       2.481   1.069  -0.016  0.00  0.00    +0.018 A 
ATOM      6  C   UNL     1       2.524  -0.327  -0.019  0.00  0.00    +0.124 A 
ATOM      7  N   UNL     1       3.699  -0.932  -0.040  0.00  0.00    -0.222 NA
ATOM      8  H   UNL     1       6.865  -0.406  -0.067  0.00  0.00    +0.149 HD
ENDROOT
BRANCH   5   9
ATOM      9  C   UNL     1       1.184   1.790   0.000  0.00  0.00    -0.015 A 
ATOM     10  C   UNL     1      -0.013   1.076   0.008  0.00  0.00    +0.010 A 
ATOM     11  C   UNL     1      -1.216   1.751   0.017  0.00  0.00    +0.020 A 
ATOM     12  C   UNL     1      -1.236   3.135   0.031  0.00  0.00    +0.041 A 
ATOM     13  C   UNL     1      -0.050   3.849   0.023  0.00  0.00    +0.020 A 
ATOM     14  C   UNL     1       1.158   3.183   0.008  0.00  0.00    +0.010 A 
ATOM     15 CL   UNL     1      -2.754   3.978   0.049  0.00  0.00    -0.084 Cl
ENDBRANCH   5   9
BRANCH   1  16
ATOM     16  C   UNL     1       6.058  -2.369  -0.071  0.00  0.00    +0.109 C 
BRANCH  16  17
ATOM     17  C   UNL     1       7.508  -2.856  -0.087  0.00  0.00    +0.056 C 
BRANCH  17  24
ATOM     18  C   UNL     1       7.231  -6.047  -3.509  0.00  0.00    +0.001 A 
ATOM     19  C   UNL     1       7.299  -7.351  -3.039  0.00  0.00    +0.002 A 
ATOM     20  C   UNL     1       7.434  -7.607  -1.692  0.00  0.00    +0.026 A 
ATOM     21  C   UNL     1       7.503  -6.548  -0.792  0.00  0.00    +0.047 A 
ATOM     22  C   UNL     1       7.434  -5.228  -1.273  0.00  0.00    +0.003 A 
ATOM     23  C   UNL     1       7.296  -4.993  -2.643  0.00  0.00    +0.010 A 
ATOM     24  C   UNL     1       7.533  -4.362  -0.096  0.00  0.00    -0.021 A 
ATOM     25  C   UNL     1       7.656  -5.165   0.973  0.00  0.00    +0.087 A 
ATOM     26  N   UNL     1       7.635  -6.475   0.577  0.00  0.00    -0.360 N 
ATOM     27  H   UNL     1       7.705  -7.238   1.172  0.00  0.00    +0.165 HD
ENDBRANCH  17  24
ENDBRANCH  16  17
ENDBRANCH   1  16
TORSDOF 4
