REMARK  Name = ZINC12604752
REMARK  6 active torsions:
REMARK  status: ('A' for Active; 'I' for Inactive)
REMARK    1  A    between atoms: C_1  and  N_56
REMARK    2  A    between atoms: C_2  and  C_3
REMARK    3  A    between atoms: C_2  and  N_56
REMARK    4  A    between atoms: N_5  and  C_6
REMARK    5  A    between atoms: C_20  and  C_25
REMARK    6  A    between atoms: C_26  and  C_27
REMARK                            x       y       z     vdW  Elec       q    Type
REMARK                         _______ _______ _______ _____ _____    ______ ____
ROOT
ATOM      1  C   UNL     1       7.149  12.243  -2.119  0.00  0.00    +0.077 C 
ATOM      2  C   UNL     1       5.780  12.708  -1.607  0.00  0.00    +0.041 C 
ATOM      3  C   UNL     1       5.426  11.888  -0.370  0.00  0.00    +0.111 C 
ATOM      4  N   UNL     1       5.525  10.454  -0.644  0.00  0.00    -0.286 N 
ATOM      5  C   UNL     1       6.468   9.882  -1.585  0.00  0.00    +0.164 C 
ATOM      6  C   UNL     1       7.008  10.829  -2.626  0.00  0.00    +0.054 C 
ATOM      7  C   UNL     1       7.558   9.168  -0.842  0.00  0.00    +0.238 C 
ATOM      8  O   UNL     1       8.700   9.569  -0.921  0.00  0.00    -0.273 OA
ATOM      9  N   UNL     1       7.285   8.097  -0.096  0.00  0.00    -0.283 N 
ATOM     10  C   UNL     1       6.049   7.477  -0.037  0.00  0.00    +0.046 A 
ATOM     11  C   UNL     1       6.054   6.076  -0.032  0.00  0.00    +0.024 A 
ATOM     12  C   UNL     1       4.881   5.364  -0.009  0.00  0.00    +0.010 A 
ATOM     13  C   UNL     1       3.654   6.039  -0.000  0.00  0.00    -0.024 A 
ATOM     14  C   UNL     1       3.634   7.428   0.007  0.00  0.00    +0.022 A 
ATOM     15  C   UNL     1       4.832   8.158  -0.001  0.00  0.00    +0.059 A 
ATOM     16  C   UNL     1       4.721   9.622   0.048  0.00  0.00    +0.249 C 
ATOM     17  O   UNL     1       3.856  10.109   0.751  0.00  0.00    -0.270 OA
ATOM     18  H   UNL     1       8.002   7.727   0.443  0.00  0.00    +0.155 HD
ENDROOT
BRANCH   1  21
ATOM     19  C   UNL     1       8.239  14.271  -2.918  0.00  0.00    +0.196 C 
ATOM     20  O   UNL     1       8.449  14.578  -1.764  0.00  0.00    -0.278 OA
ATOM     21  N   UNL     1       7.595  13.122  -3.203  0.00  0.00    -0.314 N 
ATOM     22  H   UNL     1       7.427  12.876  -4.127  0.00  0.00    +0.149 HD
BRANCH  19  23
ATOM     23  C   UNL     1       8.698  15.174  -4.034  0.00  0.00    +0.014 C 
BRANCH  23  25
ATOM     24  C   UNL     1       9.829  17.257  -4.527  0.00  0.00    -0.100 C 
ATOM     25  N   UNL     1       9.368  16.354  -3.456  0.00  0.00    +0.383 N 
ATOM     26  H   UNL     1       8.709  16.856  -2.850  0.00  0.00    -0.086 HD
ATOM     27  H   UNL     1      10.176  16.046  -2.901  0.00  0.00    -0.086 HD
ENDBRANCH  23  25
ENDBRANCH  19  23
ENDBRANCH   1  21
BRANCH  13  28
ATOM     28  C   UNL     1       2.391   5.279   0.007  0.00  0.00    +0.008 C 
ATOM     29  C   UNL     1       2.415   3.937   0.000  0.00  0.00    +0.008 C 
BRANCH  29  30
ATOM     30  C   UNL     1       1.152   3.177   0.008  0.00  0.00    -0.025 A 
ATOM     31  C   UNL     1       1.173   1.780   0.000  0.00  0.00    +0.008 A 
ATOM     32  C   UNL     1      -0.013   1.076   0.008  0.00  0.00    +0.001 A 
ATOM     33  C   UNL     1      -1.221   1.750   0.017  0.00  0.00    +0.000 A 
ATOM     34  C   UNL     1      -1.250   3.133   0.030  0.00  0.00    +0.001 A 
ATOM     35  C   UNL     1      -0.072   3.851   0.022  0.00  0.00    +0.008 A 
ENDBRANCH  29  30
ENDBRANCH  13  28
TORSDOF 5
