REMARK  Name = ZINC64845749
REMARK  7 active torsions:
REMARK  status: ('A' for Active; 'I' for Inactive)
REMARK    1  A    between atoms: C_1  and  C_2
REMARK    2  A    between atoms: C_3  and  C_24
REMARK    3  A    between atoms: C_6  and  C_7
REMARK    4  A    between atoms: C_8  and  C_23
REMARK    5  A    between atoms: C_10  and  C_22
REMARK    6  A    between atoms: C_11  and  S_12
REMARK    7  A    between atoms: S_12  and  N_15
REMARK                            x       y       z     vdW  Elec       q    Type
REMARK                         _______ _______ _______ _____ _____    ______ ____
ROOT
ATOM      1  C   UNL     1      -0.114  -0.223   2.613  0.00  0.00    +0.057 A 
ATOM      2  C   UNL     1      -0.182   1.111   2.893  0.00  0.00    -0.000 A 
ATOM      3  S   UNL     1       0.431   1.225   4.452  0.00  0.00    -0.096 S 
ATOM      4  C   UNL     1       0.784  -0.495   4.751  0.00  0.00    +0.014 A 
ATOM      5  C   UNL     1       0.392  -1.077   3.596  0.00  0.00    +0.126 A 
ATOM      6  C   UNL     1       1.368  -1.139   5.982  0.00  0.00    +0.053 C 
ATOM      7  C   UNL     1      -0.688   2.221   2.009  0.00  0.00    +0.052 C 
ENDROOT
BRANCH   1  13
ATOM      8  C   UNL     1      -3.071  -0.838   1.831  0.00  0.00    +0.049 C 
ATOM      9  C   UNL     1      -1.857  -1.022   0.958  0.00  0.00    +0.019 A 
ATOM     10  C   UNL     1      -1.854  -1.498  -0.359  0.00  0.00    +0.084 A 
ATOM     11  N   UNL     1      -0.621  -1.518  -0.785  0.00  0.00    -0.083 NA
ATOM     12  O   UNL     1       0.215  -1.051   0.258  0.00  0.00    -0.354 OA
ATOM     13  C   UNL     1      -0.569  -0.750   1.310  0.00  0.00    +0.173 A 
ATOM     14  C   UNL     1      -3.067  -1.915  -1.150  0.00  0.00    +0.069 C 
ENDBRANCH   1  13
BRANCH   5  15
ATOM     15  S   UNL     1       0.517  -2.816   3.342  0.00  0.00    +0.062 S 
ATOM     16  O   UNL     1       0.250  -3.430   4.595  0.00  0.00    -0.153 OA
ATOM     17  O   UNL     1      -0.237  -3.111   2.174  0.00  0.00    -0.153 OA
BRANCH  15  18
ATOM     18  N   UNL     1       2.099  -3.145   2.980  0.00  0.00    -0.177 NA
ATOM     19  C   UNL     1       2.530  -3.050   1.603  0.00  0.00    +0.109 C 
ATOM     20  C   UNL     1       2.328  -4.415   0.900  0.00  0.00    +0.017 C 
ATOM     21  C   UNL     1       3.307  -5.394   1.397  0.00  0.00    +0.001 C 
ATOM     22  C   UNL     1       3.179  -5.713   2.884  0.00  0.00    +0.001 C 
ATOM     23  C   UNL     1       3.942  -4.685   3.683  0.00  0.00    +0.017 C 
ATOM     24  C   UNL     1       3.013  -3.518   4.078  0.00  0.00    +0.109 C 
ENDBRANCH  15  18
ENDBRANCH   5  15
TORSDOF 3
