REMARK  Name = ZINC21345572
REMARK  4 active torsions:
REMARK  status: ('A' for Active; 'I' for Inactive)
REMARK    1  A    between atoms: C_6  and  C_7
REMARK    2  A    between atoms: C_7  and  N_8
REMARK    3  A    between atoms: N_10  and  C_11
REMARK    4  A    between atoms: C_13  and  C_18
REMARK                            x       y       z     vdW  Elec       q    Type
REMARK                         _______ _______ _______ _____ _____    ______ ____
ROOT
ATOM      1  N   UNL     1       4.878   3.934   0.738  0.00  0.00    -0.300 N 
ATOM      2  C   UNL     1       3.678   3.346   1.100  0.00  0.00    +0.158 C 
ATOM      3  N   UNL     1       3.378   2.121   0.732  0.00  0.00    -0.225 NA
ATOM      4  S   UNL     1       2.562   4.314   2.075  0.00  0.00    -0.090 S 
ATOM      5  C   UNL     1       2.657   5.867   1.151  0.00  0.00    +0.079 C 
ATOM      6  C   UNL     1       4.128   6.259   0.987  0.00  0.00    +0.037 C 
ATOM      7  C   UNL     1       4.845   5.250   0.090  0.00  0.00    +0.038 C 
ATOM      8  C   UNL     1       4.105   5.138  -1.245  0.00  0.00    +0.026 C 
ATOM      9  C   UNL     1       4.823   4.127  -2.141  0.00  0.00    +0.002 C 
ATOM     10  C   UNL     1       6.258   4.595  -2.392  0.00  0.00    +0.000 C 
ATOM     11  C   UNL     1       6.997   4.711  -1.058  0.00  0.00    +0.002 C 
ATOM     12  C   UNL     1       6.279   5.723  -0.163  0.00  0.00    +0.026 C 
ENDROOT
BRANCH   3  13
ATOM     13  C   UNL     1       2.183   1.567   1.106  0.00  0.00    +0.085 A 
ATOM     14  C   UNL     1       1.019   2.337   1.099  0.00  0.00    +0.041 A 
ATOM     15  C   UNL     1      -0.181   1.773   1.478  0.00  0.00    +0.057 A 
ATOM     16  C   UNL     1      -0.234   0.446   1.865  0.00  0.00    +0.014 A 
ATOM     17  C   UNL     1       0.915  -0.325   1.876  0.00  0.00    +0.022 A 
ATOM     18  C   UNL     1       2.123   0.227   1.499  0.00  0.00    +0.066 A 
ATOM     19 CL   UNL     1       3.564  -0.741   1.512  0.00  0.00    -0.081 Cl
BRANCH  15  20
ATOM     20  C   UNL     1      -1.440   2.602   1.464  0.00  0.00    +0.417 C 
ATOM     21  F   UNL     1      -2.520   1.816   1.878  0.00  0.00    -0.166 F 
ATOM     22  F   UNL     1      -1.292   3.688   2.333  0.00  0.00    -0.166 F 
ATOM     23  F   UNL     1      -1.675   3.071   0.167  0.00  0.00    -0.166 F 
ENDBRANCH  15  20
ENDBRANCH   3  13
BRANCH   1  24
ATOM     24  C   UNL     1       6.151   3.257   0.994  0.00  0.00    +0.142 C 
BRANCH  24  30
ATOM     25  C   UNL     1       6.522   3.545   3.453  0.00  0.00    +0.006 A 
ATOM     26  C   UNL     1       6.526   3.055   4.745  0.00  0.00    +0.020 A 
ATOM     27  C   UNL     1       6.177   1.738   4.987  0.00  0.00    +0.041 A 
ATOM     28  C   UNL     1       5.820   0.913   3.935  0.00  0.00    +0.020 A 
ATOM     29  C   UNL     1       5.812   1.405   2.644  0.00  0.00    +0.006 A 
ATOM     30  C   UNL     1       6.160   2.721   2.403  0.00  0.00    -0.030 A 
ATOM     31 CL   UNL     1       6.187   1.121   6.610  0.00  0.00    -0.084 Cl
ENDBRANCH  24  30
ENDBRANCH   1  24
TORSDOF 4
