REMARK  Name = ZINC02164065
REMARK  6 active torsions:
REMARK  status: ('A' for Active; 'I' for Inactive)
REMARK    1  A    between atoms: C_1  and  C_2
REMARK    2  A    between atoms: C_2  and  C_4
REMARK    3  A    between atoms: C_2  and  C_6
REMARK    4  A    between atoms: C_6  and  C_7
REMARK    5  A    between atoms: C_6  and  C_8
REMARK    6  A    between atoms: C_6  and  O_9
REMARK                            x       y       z     vdW  Elec       q    Type
REMARK                         _______ _______ _______ _____ _____    ______ ____
ROOT
ATOM      1  C   UNL     1      -2.131   1.438  -1.229  0.00  0.00    +0.066 C 
ATOM      2  C   UNL     1      -3.466   2.185  -1.219  0.00  0.00    +0.041 C 
ATOM      3  C   UNL     1      -1.340   1.825  -2.480  0.00  0.00    +0.041 C 
ENDROOT
BRANCH   1   5
ATOM      4  C   UNL     1      -2.119   1.424   1.269  0.00  0.00    +0.015 C 
ATOM      5  C   UNL     1      -1.328   1.812   0.018  0.00  0.00    +0.039 C 
BRANCH   5   6
ATOM      6  C   UNL     1      -0.013   1.076   0.008  0.00  0.00    -0.029 C 
ATOM      7  C   UNL     1       1.113   1.746   0.001  0.00  0.00    +0.004 C 
ENDBRANCH   5   6
ENDBRANCH   1   5
BRANCH   1   8
ATOM      8  O   UNL     1      -2.373   0.029  -1.236  0.00  0.00    -0.389 OA
ATOM      9  H   UNL     1      -2.871  -0.287  -0.470  0.00  0.00    +0.210 HD
ENDBRANCH   1   8
TORSDOF 3
