REMARK  Name = ZINC19831059
REMARK  7 active torsions:
REMARK  status: ('A' for Active; 'I' for Inactive)
REMARK    1  A    between atoms: C_4  and  C_7
REMARK    2  A    between atoms: C_7  and  C_8
REMARK    3  A    between atoms: C_7  and  N_14
REMARK    4  A    between atoms: N_17  and  C_20
REMARK    5  A    between atoms: N_25  and  C_28
REMARK    6  A    between atoms: C_31  and  O_34
REMARK    7  A    between atoms: O_34  and  C_35
REMARK                            x       y       z     vdW  Elec       q    Type
REMARK                         _______ _______ _______ _____ _____    ______ ____
ROOT
ATOM      1  N   UNL     1       2.863  -2.181  -1.027  0.00  0.00    -0.289 NA
ATOM      2  C   UNL     1       2.430  -1.874  -2.397  0.00  0.00    +0.100 C 
ATOM      3  C   UNL     1       2.559  -3.128  -3.264  0.00  0.00    +0.100 C 
ATOM      4  N   UNL     1       3.953  -3.591  -3.247  0.00  0.00    -0.289 NA
ATOM      5  C   UNL     1       4.386  -3.899  -1.877  0.00  0.00    +0.100 C 
ATOM      6  C   UNL     1       4.258  -2.644  -1.010  0.00  0.00    +0.100 C 
ENDROOT
BRANCH   4   7
ATOM      7  C   UNL     1       4.134  -4.752  -4.129  0.00  0.00    +0.153 C 
ATOM      8  C   UNL     1       5.610  -5.197  -4.146  0.00  0.00    +0.125 C 
ATOM      9  C   UNL     1       6.017  -5.024  -5.593  0.00  0.00    +0.228 C 
ATOM     10  O   UNL     1       7.114  -5.265  -6.048  0.00  0.00    -0.275 OA
ATOM     11  N   UNL     1       4.972  -4.564  -6.292  0.00  0.00    -0.209 N 
ATOM     12  C   UNL     1       3.857  -4.375  -5.568  0.00  0.00    +0.244 C 
ATOM     13  O   UNL     1       2.798  -3.969  -5.996  0.00  0.00    -0.273 OA
BRANCH  11  14
ATOM     14  C   UNL     1       5.035  -4.301  -7.669  0.00  0.00    +0.044 A 
ATOM     15  C   UNL     1       5.190  -5.347  -8.569  0.00  0.00    +0.027 A 
ATOM     16  C   UNL     1       5.252  -5.088  -9.924  0.00  0.00    +0.048 A 
ATOM     17  C   UNL     1       5.160  -3.783 -10.386  0.00  0.00    +0.129 A 
ATOM     18  C   UNL     1       5.006  -2.737  -9.486  0.00  0.00    +0.048 A 
ATOM     19  C   UNL     1       4.938  -2.996  -8.132  0.00  0.00    +0.027 A 
BRANCH  17  20
ATOM     20  O   UNL     1       5.221  -3.528 -11.720  0.00  0.00    -0.420 OA
BRANCH  20  21
ATOM     21  C   UNL     1       5.120  -2.162 -12.125  0.00  0.00    +0.489 C 
ATOM     22  F   UNL     1       3.895  -1.639 -11.698  0.00  0.00    -0.149 F 
ATOM     23  F   UNL     1       6.165  -1.427 -11.553  0.00  0.00    -0.149 F 
ATOM     24 CL   UNL     1       5.225  -2.058 -13.922  0.00  0.00    +0.000 Cl
ENDBRANCH  20  21
ENDBRANCH  17  20
ENDBRANCH  11  14
ENDBRANCH   4   7
BRANCH   1  25
ATOM     25  C   UNL     1       2.683  -1.020  -0.145  0.00  0.00    +0.117 C 
BRANCH  25  29
ATOM     26  C   UNL     1      -1.396   0.242  -0.271  0.00  0.00    +0.000 A 
ATOM     27  C   UNL     1      -0.382   1.182  -0.242  0.00  0.00    +0.000 A 
ATOM     28  C   UNL     1       0.938   0.773  -0.201  0.00  0.00    +0.005 A 
ATOM     29  C   UNL     1       1.244  -0.575  -0.189  0.00  0.00    -0.026 A 
ATOM     30  C   UNL     1       0.230  -1.514  -0.216  0.00  0.00    +0.005 A 
ATOM     31  C   UNL     1      -1.090  -1.106  -0.259  0.00  0.00    +0.000 A 
ENDBRANCH  25  29
BRANCH  25  32
ATOM     32  C   UNL     1       3.048  -1.401   1.267  0.00  0.00    -0.026 A 
ATOM     33  C   UNL     1       2.691  -2.640   1.763  0.00  0.00    +0.005 A 
ATOM     34  C   UNL     1       3.026  -2.989   3.058  0.00  0.00    +0.000 A 
ATOM     35  C   UNL     1       3.719  -2.099   3.856  0.00  0.00    +0.000 A 
ATOM     36  C   UNL     1       4.077  -0.859   3.360  0.00  0.00    +0.000 A 
ATOM     37  C   UNL     1       3.746  -0.512   2.063  0.00  0.00    +0.005 A 
ENDBRANCH  25  32
ENDBRANCH   1  25
TORSDOF 7
