REMARK  Name = ZINC09332957
REMARK  8 active torsions:
REMARK  status: ('A' for Active; 'I' for Inactive)
REMARK    1  A    between atoms: C_1  and  C_2
REMARK    2  A    between atoms: C_2  and  C_26
REMARK    3  A    between atoms: N_3  and  N_4
REMARK    4  A    between atoms: C_5  and  C_7
REMARK    5  A    between atoms: C_8  and  C_18
REMARK    6  A    between atoms: C_18  and  S_19
REMARK    7  A    between atoms: S_19  and  C_20
REMARK    8  A    between atoms: C_29  and  C_32
REMARK                            x       y       z     vdW  Elec       q    Type
REMARK                         _______ _______ _______ _____ _____    ______ ____
ROOT
ATOM      1  C   UNL     1      10.977  -1.023  -0.097  0.00  0.00    +0.173 A 
ATOM      2  C   UNL     1      12.213  -0.442  -0.105  0.00  0.00    +0.089 A 
ATOM      3  N   UNL     1      13.117  -1.446  -0.117  0.00  0.00    -0.191 N 
ATOM      4  N   UNL     1      12.389  -2.645  -0.117  0.00  0.00    -0.058 NA
ATOM      5  N   UNL     1      11.134  -2.358  -0.099  0.00  0.00    -0.124 NA
ATOM      6  C   UNL     1      14.510  -1.315  -0.129  0.00  0.00    +0.240 A 
ATOM      7  C   UNL     1      15.475  -2.418  -0.142  0.00  0.00    +0.206 A 
ATOM      8  N   UNL     1      16.677  -1.911  -0.150  0.00  0.00    -0.032 NA
ATOM      9  O   UNL     1      16.553  -0.500  -0.143  0.00  0.00    -0.239 OA
ATOM     10  N   UNL     1      15.170  -0.192  -0.135  0.00  0.00    -0.027 NA
ATOM     11  N   UNL     1      15.163  -3.773  -0.145  0.00  0.00    -0.337 N 
ATOM     12  H   UNL     1      14.236  -4.057  -0.139  0.00  0.00    +0.144 HD
ATOM     13  H   UNL     1      15.873  -4.434  -0.154  0.00  0.00    +0.144 HD
ENDROOT
BRANCH   1  15
ATOM     14  N   UNL     1       8.532  -1.001  -0.077  0.00  0.00    -0.201 N 
ATOM     15  C   UNL     1       9.687  -0.308  -0.083  0.00  0.00    +0.285 C 
ATOM     16  O   UNL     1       9.667   0.908  -0.077  0.00  0.00    -0.267 OA
ATOM     17  H   UNL     1       8.548  -1.971  -0.081  0.00  0.00    +0.178 HD
BRANCH  14  20
ATOM     18  C   UNL     1       6.219  -2.496  -0.064  0.00  0.00    +0.068 C 
ATOM     19  C   UNL     1       6.194  -0.990  -0.057  0.00  0.00    +0.063 C 
ATOM     20  N   UNL     1       7.307  -0.321  -0.063  0.00  0.00    -0.184 NA
BRANCH  19  21
ATOM     21  C   UNL     1       4.905  -0.275  -0.043  0.00  0.00    -0.002 A 
ATOM     22  C   UNL     1       4.881   1.123  -0.036  0.00  0.00    +0.010 A 
ATOM     23  C   UNL     1       3.676   1.790  -0.022  0.00  0.00    +0.009 A 
ATOM     24  C   UNL     1       2.481   1.071  -0.015  0.00  0.00    -0.018 A 
ATOM     25  C   UNL     1       2.503  -0.324  -0.016  0.00  0.00    +0.009 A 
ATOM     26  C   UNL     1       3.706  -0.993  -0.036  0.00  0.00    +0.010 A 
BRANCH  24  27
ATOM     27  C   UNL     1       1.184   1.790   0.000  0.00  0.00    -0.018 A 
ATOM     28  C   UNL     1      -0.013   1.076   0.008  0.00  0.00    +0.008 A 
ATOM     29  C   UNL     1      -1.216   1.751   0.017  0.00  0.00    +0.001 A 
ATOM     30  C   UNL     1      -1.236   3.134   0.029  0.00  0.00    +0.000 A 
ATOM     31  C   UNL     1      -0.052   3.849   0.022  0.00  0.00    +0.001 A 
ATOM     32  C   UNL     1       1.158   3.184   0.008  0.00  0.00    +0.008 A 
ENDBRANCH  24  27
ENDBRANCH  19  21
ENDBRANCH  14  20
ENDBRANCH   1  15
BRANCH   2  33
ATOM     33  C   UNL     1      12.511   1.036  -0.101  0.00  0.00    +0.132 C 
BRANCH  33  34
ATOM     34  S   UNL     1      12.616   1.636  -1.810  0.00  0.00    -0.119 S 
BRANCH  34  35
ATOM     35  C   UNL     1      12.964   3.354  -1.638  0.00  0.00    +0.008 A 
ATOM     36  C   UNL     1      13.084   3.917  -0.373  0.00  0.00    +0.015 A 
ATOM     37  C   UNL     1      13.363   5.263  -0.241  0.00  0.00    +0.001 A 
ATOM     38  C   UNL     1      13.511   6.053  -1.367  0.00  0.00    +0.000 A 
ATOM     39  C   UNL     1      13.387   5.498  -2.627  0.00  0.00    +0.001 A 
ATOM     40  C   UNL     1      13.114   4.151  -2.766  0.00  0.00    +0.015 A 
ENDBRANCH  34  35
ENDBRANCH  33  34
ENDBRANCH   2  33
TORSDOF 7
