REMARK  Name = ZINC25134779
REMARK  7 active torsions:
REMARK  status: ('A' for Active; 'I' for Inactive)
REMARK    1  A    between atoms: C_4  and  C_7
REMARK    2  A    between atoms: C_7  and  C_9
REMARK    3  A    between atoms: C_7  and  N_16
REMARK    4  A    between atoms: C_17  and  C_19
REMARK    5  A    between atoms: C_19  and  C_20
REMARK    6  A    between atoms: C_23  and  S_25
REMARK    7  A    between atoms: S_25  and  N_28
REMARK                            x       y       z     vdW  Elec       q    Type
REMARK                         _______ _______ _______ _____ _____    ______ ____
ROOT
ATOM      1  N   UNL     1       5.511  -0.958  -1.722  0.00  0.00    -0.304 N 
ATOM      2  C   UNL     1       4.255  -0.545  -1.462  0.00  0.00    +0.219 C 
ATOM      3  O   UNL     1       3.498  -0.294  -2.375  0.00  0.00    -0.275 OA
ATOM      4  H   UNL     1       6.198  -1.185  -0.893  0.00  0.00    +0.150 HD
ENDROOT
BRANCH   1   5
ATOM      5  C   UNL     1       5.962  -1.103  -3.108  0.00  0.00    +0.134 C 
BRANCH   5   6
ATOM      6  C   UNL     1       7.087  -2.105  -3.168  0.00  0.00    -0.023 A 
ATOM      7  C   UNL     1       8.058  -2.113  -2.184  0.00  0.00    +0.007 A 
ATOM      8  C   UNL     1       9.086  -3.036  -2.236  0.00  0.00    +0.020 A 
ATOM      9  C   UNL     1       9.149  -3.943  -3.278  0.00  0.00    +0.041 A 
ATOM     10  C   UNL     1       8.180  -3.931  -4.265  0.00  0.00    +0.020 A 
ATOM     11  C   UNL     1       7.149  -3.012  -4.210  0.00  0.00    +0.007 A 
ATOM     12 CL   UNL     1      10.445  -5.097  -3.348  0.00  0.00    -0.084 Cl
ENDBRANCH   5   6
BRANCH   5  16
ATOM     13  C   UNL     1       7.338   2.671  -4.561  0.00  0.00    +0.000 A 
ATOM     14  C   UNL     1       6.601   1.840  -5.385  0.00  0.00    +0.000 A 
ATOM     15  C   UNL     1       6.156   0.619  -4.914  0.00  0.00    +0.006 A 
ATOM     16  C   UNL     1       6.448   0.228  -3.621  0.00  0.00    -0.023 A 
ATOM     17  C   UNL     1       7.181   1.061  -2.796  0.00  0.00    +0.006 A 
ATOM     18  C   UNL     1       7.630   2.280  -3.268  0.00  0.00    +0.000 A 
ENDBRANCH   5  16
ENDBRANCH   1   5
BRANCH   2  19
ATOM     19  C   UNL     1       3.791  -0.395  -0.036  0.00  0.00    +0.138 C 
BRANCH  19  20
ATOM     20  C   UNL     1       2.360   0.076  -0.020  0.00  0.00    +0.000 A 
ATOM     21  C   UNL     1       1.220  -0.658  -0.013  0.00  0.00    +0.013 A 
ATOM     22  C   UNL     1       0.002  -0.004   0.002  0.00  0.00    +0.036 A 
ATOM     23  C   UNL     1      -0.016   1.351   0.009  0.00  0.00    +0.142 A 
ATOM     24  S   UNL     1       1.725   1.744  -0.005  0.00  0.00    -0.073 S 
BRANCH  23  25
ATOM     25  S   UNL     1      -1.400   2.442   0.022  0.00  0.00    +0.062 S 
ATOM     26  O   UNL     1      -0.951   3.675  -0.524  0.00  0.00    -0.153 OA
ATOM     27  O   UNL     1      -2.493   1.719  -0.527  0.00  0.00    -0.153 OA
BRANCH  25  28
ATOM     28  N   UNL     1      -1.776   2.737   1.608  0.00  0.00    -0.203 NA
ATOM     29  H   UNL     1      -2.639   3.417   1.659  0.00  0.00    +0.144 HD
ATOM     30  H   UNL     1      -0.914   3.200   2.110  0.00  0.00    +0.144 HD
ENDBRANCH  25  28
ENDBRANCH  23  25
ENDBRANCH  19  20
ENDBRANCH   2  19
TORSDOF 7
