REMARK  Name = ZINC65739637
REMARK  8 active torsions:
REMARK  status: ('A' for Active; 'I' for Inactive)
REMARK    1  A    between atoms: C_9  and  C_12
REMARK    2  A    between atoms: C_12  and  C_14
REMARK    3  A    between atoms: C_12  and  O_32
REMARK    4  A    between atoms: C_14  and  N_15
REMARK    5  A    between atoms: N_15  and  C_16
REMARK    6  A    between atoms: C_16  and  C_17
REMARK    7  A    between atoms: C_17  and  C_19
REMARK    8  A    between atoms: C_17  and  O_31
REMARK                            x       y       z     vdW  Elec       q    Type
REMARK                         _______ _______ _______ _____ _____    ______ ____
ROOT
ATOM      1  N   UNL     1       7.400  -2.386  -0.585  0.00  0.00    +0.383 N 
ATOM      2  H   UNL     1       7.600  -2.437   0.402  0.00  0.00    -0.086 HD
ATOM      3  H   UNL     1       7.386  -3.318  -0.974  0.00  0.00    -0.086 HD
ENDROOT
BRANCH   1   4
ATOM      4  C   UNL     1       6.092  -1.751  -0.789  0.00  0.00    -0.047 C 
BRANCH   4   5
ATOM      5  C   UNL     1       5.009  -2.578  -0.091  0.00  0.00    +0.138 C 
BRANCH   5  14
ATOM      6  C   UNL     1      -0.017   1.377   0.010  0.00  0.00    +0.000 A 
ATOM      7  C   UNL     1       1.172   2.084   0.002  0.00  0.00    +0.004 A 
ATOM      8  C   UNL     1       2.375   1.409  -0.011  0.00  0.00    +0.046 A 
ATOM      9  C   UNL     1       2.398   0.018  -0.018  0.00  0.00    +0.124 A 
ATOM     10  C   UNL     1       1.207  -0.687  -0.014  0.00  0.00    -0.006 A 
ATOM     11  C   UNL     1       0.002  -0.004   0.002  0.00  0.00    +0.007 A 
ATOM     12  C   UNL     1       1.187  -2.194  -0.033  0.00  0.00    +0.042 C 
ATOM     13  C   UNL     1       2.556  -2.734   0.389  0.00  0.00    +0.052 C 
ATOM     14  C   UNL     1       3.634  -1.986  -0.407  0.00  0.00    +0.200 C 
ATOM     15  O   UNL     1       3.602  -0.610  -0.025  0.00  0.00    -0.486 OA
ENDBRANCH   5  14
BRANCH   5  16
ATOM     16  O   UNL     1       5.227  -2.552   1.321  0.00  0.00    -0.390 OA
ATOM     17  H   UNL     1       5.202  -1.666   1.706  0.00  0.00    +0.210 HD
ENDBRANCH   5  16
ENDBRANCH   4   5
ENDBRANCH   1   4
BRANCH   1  18
ATOM     18  C   UNL     1       8.440  -1.593  -1.255  0.00  0.00    -0.047 C 
BRANCH  18  19
ATOM     19  C   UNL     1       9.803  -2.255  -1.043  0.00  0.00    +0.138 C 
BRANCH  19  20
ATOM     20  C   UNL     1      10.885  -1.428  -1.740  0.00  0.00    +0.200 C 
ATOM     21  C   UNL     1      12.267  -2.009  -1.417  0.00  0.00    +0.052 C 
ATOM     22  C   UNL     1      13.315  -1.230  -2.216  0.00  0.00    +0.042 C 
ATOM     23  C   UNL     1      13.080   0.251  -2.054  0.00  0.00    -0.003 A 
ATOM     24  C   UNL     1      14.106   1.127  -2.369  0.00  0.00    +0.045 A 
ATOM     25  C   UNL     1      13.924   2.491  -2.236  0.00  0.00    +0.124 A 
ATOM     26  C   UNL     1      12.711   2.986  -1.785  0.00  0.00    +0.042 A 
ATOM     27  C   UNL     1      11.688   2.116  -1.469  0.00  0.00    +0.049 A 
ATOM     28  C   UNL     1      11.869   0.743  -1.600  0.00  0.00    +0.124 A 
ATOM     29  O   UNL     1      10.840  -0.081  -1.269  0.00  0.00    -0.486 OA
ATOM     30  F   UNL     1      14.928   3.340  -2.544  0.00  0.00    -0.205 F 
ENDBRANCH  19  20
BRANCH  19  31
ATOM     31  O   UNL     1      10.085  -2.326   0.356  0.00  0.00    -0.390 OA
ATOM     32  H   UNL     1      10.114  -1.465   0.796  0.00  0.00    +0.210 HD
ENDBRANCH  19  31
ENDBRANCH  18  19
ENDBRANCH   1  18
TORSDOF 8
