REMARK  Name = ZINC60060663
REMARK  4 active torsions:
REMARK  status: ('A' for Active; 'I' for Inactive)
REMARK    1  A    between atoms: C_8  and  C_11
REMARK    2  A    between atoms: N_13  and  C_14
REMARK    3  A    between atoms: N_13  and  C_21
REMARK    4  A    between atoms: C_14  and  C_15
REMARK                            x       y       z     vdW  Elec       q    Type
REMARK                         _______ _______ _______ _____ _____    ______ ____
ROOT
ATOM      1  C   UNL     1      -1.102  -3.524   0.129  0.00  0.00    +0.263 C 
ATOM      2  O   UNL     1      -2.309  -3.582   0.269  0.00  0.00    -0.268 OA
ATOM      3  N   UNL     1      -0.398  -4.646  -0.123  0.00  0.00    -0.289 N 
ENDROOT
BRANCH   1  11
ATOM      4  C   UNL     1      -0.027   1.361   0.541  0.00  0.00    +0.011 A 
ATOM      5  C   UNL     1       1.145   2.057   0.592  0.00  0.00    +0.016 A 
ATOM      6  C   UNL     1       2.365   1.394   0.526  0.00  0.00    +0.020 A 
ATOM      7  C   UNL     1       2.413   0.022   0.409  0.00  0.00    +0.041 A 
ATOM      8  C   UNL     1       1.230  -0.709   0.355  0.00  0.00    +0.048 A 
ATOM      9  C   UNL     1      -0.005  -0.035   0.422  0.00  0.00    +0.000 A 
ATOM     10  C   UNL     1      -1.018  -1.020   0.344  0.00  0.00    +0.040 A 
ATOM     11  C   UNL     1      -0.411  -2.231   0.236  0.00  0.00    +0.103 A 
ATOM     12  N   UNL     1       0.959  -2.053   0.242  0.00  0.00    -0.351 N 
ATOM     13  H   UNL     1       1.621  -2.759   0.177  0.00  0.00    +0.166 HD
ATOM     14 BR   UNL     1       3.974   2.385   0.599  0.00  0.00    -0.050 Br
ENDBRANCH   1  11
BRANCH   3  15
ATOM     15  C   UNL     1       1.066  -4.603  -0.136  0.00  0.00    +0.099 C 
ATOM     16  C   UNL     1       1.583  -4.069   1.210  0.00  0.00    +0.046 C 
ATOM     17  C   UNL     1       3.086  -3.720   1.098  0.00  0.00    +0.168 C 
ATOM     18  S   UNL     1       3.271  -3.297  -0.683  0.00  0.00    -0.029 S 
ATOM     19  O   UNL     1       3.527  -1.905  -0.803  0.00  0.00    -0.174 OA
ATOM     20  O   UNL     1       4.158  -4.227  -1.289  0.00  0.00    -0.174 OA
ATOM     21  C   UNL     1       1.554  -3.642  -1.257  0.00  0.00    +0.188 C 
ENDBRANCH   3  15
BRANCH   3  22
ATOM     22  C   UNL     1      -1.097  -5.906  -0.383  0.00  0.00    +0.140 C 
BRANCH  22  23
ATOM     23  C   UNL     1      -1.362  -6.042  -1.884  0.00  0.00    +0.136 C 
ATOM     24  C   UNL     1      -2.203  -7.308  -2.155  0.00  0.00    +0.035 C 
ATOM     25  C   UNL     1      -1.565  -7.854  -3.461  0.00  0.00    +0.031 C 
ATOM     26  C   UNL     1      -0.081  -7.461  -3.251  0.00  0.00    +0.160 C 
ATOM     27  O   UNL     1      -0.121  -6.186  -2.585  0.00  0.00    -0.375 OA
ENDBRANCH  22  23
ENDBRANCH   3  22
TORSDOF 4
