REMARK  Name = ZINC36612783
REMARK  9 active torsions:
REMARK  status: ('A' for Active; 'I' for Inactive)
REMARK    1  A    between atoms: C_1  and  C_2
REMARK    2  A    between atoms: C_2  and  O_4
REMARK    3  A    between atoms: O_4  and  C_5
REMARK    4  A    between atoms: C_9  and  C_37
REMARK    5  A    between atoms: C_21  and  C_36
REMARK    6  A    between atoms: N_27  and  N_28
REMARK    7  A    between atoms: C_29  and  C_31
REMARK    8  A    between atoms: C_31  and  C_32
REMARK    9  A    between atoms: C_32  and  C_33
REMARK                            x       y       z     vdW  Elec       q    Type
REMARK                         _______ _______ _______ _____ _____    ______ ____
ROOT
ATOM      1  C   UNL     1      -1.057  -2.118   0.001  0.00  0.00    +0.177 C 
ATOM      2  C   UNL     1      -1.026  -2.623  -1.439  0.00  0.00    +0.045 C 
ATOM      3  C   UNL     1      -2.336  -2.318  -2.158  0.00  0.00    +0.011 C 
ATOM      4  C   UNL     1      -3.528  -2.940  -1.412  0.00  0.00    -0.026 C 
ATOM      5  C   UNL     1      -3.538  -2.366   0.009  0.00  0.00    -0.001 C 
ATOM      6  C   UNL     1      -2.251  -2.714   0.747  0.00  0.00    +0.048 C 
ATOM      7  C   UNL     1      -4.759  -2.876   0.770  0.00  0.00    +0.004 C 
ATOM      8  C   UNL     1      -6.016  -2.334   0.083  0.00  0.00    +0.004 C 
ATOM      9  C   UNL     1      -6.087  -2.836  -1.358  0.00  0.00    -0.003 C 
ATOM     10  C   UNL     1      -4.814  -2.542  -2.122  0.00  0.00    -0.001 C 
ATOM     11  C   UNL     1      -4.892  -3.044  -3.554  0.00  0.00    +0.005 C 
ATOM     12  C   UNL     1      -5.377  -4.473  -3.682  0.00  0.00    +0.013 C 
ATOM     13  C   UNL     1      -6.585  -4.807  -2.846  0.00  0.00    +0.011 C 
ATOM     14  C   UNL     1      -6.504  -4.301  -1.397  0.00  0.00    +0.004 C 
ATOM     15  C   UNL     1      -7.998  -4.357  -0.955  0.00  0.00    +0.010 C 
ATOM     16  C   UNL     1      -8.790  -4.005  -2.230  0.00  0.00    +0.053 C 
ATOM     17  C   UNL     1      -7.860  -4.223  -3.408  0.00  0.00    +0.043 C 
ATOM     18  N   UNL     1      -8.108  -3.966  -4.637  0.00  0.00    -0.189 NA
ATOM     19  C   UNL     1      -6.735  -6.334  -2.815  0.00  0.00    +0.018 C 
ATOM     20  C   UNL     1      -3.343  -4.453  -1.366  0.00  0.00    +0.012 C 
ENDROOT
BRANCH  18  21
ATOM     21  N   UNL     1      -9.347  -3.423  -5.003  0.00  0.00    -0.207 N 
ATOM     22  C   UNL     1      -9.609  -3.152  -6.297  0.00  0.00    +0.233 C 
ATOM     23  O   UNL     1      -8.772  -3.379  -7.145  0.00  0.00    -0.274 OA
ATOM     24  H   UNL     1     -10.016  -3.241  -4.324  0.00  0.00    +0.177 HD
BRANCH  22  25
ATOM     25  C   UNL     1     -10.941  -2.567  -6.690  0.00  0.00    +0.109 C 
BRANCH  25  26
ATOM     26  C   UNL     1     -10.979  -2.358  -8.205  0.00  0.00    +0.134 C 
BRANCH  26  27
ATOM     27  C   UNL     1     -12.311  -1.774  -8.598  0.00  0.00    +0.356 C 
ATOM     28  O   UNL     1     -13.152  -1.545  -7.745  0.00  0.00    -0.246 OA
ATOM     29  O   UNL     1     -12.548  -1.529  -9.768  0.00  0.00    -0.246 OA
ENDBRANCH  26  27
ENDBRANCH  25  26
ENDBRANCH  22  25
ENDBRANCH  18  21
BRANCH   1  30
ATOM     30  O   UNL     1      -1.151  -0.691   0.009  0.00  0.00    -0.462 OA
BRANCH  30  32
ATOM     31  C   UNL     1      -0.018   1.503   0.010  0.00  0.00    +0.136 C 
ATOM     32  C   UNL     1       0.002  -0.004   0.002  0.00  0.00    +0.304 C 
ATOM     33  O   UNL     1       1.056  -0.594  -0.011  0.00  0.00    -0.251 OA
ENDBRANCH  30  32
ENDBRANCH   1  30
TORSDOF 6
