REMARK  Name = ZINC18342797
REMARK  10 active torsions:
REMARK  status: ('A' for Active; 'I' for Inactive)
REMARK    1  A    between atoms: C_1  and  C_2
REMARK    2  A    between atoms: C_2  and  C_3
REMARK    3  A    between atoms: C_3  and  C_5
REMARK    4  A    between atoms: C_3  and  C_6
REMARK    5  A    between atoms: C_6  and  C_7
REMARK    6  A    between atoms: C_8  and  C_31
REMARK    7  A    between atoms: C_16  and  S_18
REMARK    8  A    between atoms: S_18  and  C_19
REMARK    9  A    between atoms: C_19  and  C_20
REMARK   10  A    between atoms: C_28  and  N_30
REMARK                            x       y       z     vdW  Elec       q    Type
REMARK                         _______ _______ _______ _____ _____    ______ ____
ROOT
ATOM      1  C   UNL     1      -6.931  -3.889  -0.465  0.00  0.00    -0.023 A 
ATOM      2  C   UNL     1      -7.148  -4.025   0.851  0.00  0.00    -0.007 A 
ATOM      3  S   UNL     1      -5.729  -3.237   1.588  0.00  0.00    -0.073 S 
ATOM      4  C   UNL     1      -4.885  -2.747   0.106  0.00  0.00    +0.117 A 
ATOM      5  C   UNL     1      -5.731  -3.209  -0.920  0.00  0.00    +0.075 A 
ATOM      6  C   UNL     1      -5.290  -2.947  -2.256  0.00  0.00    +0.261 A 
ATOM      7  O   UNL     1      -5.957  -3.311  -3.209  0.00  0.00    -0.267 OA
ATOM      8  N   UNL     1      -4.131  -2.289  -2.446  0.00  0.00    -0.301 N 
ATOM      9  H   UNL     1      -3.831  -2.106  -3.350  0.00  0.00    +0.171 HD
ATOM     10  C   UNL     1      -3.368  -1.879  -1.391  0.00  0.00    +0.170 A 
ATOM     11  N   UNL     1      -3.751  -2.107  -0.151  0.00  0.00    -0.216 NA
ATOM     12  C   UNL     1      -8.312  -4.686   1.542  0.00  0.00    +0.052 C 
ENDROOT
BRANCH   1  13
ATOM     13  C   UNL     1      -7.922  -4.434  -1.461  0.00  0.00    +0.040 C 
BRANCH  13  14
ATOM     14  C   UNL     1      -8.964  -3.361  -1.784  0.00  0.00    -0.010 C 
ATOM     15  C   UNL     1      -9.781  -3.050  -0.529  0.00  0.00    +0.008 C 
BRANCH  14  17
ATOM     16  C   UNL     1     -10.857  -2.754  -3.297  0.00  0.00    +0.004 C 
ATOM     17  C   UNL     1      -9.895  -3.870  -2.886  0.00  0.00    +0.000 C 
ENDBRANCH  14  17
ENDBRANCH  13  14
ENDBRANCH   1  13
BRANCH  10  18
ATOM     18  S   UNL     1      -1.855  -1.027  -1.692  0.00  0.00    -0.080 S 
BRANCH  18  19
ATOM     19  C   UNL     1      -1.312  -0.741   0.011  0.00  0.00    +0.153 C 
BRANCH  19  20
ATOM     20  C   UNL     1       0.002  -0.004   0.002  0.00  0.00    +0.142 A 
ATOM     21  N   UNL     1       1.112  -0.703  -0.012  0.00  0.00    -0.231 NA
ATOM     22  C   UNL     1       2.304  -0.087  -0.021  0.00  0.00    +0.076 A 
ATOM     23  C   UNL     1       3.509  -0.802  -0.037  0.00  0.00    +0.028 A 
ATOM     24  C   UNL     1       4.692  -0.125  -0.045  0.00  0.00    +0.002 A 
ATOM     25  C   UNL     1       4.723   1.266  -0.039  0.00  0.00    +0.001 A 
ATOM     26  C   UNL     1       3.569   1.993  -0.023  0.00  0.00    +0.013 A 
ATOM     27  C   UNL     1       2.337   1.329  -0.013  0.00  0.00    +0.040 A 
ATOM     28  C   UNL     1       1.106   2.027   0.002  0.00  0.00    +0.127 A 
ATOM     29  N   UNL     1      -0.016   1.319   0.009  0.00  0.00    -0.216 NA
BRANCH  28  30
ATOM     30  N   UNL     1       1.073   3.405   0.010  0.00  0.00    -0.343 N 
ATOM     31  H   UNL     1       0.222   3.870   0.020  0.00  0.00    +0.144 HD
ATOM     32  H   UNL     1       1.901   3.910   0.004  0.00  0.00    +0.144 HD
ENDBRANCH  28  30
ENDBRANCH  19  20
ENDBRANCH  18  19
ENDBRANCH  10  18
TORSDOF 7
