REMARK  Name = ZINC34756080
REMARK  7 active torsions:
REMARK  status: ('A' for Active; 'I' for Inactive)
REMARK    1  A    between atoms: C_1  and  C_2
REMARK    2  A    between atoms: C_2  and  C_4
REMARK    3  A    between atoms: C_4  and  S_5
REMARK    4  A    between atoms: S_5  and  C_6
REMARK    5  A    between atoms: N_22  and  C_25
REMARK    6  A    between atoms: C_25  and  C_26
REMARK    7  A    between atoms: C_26  and  C_27
REMARK                            x       y       z     vdW  Elec       q    Type
REMARK                         _______ _______ _______ _____ _____    ______ ____
ROOT
ATOM      1  C   UNL     1      -3.516  -1.636   1.513  0.00  0.00    +0.191 A 
ATOM      2  N   UNL     1      -4.304  -1.784   2.571  0.00  0.00    -0.206 NA
ATOM      3  C   UNL     1      -5.425  -2.484   2.521  0.00  0.00    +0.134 A 
ATOM      4  C   UNL     1      -5.804  -3.102   1.296  0.00  0.00    +0.051 A 
ATOM      5  C   UNL     1      -6.987  -3.917   1.010  0.00  0.00    -0.025 A 
ATOM      6  C   UNL     1      -7.114  -4.391  -0.246  0.00  0.00    -0.004 A 
ATOM      7  S   UNL     1      -5.689  -3.791  -1.113  0.00  0.00    -0.073 S 
ATOM      8  C   UNL     1      -4.921  -2.903   0.216  0.00  0.00    +0.115 A 
ATOM      9  N   UNL     1      -3.822  -2.185   0.345  0.00  0.00    -0.215 NA
ATOM     10  C   UNL     1      -8.223  -5.241  -0.787  0.00  0.00    +0.043 C 
ATOM     11  C   UNL     1      -9.017  -5.813   0.396  0.00  0.00    +0.005 C 
ATOM     12  C   UNL     1      -9.325  -4.676   1.375  0.00  0.00    +0.005 C 
ATOM     13  C   UNL     1      -8.039  -4.228   2.071  0.00  0.00    +0.037 C 
ATOM     14  N   UNL     1      -6.220  -2.614   3.645  0.00  0.00    -0.318 N 
ATOM     15  C   UNL     1      -6.098  -3.787   4.525  0.00  0.00    +0.088 C 
ATOM     16  C   UNL     1      -5.951  -3.296   5.969  0.00  0.00    -0.060 C 
ATOM     17  N   UNL     1      -7.070  -2.405   6.299  0.00  0.00    +0.382 N 
ATOM     18  C   UNL     1      -7.011  -1.198   5.464  0.00  0.00    -0.060 C 
ATOM     19  C   UNL     1      -7.206  -1.582   3.998  0.00  0.00    +0.088 C 
ATOM     20  H   UNL     1      -7.942  -2.885   6.132  0.00  0.00    -0.082 HD
ENDROOT
BRANCH   1  21
ATOM     21  S   UNL     1      -2.038  -0.688   1.662  0.00  0.00    -0.082 S 
BRANCH  21  22
ATOM     22  C   UNL     1      -1.306  -0.754   0.004  0.00  0.00    +0.107 C 
BRANCH  22  24
ATOM     23  C   UNL     1      -0.052   1.536  -0.010  0.00  0.00    +0.039 C 
ATOM     24  C   UNL     1      -0.018   0.029  -0.008  0.00  0.00    -0.069 C 
ATOM     25  C   UNL     1       1.131  -0.600  -0.017  0.00  0.00    +0.008 C 
ENDBRANCH  22  24
ENDBRANCH  21  22
ENDBRANCH   1  21
BRANCH  17  26
ATOM     26  C   UNL     1      -6.989  -2.023   7.715  0.00  0.00    -0.074 C 
BRANCH  26  27
ATOM     27  C   UNL     1      -8.220  -1.196   8.091  0.00  0.00    +0.016 C 
BRANCH  27  28
ATOM     28  C   UNL     1      -8.137  -0.804   9.544  0.00  0.00    -0.049 A 
ATOM     29  C   UNL     1      -8.674  -1.629  10.514  0.00  0.00    +0.003 A 
ATOM     30  C   UNL     1      -8.598  -1.270  11.847  0.00  0.00    +0.000 A 
ATOM     31  C   UNL     1      -7.985  -0.085  12.209  0.00  0.00    +0.000 A 
ATOM     32  C   UNL     1      -7.447   0.739  11.239  0.00  0.00    +0.000 A 
ATOM     33  C   UNL     1      -7.519   0.378   9.907  0.00  0.00    +0.003 A 
ENDBRANCH  27  28
ENDBRANCH  26  27
ENDBRANCH  17  26
TORSDOF 6
