REMARK  Name = ZINC21526460
REMARK  6 active torsions:
REMARK  status: ('A' for Active; 'I' for Inactive)
REMARK    1  A    between atoms: C_1  and  C_2
REMARK    2  A    between atoms: C_2  and  C_24
REMARK    3  A    between atoms: N_14  and  C_15
REMARK    4  A    between atoms: C_15  and  C_16
REMARK    5  A    between atoms: C_16  and  C_17
REMARK    6  A    between atoms: N_26  and  C_27
REMARK                            x       y       z     vdW  Elec       q    Type
REMARK                         _______ _______ _______ _____ _____    ______ ____
ROOT
ATOM      1  C   UNL     1      -3.056   3.446  -2.139  0.00  0.00    +0.043 C 
ATOM      2  C   UNL     1      -3.062   3.763  -0.643  0.00  0.00    +0.128 C 
ATOM      3  C   UNL     1      -1.697   4.335  -0.245  0.00  0.00    +0.157 C 
ATOM      4  N   UNL     1      -0.710   3.252  -0.237  0.00  0.00    -0.331 N 
ATOM      5  C   UNL     1       0.631   3.286  -0.478  0.00  0.00    +0.088 A 
ATOM      6  C   UNL     1       1.741   4.094  -0.821  0.00  0.00    +0.067 A 
ATOM      7  C   UNL     1       2.821   3.295  -0.854  0.00  0.00    +0.198 A 
ATOM      8  O   UNL     1       2.457   2.037  -0.553  0.00  0.00    -0.461 OA
ATOM      9  C   UNL     1       1.128   1.992  -0.321  0.00  0.00    +0.153 A 
ATOM     10  C   UNL     1       0.049   1.161   0.017  0.00  0.00    +0.079 A 
ATOM     11  C   UNL     1      -1.071   1.937   0.052  0.00  0.00    +0.109 A 
ATOM     12  C   UNL     1      -2.466   1.592   0.348  0.00  0.00    +0.264 C 
ATOM     13  O   UNL     1      -2.777   0.504   0.796  0.00  0.00    -0.268 OA
ATOM     14  N   UNL     1      -3.391   2.549   0.095  0.00  0.00    -0.280 N 
ENDROOT
BRANCH   2  15
ATOM     15  C   UNL     1      -4.119   4.801  -0.369  0.00  0.00    +0.238 C 
ATOM     16  O   UNL     1      -4.945   5.064  -1.217  0.00  0.00    -0.273 OA
ATOM     17  N   UNL     1      -4.147   5.437   0.819  0.00  0.00    -0.311 N 
ATOM     18  H   UNL     1      -3.353   5.256   1.559  0.00  0.00    +0.149 HD
BRANCH  17  19
ATOM     19  C   UNL     1      -5.235   6.370   1.125  0.00  0.00    +0.073 C 
ATOM     20  C   UNL     1      -4.932   7.727   0.458  0.00  0.00    +0.022 C 
ATOM     21  C   UNL     1      -6.221   8.492   0.326  0.00  0.00    +0.002 C 
ATOM     22  C   UNL     1      -6.458   9.452   1.508  0.00  0.00    +0.000 C 
ATOM     23  C   UNL     1      -6.089   8.829   2.868  0.00  0.00    +0.000 C 
ATOM     24  C   UNL     1      -6.537   7.397   2.985  0.00  0.00    +0.002 C 
ATOM     25  C   UNL     1      -5.367   6.482   2.571  0.00  0.00    +0.022 C 
ENDBRANCH  17  19
ENDBRANCH   2  15
BRANCH  14  26
ATOM     26  C   UNL     1      -4.761   2.359   0.577  0.00  0.00    +0.114 C 
BRANCH  26  27
ATOM     27  C   UNL     1      -4.853   2.802   2.039  0.00  0.00    +0.054 C 
BRANCH  27  28
ATOM     28  C   UNL     1      -6.225   2.483   2.575  0.00  0.00    -0.046 A 
ATOM     29  C   UNL     1      -7.266   3.372   2.381  0.00  0.00    +0.005 A 
ATOM     30  C   UNL     1      -8.526   3.076   2.868  0.00  0.00    +0.020 A 
ATOM     31  C   UNL     1      -8.742   1.897   3.558  0.00  0.00    +0.041 A 
ATOM     32  C   UNL     1      -7.698   1.011   3.756  0.00  0.00    +0.020 A 
ATOM     33  C   UNL     1      -6.440   1.304   3.264  0.00  0.00    +0.005 A 
ATOM     34 CL   UNL     1     -10.322   1.530   4.176  0.00  0.00    -0.084 Cl
ENDBRANCH  27  28
ENDBRANCH  26  27
ENDBRANCH  14  26
TORSDOF 5
