REMARK  Name = ZINC40811816
REMARK  10 active torsions:
REMARK  status: ('A' for Active; 'I' for Inactive)
REMARK    1  A    between atoms: C_1  and  C_2
REMARK    2  A    between atoms: C_5  and  C_32
REMARK    3  A    between atoms: C_6  and  O_8
REMARK    4  A    between atoms: O_8  and  C_9
REMARK    5  A    between atoms: C_9  and  C_11
REMARK    6  A    between atoms: C_12  and  C_31
REMARK    7  A    between atoms: N_20  and  N_21
REMARK    8  A    between atoms: C_22  and  C_24
REMARK    9  A    between atoms: C_32  and  C_33
REMARK   10  A    between atoms: C_32  and  C_34
REMARK                            x       y       z     vdW  Elec       q    Type
REMARK                         _______ _______ _______ _____ _____    ______ ____
ROOT
ATOM      1  C   UNL     1       0.282  -2.771   4.786  0.00  0.00    +0.215 A 
ATOM      2  C   UNL     1       0.386  -2.177   6.014  0.00  0.00    +0.011 A 
ATOM      3  C   UNL     1       0.489  -3.218   6.944  0.00  0.00    +0.042 A 
ATOM      4  C   UNL     1       0.446  -4.402   6.245  0.00  0.00    +0.115 A 
ATOM      5  O   UNL     1       0.314  -4.113   4.953  0.00  0.00    -0.452 OA
ATOM      6  C   UNL     1       0.537  -5.751   6.912  0.00  0.00    +0.075 C 
ATOM      7  C   UNL     1       1.176  -5.594   8.294  0.00  0.00    +0.014 C 
ATOM      8  C   UNL     1       0.441  -4.527   9.112  0.00  0.00    +0.058 C 
ATOM      9  C   UNL     1       0.622  -3.185   8.418  0.00  0.00    +0.070 C 
ATOM     10  N   UNL     1       0.874  -2.092   9.070  0.00  0.00    -0.184 NA
ATOM     11  C   UNL     1       0.388  -0.699   6.306  0.00  0.00    +0.048 C 
ENDROOT
BRANCH  10  12
ATOM     12  N   UNL     1       0.989  -2.120  10.466  0.00  0.00    -0.203 N 
ATOM     13  C   UNL     1       1.251  -0.985  11.143  0.00  0.00    +0.263 C 
ATOM     14  O   UNL     1       1.388   0.064  10.543  0.00  0.00    -0.268 OA
ATOM     15  H   UNL     1       0.879  -2.956  10.945  0.00  0.00    +0.178 HD
BRANCH  13  16
ATOM     16  C   UNL     1       1.372  -1.014  12.615  0.00  0.00    +0.038 A 
ATOM     17  C   UNL     1       1.221  -2.217  13.307  0.00  0.00    +0.014 A 
ATOM     18  C   UNL     1       1.335  -2.239  14.681  0.00  0.00    +0.016 A 
ATOM     19  C   UNL     1       1.598  -1.069  15.375  0.00  0.00    +0.018 A 
ATOM     20  C   UNL     1       1.749   0.127  14.695  0.00  0.00    +0.016 A 
ATOM     21  C   UNL     1       1.643   0.160  13.320  0.00  0.00    +0.014 A 
ATOM     22 BR   UNL     1       1.752  -1.107  17.259  0.00  0.00    -0.050 Br
ENDBRANCH  13  16
ENDBRANCH  10  12
BRANCH   1  23
ATOM     23  C   UNL     1       0.152  -2.071   3.505  0.00  0.00    +0.380 C 
ATOM     24  O   UNL     1       0.134  -0.856   3.475  0.00  0.00    -0.241 OA
BRANCH  23  25
ATOM     25  O   UNL     1       0.052  -2.776   2.358  0.00  0.00    -0.420 OA
BRANCH  25  31
ATOM     26  C   UNL     1      -2.450  -0.755  -1.313  0.00  0.00    +0.044 C 
ATOM     27  C   UNL     1      -1.147  -1.087  -0.633  0.00  0.00    -0.047 A 
ATOM     28  C   UNL     1       0.050  -0.692  -1.202  0.00  0.00    +0.004 A 
ATOM     29  C   UNL     1       1.247  -0.995  -0.580  0.00  0.00    +0.008 A 
ATOM     30  C   UNL     1       1.250  -1.692   0.612  0.00  0.00    -0.002 A 
ATOM     31  C   UNL     1       0.051  -2.089   1.186  0.00  0.00    +0.136 A 
ATOM     32  C   UNL     1      -1.149  -1.780   0.562  0.00  0.00    +0.050 A 
BRANCH  30  33
ATOM     33  C   UNL     1       2.556  -2.022   1.289  0.00  0.00    +0.016 C 
ATOM     34  C   UNL     1       3.411  -2.882   0.356  0.00  0.00    +0.012 C 
ATOM     35  C   UNL     1       3.302  -0.727   1.617  0.00  0.00    +0.012 C 
ENDBRANCH  30  33
ENDBRANCH  25  31
ENDBRANCH  23  25
ENDBRANCH   1  23
TORSDOF 6
