REMARK  Name = ZINC58113264
REMARK  6 active torsions:
REMARK  status: ('A' for Active; 'I' for Inactive)
REMARK    1  A    between atoms: C_1  and  C_2
REMARK    2  A    between atoms: C_2  and  C_3
REMARK    3  A    between atoms: C_2  and  N_10
REMARK    4  A    between atoms: C_11  and  C_13
REMARK    5  A    between atoms: C_15  and  S_20
REMARK    6  A    between atoms: S_20  and  N_23
REMARK                            x       y       z     vdW  Elec       q    Type
REMARK                         _______ _______ _______ _____ _____    ______ ____
ROOT
ATOM      1  N   UNL     1      -1.372  -0.511   0.012  0.00  0.00    -0.305 N 
ATOM      2  C   UNL     1      -2.051  -0.643  -1.145  0.00  0.00    +0.246 C 
ATOM      3  O   UNL     1      -1.522  -0.341  -2.197  0.00  0.00    -0.270 OA
ATOM      4  H   UNL     1      -1.794  -0.752   0.852  0.00  0.00    +0.150 HD
ENDROOT
BRANCH   2   5
ATOM      5  C   UNL     1      -3.437  -1.154  -1.134  0.00  0.00    +0.057 A 
ATOM      6  C   UNL     1      -4.049  -1.497   0.073  0.00  0.00    +0.043 A 
ATOM      7  C   UNL     1      -5.343  -1.973   0.076  0.00  0.00    +0.106 A 
ATOM      8  C   UNL     1      -6.036  -2.113  -1.114  0.00  0.00    +0.030 A 
ATOM      9  C   UNL     1      -5.437  -1.776  -2.314  0.00  0.00    +0.022 A 
ATOM     10  C   UNL     1      -4.143  -1.292  -2.332  0.00  0.00    +0.053 A 
ATOM     11 CL   UNL     1      -3.395  -0.862  -3.838  0.00  0.00    -0.083 Cl
BRANCH   7  12
ATOM     12  S   UNL     1      -6.117  -2.405   1.599  0.00  0.00    +0.056 S 
ATOM     13  O   UNL     1      -7.140  -3.340   1.284  0.00  0.00    -0.153 OA
ATOM     14  O   UNL     1      -5.072  -2.700   2.516  0.00  0.00    -0.153 OA
BRANCH  12  15
ATOM     15  N   UNL     1      -6.876  -1.047   2.166  0.00  0.00    -0.204 NA
ATOM     16  H   UNL     1      -6.831  -0.220   1.661  0.00  0.00    +0.144 HD
ATOM     17  H   UNL     1      -7.365  -1.078   3.003  0.00  0.00    +0.144 HD
ENDBRANCH  12  15
ENDBRANCH   7  12
ENDBRANCH   2   5
BRANCH   1  19
ATOM     18  C   UNL     1      -0.019   1.526   0.010  0.00  0.00    +0.033 C 
ATOM     19  C   UNL     1       0.002  -0.004   0.002  0.00  0.00    +0.100 C 
BRANCH  19  20
ATOM     20  C   UNL     1       0.731  -0.503   1.223  0.00  0.00    -0.027 A 
ATOM     21  C   UNL     1       0.081  -0.558   2.442  0.00  0.00    +0.007 A 
ATOM     22  C   UNL     1       0.749  -1.016   3.562  0.00  0.00    +0.020 A 
ATOM     23  C   UNL     1       2.068  -1.419   3.463  0.00  0.00    +0.041 A 
ATOM     24  C   UNL     1       2.719  -1.364   2.243  0.00  0.00    +0.020 A 
ATOM     25  C   UNL     1       2.048  -0.911   1.123  0.00  0.00    +0.007 A 
ATOM     26 CL   UNL     1       2.908  -1.994   4.870  0.00  0.00    -0.084 Cl
ENDBRANCH  19  20
ENDBRANCH   1  19
TORSDOF 5
