REMARK  Name = ZINC64540942
REMARK  4 active torsions:
REMARK  status: ('A' for Active; 'I' for Inactive)
REMARK    1  A    between atoms: C_5  and  C_12
REMARK    2  A    between atoms: C_17  and  C_20
REMARK    3  A    between atoms: C_20  and  C_21
REMARK    4  A    between atoms: N_26  and  C_29
REMARK                            x       y       z     vdW  Elec       q    Type
REMARK                         _______ _______ _______ _____ _____    ______ ____
ROOT
ATOM      1  C   UNL     1       5.406   0.959  -1.281  0.00  0.00    +0.242 C 
ATOM      2  O   UNL     1       5.236   1.849  -2.088  0.00  0.00    -0.273 OA
ATOM      3  N   UNL     1       6.355   0.027  -1.496  0.00  0.00    -0.300 N 
ATOM      4  C   UNL     1       6.569  -1.060  -0.531  0.00  0.00    +0.108 C 
ATOM      5  C   UNL     1       8.048  -1.081  -0.133  0.00  0.00    +0.023 C 
ATOM      6  C   UNL     1       8.911  -1.180  -1.393  0.00  0.00    +0.001 C 
ATOM      7  C   UNL     1       8.667   0.044  -2.278  0.00  0.00    +0.023 C 
ATOM      8  C   UNL     1       7.191   0.075  -2.704  0.00  0.00    +0.108 C 
ENDROOT
BRANCH   1  13
ATOM      9  C   UNL     1      -0.017   1.399   0.010  0.00  0.00    +0.022 A 
ATOM     10  C   UNL     1       1.109   2.143   0.003  0.00  0.00    +0.027 A 
ATOM     11  C   UNL     1       2.385   1.516  -0.013  0.00  0.00    +0.043 A 
ATOM     12  N   UNL     1       3.600   2.009  -0.022  0.00  0.00    -0.370 N 
ATOM     13  C   UNL     1       4.557   0.897  -0.038  0.00  0.00    +0.190 C 
ATOM     14  C   UNL     1       3.724  -0.366  -0.036  0.00  0.00    +0.016 C 
ATOM     15  C   UNL     1       2.433   0.036  -0.021  0.00  0.00    -0.002 A 
ATOM     16  C   UNL     1       1.163  -0.699  -0.013  0.00  0.00    +0.029 A 
ATOM     17  C   UNL     1       0.002  -0.004   0.002  0.00  0.00    +0.042 A 
ATOM     18 CL   UNL     1      -1.502  -0.870   0.012  0.00  0.00    -0.084 Cl
ATOM     19  H   UNL     1       3.828   2.952  -0.020  0.00  0.00    +0.161 HD
ENDBRANCH   1  13
BRANCH   6  20
ATOM     20  C   UNL     1      10.387  -1.236  -0.996  0.00  0.00    +0.099 C 
BRANCH  20  21
ATOM     21  C   UNL     1      11.230  -1.457  -2.226  0.00  0.00    +0.216 C 
ATOM     22  O   UNL     1      10.701  -1.560  -3.313  0.00  0.00    -0.276 OA
ATOM     23  N   UNL     1      12.571  -1.541  -2.119  0.00  0.00    -0.305 N 
ATOM     24  C   UNL     1      13.233  -1.425  -0.810  0.00  0.00    +0.089 C 
ATOM     25  C   UNL     1      14.195  -2.607  -0.647  0.00  0.00    -0.059 C 
ATOM     26  N   UNL     1      15.115  -2.649  -1.791  0.00  0.00    +0.384 N 
ATOM     27  C   UNL     1      14.367  -2.916  -3.025  0.00  0.00    -0.059 C 
ATOM     28  C   UNL     1      13.413  -1.756  -3.305  0.00  0.00    +0.089 C 
ATOM     29  H   UNL     1      15.590  -1.762  -1.872  0.00  0.00    -0.081 HD
BRANCH  26  30
ATOM     30  C   UNL     1      16.107  -3.712  -1.581  0.00  0.00    -0.068 C 
ATOM     31  C   UNL     1      16.895  -3.429  -0.301  0.00  0.00    -0.015 C 
ATOM     32  C   UNL     1      17.927  -4.537  -0.082  0.00  0.00    -0.002 C 
ATOM     33  C   UNL     1      18.887  -4.582  -1.273  0.00  0.00    -0.000 C 
ATOM     34  C   UNL     1      18.099  -4.866  -2.553  0.00  0.00    -0.002 C 
ATOM     35  C   UNL     1      17.066  -3.758  -2.772  0.00  0.00    -0.015 C 
ENDBRANCH  26  30
ENDBRANCH  20  21
ENDBRANCH   6  20
TORSDOF 4
