REMARK  Name = ZINC16840427
REMARK  10 active torsions:
REMARK  status: ('A' for Active; 'I' for Inactive)
REMARK    1  A    between atoms: C_1  and  C_2
REMARK    2  A    between atoms: C_4  and  C_34
REMARK    3  A    between atoms: C_5  and  N_9
REMARK    4  A    between atoms: C_6  and  C_8
REMARK    5  A    between atoms: C_10  and  C_12
REMARK    6  A    between atoms: C_12  and  S_13
REMARK    7  A    between atoms: S_13  and  C_14
REMARK    8  A    between atoms: N_22  and  C_26
REMARK    9  A    between atoms: C_30  and  O_32
REMARK   10  A    between atoms: O_32  and  C_33
REMARK                            x       y       z     vdW  Elec       q    Type
REMARK                         _______ _______ _______ _____ _____    ______ ____
ROOT
ATOM      1  C   UNL     1      -7.471   0.972  -0.790  0.00  0.00    +0.172 A 
ATOM      2  N   UNL     1      -8.767   1.395  -0.791  0.00  0.00    -0.301 N 
ATOM      3  H   UNL     1      -8.984   2.320  -0.600  0.00  0.00    +0.171 HD
ATOM      4  C   UNL     1      -9.747   0.501  -1.069  0.00  0.00    +0.268 A 
ATOM      5  O   UNL     1     -10.919   0.841  -1.084  0.00  0.00    -0.267 OA
ATOM      6  C   UNL     1      -9.383  -0.813  -1.331  0.00  0.00    +0.122 A 
ATOM      7  C   UNL     1      -8.049  -1.225  -1.320  0.00  0.00    +0.161 A 
ATOM      8  N   UNL     1      -7.131  -0.268  -1.038  0.00  0.00    -0.204 NA
ATOM      9  N   UNL     1      -7.824  -2.551  -1.595  0.00  0.00    -0.281 N 
ATOM     10  C   UNL     1      -8.850  -3.386  -1.859  0.00  0.00    +0.132 A 
ATOM     11  S   UNL     1      -8.808  -5.058  -2.225  0.00  0.00    -0.024 S 
ATOM     12  S   UNL     1     -10.264  -2.302  -1.728  0.00  0.00    -0.055 S 
ENDROOT
BRANCH   9  13
ATOM     13  C   UNL     1      -6.512  -3.043  -1.603  0.00  0.00    +0.053 A 
ATOM     14  C   UNL     1      -5.769  -3.059  -0.430  0.00  0.00    +0.026 A 
ATOM     15  C   UNL     1      -4.476  -3.544  -0.438  0.00  0.00    +0.006 A 
ATOM     16  C   UNL     1      -3.918  -4.015  -1.612  0.00  0.00    +0.046 A 
ATOM     17  C   UNL     1      -4.657  -4.002  -2.786  0.00  0.00    +0.122 A 
ATOM     18  C   UNL     1      -5.957  -3.521  -2.781  0.00  0.00    +0.071 A 
BRANCH  17  19
ATOM     19  O   UNL     1      -4.108  -4.466  -3.940  0.00  0.00    -0.495 OA
ATOM     20  C   UNL     1      -2.766  -4.952  -3.870  0.00  0.00    +0.277 C 
ENDBRANCH  17  19
ENDBRANCH   9  13
BRANCH   1  21
ATOM     21  S   UNL     1      -6.202   2.142  -0.435  0.00  0.00    -0.078 S 
BRANCH  21  22
ATOM     22  C   UNL     1      -4.746   1.073  -0.559  0.00  0.00    +0.173 C 
BRANCH  22  24
ATOM     23  N   UNL     1      -2.294   1.291  -0.322  0.00  0.00    -0.284 N 
ATOM     24  C   UNL     1      -3.504   1.882  -0.285  0.00  0.00    +0.228 C 
ATOM     25  O   UNL     1      -3.595   3.064  -0.031  0.00  0.00    -0.275 OA
ATOM     26  H   UNL     1      -2.226   0.331  -0.445  0.00  0.00    +0.155 HD
BRANCH  23  31
ATOM     27  C   UNL     1       2.413   4.408   0.244  0.00  0.00    +0.044 C 
ATOM     28  C   UNL     1       1.161   3.583   0.092  0.00  0.00    -0.050 A 
ATOM     29  C   UNL     1       0.190   3.615   1.076  0.00  0.00    +0.008 A 
ATOM     30  C   UNL     1      -0.958   2.859   0.940  0.00  0.00    -0.029 A 
ATOM     31  C   UNL     1      -1.134   2.062  -0.184  0.00  0.00    +0.039 A 
ATOM     32  C   UNL     1      -0.160   2.038  -1.173  0.00  0.00    -0.029 A 
ATOM     33  C   UNL     1       0.986   2.795  -1.031  0.00  0.00    +0.008 A 
ATOM     34  C   UNL     1      -0.350   1.180  -2.398  0.00  0.00    +0.045 C 
ATOM     35  C   UNL     1      -2.016   2.893   2.013  0.00  0.00    +0.045 C 
ENDBRANCH  23  31
ENDBRANCH  22  24
ENDBRANCH  21  22
ENDBRANCH   1  21
TORSDOF 6
