REMARK  Name = ZINC38688922
REMARK  3 active torsions:
REMARK  status: ('A' for Active; 'I' for Inactive)
REMARK    1  A    between atoms: C_6  and  C_10
REMARK    2  A    between atoms: C_10  and  S_11
REMARK    3  A    between atoms: S_11  and  C_12
REMARK                            x       y       z     vdW  Elec       q    Type
REMARK                         _______ _______ _______ _____ _____    ______ ____
ROOT
ATOM      1  S   UNL     1      -3.985  -3.931  -1.708  0.00  0.00    -0.111 S 
ENDROOT
BRANCH   1   2
ATOM      2  C   UNL     1      -4.923  -5.475  -1.537  0.00  0.00    +0.234 C 
ATOM      3  N   UNL     1      -4.118  -6.472  -0.802  0.00  0.00    -0.260 NA
ATOM      4  C   UNL     1      -4.821  -6.651   0.472  0.00  0.00    +0.223 C 
ATOM      5  C   UNL     1      -6.133  -5.899   0.328  0.00  0.00    +0.079 C 
ATOM      6  N   UNL     1      -6.144  -5.232  -0.763  0.00  0.00    -0.255 NA
ATOM      7  C   UNL     1      -7.203  -6.093   1.327  0.00  0.00    +0.048 C 
ATOM      8  C   UNL     1      -7.213  -7.352   1.864  0.00  0.00    +0.060 C 
ATOM      9  C   UNL     1      -6.248  -8.344   1.382  0.00  0.00    +0.127 C 
ATOM     10  N   UNL     1      -5.138  -8.048   0.762  0.00  0.00    -0.265 NA
ATOM     11 CL   UNL     1      -8.356  -7.769   3.103  0.00  0.00    -0.082 Cl
ATOM     12  H   UNL     1      -4.066  -7.341  -1.312  0.00  0.00    +0.127 HD
ENDBRANCH   1   2
BRANCH   1  13
ATOM     13  C   UNL     1      -3.662  -3.423   0.003  0.00  0.00    +0.146 C 
BRANCH  13  19
ATOM     14  C   UNL     1      -0.017   1.374   0.010  0.00  0.00    +0.002 A 
ATOM     15  C   UNL     1      -1.222   2.061   0.019  0.00  0.00    +0.002 A 
ATOM     16  C   UNL     1      -2.409   1.385   0.021  0.00  0.00    +0.030 A 
ATOM     17  C   UNL     1      -2.415  -0.012   0.014  0.00  0.00    +0.089 A 
ATOM     18  N   UNL     1      -3.402  -0.944   0.014  0.00  0.00    -0.232 NA
ATOM     19  C   UNL     1      -2.879  -2.135   0.005  0.00  0.00    +0.118 A 
ATOM     20  N   UNL     1      -1.521  -2.049  -0.001  0.00  0.00    -0.341 N 
ATOM     21  C   UNL     1      -1.194  -0.708   0.004  0.00  0.00    +0.066 A 
ATOM     22  C   UNL     1       0.002  -0.004   0.002  0.00  0.00    +0.028 A 
ATOM     23  H   UNL     1      -0.898  -2.793  -0.008  0.00  0.00    +0.167 HD
ENDBRANCH  13  19
ENDBRANCH   1  13
TORSDOF 3
