REMARK  Name = ZINC23525245
REMARK  7 active torsions:
REMARK  status: ('A' for Active; 'I' for Inactive)
REMARK    1  A    between atoms: C_1  and  C_2
REMARK    2  A    between atoms: C_2  and  C_4
REMARK    3  A    between atoms: C_2  and  S_15
REMARK    4  A    between atoms: N_6  and  C_7
REMARK    5  A    between atoms: C_12  and  C_13
REMARK    6  A    between atoms: S_15  and  C_16
REMARK    7  A    between atoms: N_26  and  C_27
REMARK                            x       y       z     vdW  Elec       q    Type
REMARK                         _______ _______ _______ _____ _____    ______ ____
ROOT
ATOM      1  C   UNL     1       2.553   2.132  -0.191  0.00  0.00    +0.177 A 
ATOM      2  N   UNL     1       1.369   2.691  -0.172  0.00  0.00    -0.223 NA
ATOM      3  C   UNL     1       0.236   1.950  -0.196  0.00  0.00    +0.080 A 
ATOM      4  C   UNL     1      -1.028   2.546  -0.171  0.00  0.00    +0.048 A 
ATOM      5  C   UNL     1      -2.154   1.752  -0.202  0.00  0.00    +0.043 A 
ATOM      6  C   UNL     1      -2.046   0.366  -0.247  0.00  0.00    +0.021 A 
ATOM      7  C   UNL     1      -0.821  -0.239  -0.268  0.00  0.00    +0.017 A 
ATOM      8  C   UNL     1       0.335   0.541  -0.242  0.00  0.00    +0.065 A 
ATOM      9  C   UNL     1       1.675  -0.060  -0.262  0.00  0.00    +0.267 A 
ATOM     10  O   UNL     1       1.824  -1.268  -0.301  0.00  0.00    -0.267 OA
ATOM     11  N   UNL     1       2.737   0.777  -0.235  0.00  0.00    -0.255 N 
ATOM     12 CL   UNL     1      -3.725   2.489  -0.177  0.00  0.00    -0.083 Cl
ENDROOT
BRANCH  11  13
ATOM     13  C   UNL     1       4.037   0.253  -0.253  0.00  0.00    +0.052 A 
ATOM     14  C   UNL     1       4.863   0.479  -1.345  0.00  0.00    +0.028 A 
ATOM     15  C   UNL     1       6.145  -0.034  -1.357  0.00  0.00    +0.022 A 
ATOM     16  C   UNL     1       6.602  -0.784  -0.287  0.00  0.00    +0.041 A 
ATOM     17  C   UNL     1       5.778  -1.016   0.800  0.00  0.00    +0.022 A 
ATOM     18  C   UNL     1       4.497  -0.500   0.820  0.00  0.00    +0.028 A 
ATOM     19 CL   UNL     1       8.212  -1.433  -0.309  0.00  0.00    -0.084 Cl
ENDBRANCH  11  13
BRANCH   1  20
ATOM     20  S   UNL     1       3.975   3.172  -0.157  0.00  0.00    -0.075 S 
BRANCH  20  22
ATOM     21  C   UNL     1       2.403   4.941   1.210  0.00  0.00    +0.029 C 
ATOM     22  C   UNL     1       3.175   4.795  -0.103  0.00  0.00    +0.137 C 
BRANCH  22  23
ATOM     23  C   UNL     1       4.223   5.875  -0.192  0.00  0.00    +0.230 C 
ATOM     24  O   UNL     1       5.378   5.623   0.079  0.00  0.00    -0.274 OA
ATOM     25  N   UNL     1       3.877   7.120  -0.573  0.00  0.00    -0.284 N 
ATOM     26  H   UNL     1       2.817   7.374  -0.727  0.00  0.00    +0.155 HD
BRANCH  25  27
ATOM     27  C   UNL     1       4.861   8.088  -0.771  0.00  0.00    +0.051 A 
ATOM     28  C   UNL     1       6.104   7.725  -1.269  0.00  0.00    +0.024 A 
ATOM     29  C   UNL     1       7.076   8.685  -1.469  0.00  0.00    +0.002 A 
ATOM     30  C   UNL     1       6.823  10.013  -1.166  0.00  0.00    +0.001 A 
ATOM     31  C   UNL     1       5.596  10.391  -0.665  0.00  0.00    +0.021 A 
ATOM     32  C   UNL     1       4.601   9.431  -0.462  0.00  0.00    +0.073 A 
BRANCH  32  33
ATOM     33  C   UNL     1       3.324   9.817   0.058  0.00  0.00    +0.101 C 
ATOM     34  N   UNL     1       2.310  10.123   0.471  0.00  0.00    -0.191 NA
ENDBRANCH  32  33
ENDBRANCH  25  27
ENDBRANCH  22  23
ENDBRANCH  20  22
ENDBRANCH   1  20
TORSDOF 6
