REMARK  Name = ZINC64713725
REMARK  7 active torsions:
REMARK  status: ('A' for Active; 'I' for Inactive)
REMARK    1  A    between atoms: C_4  and  N_7
REMARK    2  A    between atoms: C_11  and  S_14
REMARK    3  A    between atoms: S_14  and  C_15
REMARK    4  A    between atoms: C_15  and  C_16
REMARK    5  A    between atoms: N_18  and  C_19
REMARK    6  A    between atoms: C_19  and  C_20
REMARK    7  A    between atoms: C_20  and  C_21
REMARK                            x       y       z     vdW  Elec       q    Type
REMARK                         _______ _______ _______ _____ _____    ______ ____
ROOT
ATOM      1  C   UNL     1       4.129  -4.298   3.097  0.00  0.00    +0.167 C 
ENDROOT
BRANCH   1   2
ATOM      2  C   UNL     1       4.343  -4.884   4.468  0.00  0.00    +0.223 C 
ATOM      3  O   UNL     1       4.690  -6.040   4.587  0.00  0.00    -0.275 OA
ATOM      4  N   UNL     1       4.149  -4.123   5.564  0.00  0.00    -0.314 N 
ATOM      5  H   UNL     1       3.871  -3.199   5.469  0.00  0.00    +0.149 HD
BRANCH   4   6
ATOM      6  C   UNL     1       4.357  -4.693   6.898  0.00  0.00    +0.108 C 
BRANCH   6   7
ATOM      7  C   UNL     1       4.071  -3.627   7.957  0.00  0.00    +0.052 C 
BRANCH   7   8
ATOM      8  C   UNL     1       4.285  -4.213   9.329  0.00  0.00    -0.040 C 
ATOM      9  C   UNL     1       5.407  -4.136  10.081  0.00  0.00    -0.001 A 
ATOM     10  C   UNL     1       6.714  -3.507   9.854  0.00  0.00    +0.010 A 
ATOM     11  C   UNL     1       7.662  -3.601  10.814  0.00  0.00    +0.001 A 
ATOM     12  C   UNL     1       7.428  -4.282  12.017  0.00  0.00    +0.002 A 
ATOM     13  C   UNL     1       6.253  -4.884  12.297  0.00  0.00    +0.026 A 
ATOM     14  C   UNL     1       5.185  -4.848  11.359  0.00  0.00    +0.043 A 
ATOM     15  N   UNL     1       3.973  -5.347  11.397  0.00  0.00    -0.380 N 
ATOM     16  C   UNL     1       3.286  -5.002  10.147  0.00  0.00    +0.144 C 
ATOM     17  H   UNL     1       3.593  -5.856  12.130  0.00  0.00    +0.160 HD
ENDBRANCH   7   8
ENDBRANCH   6   7
ENDBRANCH   4   6
ENDBRANCH   1   2
BRANCH   1  18
ATOM     18  S   UNL     1       4.468  -5.562   1.840  0.00  0.00    -0.117 S 
BRANCH  18  23
ATOM     19  N   UNL     1       3.620  -0.649  -0.036  0.00  0.00    -0.293 N 
ATOM     20  C   UNL     1       3.644  -2.035   0.061  0.00  0.00    +0.178 C 
ATOM     21  N   UNL     1       2.637  -2.853   0.077  0.00  0.00    -0.163 NA
ATOM     22  N   UNL     1       2.774  -4.219   0.177  0.00  0.00    -0.244 N 
ATOM     23  C   UNL     1       4.169  -4.708   0.268  0.00  0.00    +0.212 C 
ATOM     24  S   UNL     1       5.069  -3.105   0.185  0.00  0.00    -0.054 S 
ATOM     25  H   UNL     1       4.450  -0.154  -0.119  0.00  0.00    +0.154 HD
ATOM     26  H   UNL     1       2.012  -4.818   0.188  0.00  0.00    +0.170 HD
BRANCH  19  30
ATOM     27  C   UNL     1      -0.016   1.380   0.025  0.00  0.00    +0.000 A 
ATOM     28  C   UNL     1       0.089   0.135   0.617  0.00  0.00    +0.002 A 
ATOM     29  C   UNL     1       1.294  -0.541   0.599  0.00  0.00    +0.023 A 
ATOM     30  C   UNL     1       2.400   0.032  -0.016  0.00  0.00    +0.033 A 
ATOM     31  C   UNL     1       2.291   1.283  -0.610  0.00  0.00    +0.023 A 
ATOM     32  C   UNL     1       1.084   1.953  -0.588  0.00  0.00    +0.002 A 
ENDBRANCH  19  30
ENDBRANCH  18  23
ENDBRANCH   1  18
TORSDOF 7
