REMARK  Name = ZINC14247548
REMARK  9 active torsions:
REMARK  status: ('A' for Active; 'I' for Inactive)
REMARK    1  A    between atoms: C_1  and  C_2
REMARK    2  A    between atoms: C_5  and  S_8
REMARK    3  A    between atoms: S_8  and  C_11
REMARK    4  A    between atoms: C_11  and  C_12
REMARK    5  A    between atoms: C_12  and  C_13
REMARK    6  A    between atoms: C_13  and  O_15
REMARK    7  A    between atoms: O_15  and  C_16
REMARK    8  A    between atoms: C_16  and  C_17
REMARK    9  A    between atoms: N_23  and  C_24
REMARK                            x       y       z     vdW  Elec       q    Type
REMARK                         _______ _______ _______ _____ _____    ______ ____
ROOT
ATOM      1  C   UNL     1      -1.853   2.423  -7.536  0.00  0.00    +0.173 A 
ATOM      2  N   UNL     1      -2.307   1.388  -8.222  0.00  0.00    -0.196 NA
ATOM      3  C   UNL     1      -1.858   1.154  -9.453  0.00  0.00    +0.217 A 
ATOM      4  N   UNL     1      -0.952   1.962  -9.992  0.00  0.00    -0.181 NA
ATOM      5  C   UNL     1      -0.498   3.001  -9.300  0.00  0.00    +0.224 A 
ATOM      6  N   UNL     1      -0.955   3.232  -8.072  0.00  0.00    -0.196 NA
ATOM      7  N   UNL     1       0.445   3.844  -9.857  0.00  0.00    -0.284 N 
ATOM      8  N   UNL     1      -2.333   0.073 -10.167  0.00  0.00    -0.327 N 
ATOM      9  H   UNL     1       0.717   4.646  -9.385  0.00  0.00    +0.155 HD
ATOM     10  H   UNL     1      -2.995  -0.516  -9.773  0.00  0.00    +0.145 HD
ATOM     11  H   UNL     1      -2.006  -0.097 -11.064  0.00  0.00    +0.145 HD
ENDROOT
BRANCH   7  12
ATOM     12  C   UNL     1       1.006   3.541 -11.102  0.00  0.00    +0.034 A 
ATOM     13  C   UNL     1       1.209   2.217 -11.470  0.00  0.00    +0.025 A 
ATOM     14  C   UNL     1       1.758   1.920 -12.702  0.00  0.00    +0.022 A 
ATOM     15  C   UNL     1       2.116   2.941 -13.565  0.00  0.00    +0.041 A 
ATOM     16  C   UNL     1       1.920   4.261 -13.199  0.00  0.00    +0.022 A 
ATOM     17  C   UNL     1       1.366   4.563 -11.971  0.00  0.00    +0.025 A 
ATOM     18 CL   UNL     1       2.813   2.564 -15.110  0.00  0.00    -0.084 Cl
ENDBRANCH   7  12
BRANCH   1  19
ATOM     19  C   UNL     1      -2.364   2.685  -6.143  0.00  0.00    +0.308 C 
BRANCH  19  20
ATOM     20  O   UNL     1      -1.527   1.989  -5.182  0.00  0.00    -0.457 OA
BRANCH  20  21
ATOM     21  C   UNL     1      -1.850   2.120  -3.886  0.00  0.00    +0.309 C 
ATOM     22  O   UNL     1      -2.800   2.793  -3.565  0.00  0.00    -0.251 OA
BRANCH  21  23
ATOM     23  C   UNL     1      -1.027   1.426  -2.830  0.00  0.00    +0.143 C 
BRANCH  23  24
ATOM     24  C   UNL     1      -1.604   1.737  -1.448  0.00  0.00    +0.183 C 
BRANCH  24  25
ATOM     25  S   UNL     1      -0.614   0.902  -0.178  0.00  0.00    -0.003 S 
ATOM     26  O   UNL     1      -0.778  -0.506  -0.276  0.00  0.00    -0.169 OA
ATOM     27  O   UNL     1       0.684   1.478  -0.113  0.00  0.00    -0.169 OA
BRANCH  25  32
ATOM     28  C   UNL     1      -3.224   2.394   5.053  0.00  0.00    +0.044 C 
ATOM     29  C   UNL     1      -2.572   2.022   3.747  0.00  0.00    -0.050 A 
ATOM     30  C   UNL     1      -2.982   0.889   3.068  0.00  0.00    +0.005 A 
ATOM     31  C   UNL     1      -2.384   0.548   1.869  0.00  0.00    +0.027 A 
ATOM     32  C   UNL     1      -1.376   1.338   1.350  0.00  0.00    +0.088 A 
ATOM     33  C   UNL     1      -0.963   2.468   2.031  0.00  0.00    +0.027 A 
ATOM     34  C   UNL     1      -1.564   2.812   3.227  0.00  0.00    +0.005 A 
ENDBRANCH  25  32
ENDBRANCH  24  25
ENDBRANCH  23  24
ENDBRANCH  21  23
ENDBRANCH  20  21
ENDBRANCH  19  20
ENDBRANCH   1  19
TORSDOF 8
