REMARK  Name = ZINC09520556
REMARK  9 active torsions:
REMARK  status: ('A' for Active; 'I' for Inactive)
REMARK    1  A    between atoms: C_1  and  N_2
REMARK    2  A    between atoms: C_10  and  C_11
REMARK    3  A    between atoms: C_11  and  C_12
REMARK    4  A    between atoms: N_14  and  N_15
REMARK    5  A    between atoms: C_16  and  C_18
REMARK    6  A    between atoms: C_18  and  C_20
REMARK    7  A    between atoms: C_18  and  N_27
REMARK    8  A    between atoms: C_20  and  C_21
REMARK    9  A    between atoms: C_28  and  C_30
REMARK                            x       y       z     vdW  Elec       q    Type
REMARK                         _______ _______ _______ _____ _____    ______ ____
ROOT
ATOM      1  N   UNL     1      -5.417   4.092  -0.818  0.00  0.00    -0.233 N 
ATOM      2  C   UNL     1      -4.382   4.749  -1.378  0.00  0.00    +0.250 C 
ATOM      3  O   UNL     1      -4.555   5.844  -1.870  0.00  0.00    -0.272 OA
ATOM      4  H   UNL     1      -5.279   3.216  -0.424  0.00  0.00    +0.173 HD
ENDROOT
BRANCH   1   7
ATOM      5  C   UNL     1      -7.727   4.015  -0.246  0.00  0.00    +0.236 C 
ATOM      6  O   UNL     1      -7.554   2.921   0.247  0.00  0.00    -0.274 OA
ATOM      7  N   UNL     1      -6.692   4.673  -0.805  0.00  0.00    -0.234 N 
ATOM      8  H   UNL     1      -6.830   5.549  -1.199  0.00  0.00    +0.173 HD
BRANCH   5   9
ATOM      9  C   UNL     1      -9.098   4.640  -0.232  0.00  0.00    +0.171 C 
BRANCH   9  19
ATOM     10  C   UNL     1      -9.756   4.587   2.789  0.00  0.00    +0.150 C 
ATOM     11  N   UNL     1     -10.342   3.703   1.779  0.00  0.00    -0.330 N 
ATOM     12  C   UNL     1     -11.276   2.711   2.002  0.00  0.00    +0.069 A 
ATOM     13  C   UNL     1     -11.930   2.235   3.131  0.00  0.00    +0.028 A 
ATOM     14  C   UNL     1     -12.832   1.199   3.011  0.00  0.00    +0.002 A 
ATOM     15  C   UNL     1     -13.089   0.630   1.772  0.00  0.00    +0.002 A 
ATOM     16  C   UNL     1     -12.455   1.085   0.651  0.00  0.00    +0.030 A 
ATOM     17  C   UNL     1     -11.537   2.134   0.748  0.00  0.00    +0.089 A 
ATOM     18  N   UNL     1     -10.770   2.794  -0.158  0.00  0.00    -0.232 NA
ATOM     19  C   UNL     1     -10.068   3.708   0.446  0.00  0.00    +0.119 A 
ENDBRANCH   9  19
ENDBRANCH   5   9
ENDBRANCH   1   7
BRANCH   2  20
ATOM     20  C   UNL     1      -3.011   4.124  -1.392  0.00  0.00    +0.165 C 
BRANCH  20  21
ATOM     21  N   UNL     1      -2.068   5.031  -2.051  0.00  0.00    -0.299 N 
ATOM     22  C   UNL     1      -0.955   4.540  -2.631  0.00  0.00    +0.251 C 
ATOM     23  O   UNL     1      -0.733   3.343  -2.606  0.00  0.00    -0.270 OA
ATOM     24  H   UNL     1      -2.245   5.984  -2.071  0.00  0.00    +0.150 HD
BRANCH  22  25
ATOM     25  C   UNL     1      -0.011   5.447  -3.290  0.00  0.00    +0.074 A 
ATOM     26  C   UNL     1       1.178   5.150  -3.938  0.00  0.00    +0.021 A 
ATOM     27  C   UNL     1       1.877   6.203  -4.476  0.00  0.00    +0.008 A 
ATOM     28  C   UNL     1       1.380   7.461  -4.351  0.00  0.00    +0.046 A 
ATOM     29  S   UNL     1      -0.097   7.219  -3.475  0.00  0.00    -0.092 S 
ENDBRANCH  22  25
ENDBRANCH  20  21
BRANCH  20  30
ATOM     30  C   UNL     1      -2.553   3.869   0.045  0.00  0.00    +0.067 C 
BRANCH  30  31
ATOM     31  C   UNL     1      -1.238   3.133   0.030  0.00  0.00    -0.045 A 
ATOM     32  C   UNL     1      -1.219   1.751   0.017  0.00  0.00    +0.004 A 
ATOM     33  C   UNL     1      -0.013   1.076   0.008  0.00  0.00    +0.000 A 
ATOM     34  C   UNL     1       1.175   1.783   0.000  0.00  0.00    +0.000 A 
ATOM     35  C   UNL     1       1.156   3.165   0.008  0.00  0.00    +0.000 A 
ATOM     36  C   UNL     1      -0.050   3.840   0.022  0.00  0.00    +0.004 A 
ENDBRANCH  30  31
ENDBRANCH  20  30
ENDBRANCH   2  20
TORSDOF 8
