REMARK  Name = ZINC09541544
REMARK  12 active torsions:
REMARK  status: ('A' for Active; 'I' for Inactive)
REMARK    1  A    between atoms: C_1  and  C_2
REMARK    2  A    between atoms: C_2  and  O_3
REMARK    3  A    between atoms: O_3  and  C_4
REMARK    4  A    between atoms: C_7  and  C_10
REMARK    5  A    between atoms: C_12  and  C_27
REMARK    6  A    between atoms: C_14  and  C_17
REMARK    7  A    between atoms: C_21  and  O_24
REMARK    8  A    between atoms: C_22  and  O_23
REMARK    9  A    between atoms: O_24  and  C_25
REMARK   10  A    between atoms: C_25  and  C_26
REMARK   11  A    between atoms: C_32  and  O_33
REMARK   12  A    between atoms: O_33  and  C_34
REMARK                            x       y       z     vdW  Elec       q    Type
REMARK                         _______ _______ _______ _____ _____    ______ ____
ROOT
ATOM      1  C   UNL     1      -1.099   6.266   2.013  0.00  0.00    +0.040 C 
ATOM      2  N   UNL     1      -1.192   5.816   0.818  0.00  0.00    -0.298 NA
ATOM      3  C   UNL     1      -0.059   5.351   0.028  0.00  0.00    +0.084 C 
ATOM      4  C   UNL     1       1.271   5.542   2.030  0.00  0.00    -0.028 C 
ATOM      5  C   UNL     1       0.208   6.380   2.747  0.00  0.00    +0.044 C 
ATOM      6  N   UNL     1       1.207   5.848   0.588  0.00  0.00    +0.401 N 
ATOM      7  H   UNL     1       1.263   6.864   0.453  0.00  0.00    -0.081 HD
ATOM      8  H   UNL     1       1.993   5.394   0.108  0.00  0.00    -0.081 HD
ENDROOT
BRANCH   1  12
ATOM      9  C   UNL     1      -4.646   7.497   3.994  0.00  0.00    +0.121 A 
ATOM     10  C   UNL     1      -4.713   7.003   2.697  0.00  0.00    +0.046 A 
ATOM     11  C   UNL     1      -3.564   6.603   2.050  0.00  0.00    +0.013 A 
ATOM     12  C   UNL     1      -2.331   6.694   2.701  0.00  0.00    -0.004 A 
ATOM     13  C   UNL     1      -2.269   7.186   4.007  0.00  0.00    +0.013 A 
ATOM     14  C   UNL     1      -3.421   7.589   4.644  0.00  0.00    +0.046 A 
BRANCH   9  15
ATOM     15  O   UNL     1      -5.780   7.891   4.627  0.00  0.00    -0.492 OA
BRANCH  15  17
ATOM     16  C   UNL     1      -7.014   8.780   6.505  0.00  0.00    +0.048 C 
ATOM     17  C   UNL     1      -5.640   8.389   5.959  0.00  0.00    +0.225 C 
ENDBRANCH  15  17
ENDBRANCH   9  15
ENDBRANCH   1  12
BRANCH   4  18
ATOM     18  C   UNL     1       2.638   5.893   2.560  0.00  0.00    -0.016 A 
ATOM     19  C   UNL     1       3.402   6.851   1.919  0.00  0.00    +0.006 A 
ATOM     20  C   UNL     1       4.656   7.176   2.402  0.00  0.00    +0.004 A 
ATOM     21  C   UNL     1       5.151   6.545   3.529  0.00  0.00    +0.049 A 
ATOM     22  C   UNL     1       4.390   5.585   4.175  0.00  0.00    +0.162 A 
ATOM     23  C   UNL     1       3.126   5.261   3.692  0.00  0.00    +0.160 A 
BRANCH  23  24
ATOM     24  O   UNL     1       2.373   4.323   4.326  0.00  0.00    -0.503 OA
ATOM     25  H   UNL     1       2.513   3.422   4.004  0.00  0.00    +0.292 HD
ENDBRANCH  23  24
BRANCH  22  26
ATOM     26  O   UNL     1       4.875   4.964   5.284  0.00  0.00    -0.489 OA
BRANCH  26  27
ATOM     27  C   UNL     1       6.178   5.351   5.726  0.00  0.00    +0.226 C 
ATOM     28  C   UNL     1       6.550   4.550   6.976  0.00  0.00    +0.048 C 
ENDBRANCH  26  27
ENDBRANCH  22  26
ENDBRANCH   4  18
BRANCH   3  29
ATOM     29  C   UNL     1      -0.043   3.844   0.021  0.00  0.00    +0.001 A 
ATOM     30  C   UNL     1       1.161   3.165   0.007  0.00  0.00    +0.007 A 
ATOM     31  C   UNL     1       1.176   1.783   0.000  0.00  0.00    +0.000 A 
ATOM     32  C   UNL     1      -0.013   1.076   0.008  0.00  0.00    +0.004 A 
ATOM     33  C   UNL     1      -1.218   1.750   0.017  0.00  0.00    +0.046 A 
ATOM     34  C   UNL     1      -1.236   3.137   0.029  0.00  0.00    +0.123 A 
BRANCH  34  35
ATOM     35  O   UNL     1      -2.421   3.802   0.044  0.00  0.00    -0.495 OA
ATOM     36  C   UNL     1      -3.610   3.009   0.051  0.00  0.00    +0.277 C 
ENDBRANCH  34  35
ENDBRANCH   3  29
TORSDOF 9
