REMARK  Name = ZINC11863278
REMARK  7 active torsions:
REMARK  status: ('A' for Active; 'I' for Inactive)
REMARK    1  A    between atoms: C_6  and  O_7
REMARK    2  A    between atoms: O_7  and  C_8
REMARK    3  A    between atoms: C_8  and  C_9
REMARK    4  A    between atoms: C_9  and  O_10
REMARK    5  A    between atoms: O_10  and  C_11
REMARK    6  A    between atoms: C_16  and  C_17
REMARK    7  A    between atoms: N_18  and  O_19
REMARK                            x       y       z     vdW  Elec       q    Type
REMARK                         _______ _______ _______ _____ _____    ______ ____
ROOT
ATOM      1  O   UNL     1       3.456  -0.467   0.486  0.00  0.00    -0.488 OA
ENDROOT
BRANCH   1   2
ATOM      2  C   UNL     1       2.330   0.088  -0.033  0.00  0.00    +0.129 A 
ATOM      3  C   UNL     1       2.285   1.448  -0.298  0.00  0.00    +0.048 A 
ATOM      4  C   UNL     1       1.139   2.013  -0.826  0.00  0.00    +0.023 A 
ATOM      5  C   UNL     1       0.030   1.227  -1.092  0.00  0.00    +0.042 A 
ATOM      6  C   UNL     1       0.059  -0.128  -0.834  0.00  0.00    +0.033 A 
ATOM      7  C   UNL     1       1.211  -0.710  -0.301  0.00  0.00    +0.039 A 
ATOM      8 CL   UNL     1      -1.400   1.949  -1.762  0.00  0.00    -0.084 Cl
BRANCH   7   9
ATOM      9  C   UNL     1       1.250  -2.158  -0.022  0.00  0.00    +0.164 C 
ATOM     10  N   UNL     1       0.146  -2.826   0.082  0.00  0.00    -0.095 NA
BRANCH  10  11
ATOM     11  O   UNL     1      -1.095  -2.145   0.098  0.00  0.00    -0.409 OA
ATOM     12  H   UNL     1      -2.033  -2.713   0.187  0.00  0.00    +0.328 HD
ENDBRANCH  10  11
ENDBRANCH   7   9
ENDBRANCH   1   2
BRANCH   1  13
ATOM     13  C   UNL     1       4.557   0.409   0.733  0.00  0.00    +0.270 C 
BRANCH  13  14
ATOM     14  C   UNL     1       5.725  -0.391   1.313  0.00  0.00    +0.270 C 
BRANCH  14  15
ATOM     15  O   UNL     1       6.195  -1.323   0.337  0.00  0.00    -0.489 OA
BRANCH  15  21
ATOM     16  C   UNL     1       7.801  -2.000   1.956  0.00  0.00    +0.047 A 
ATOM     17  C   UNL     1       8.857  -2.813   2.320  0.00  0.00    +0.019 A 
ATOM     18  C   UNL     1       9.360  -3.737   1.422  0.00  0.00    +0.018 A 
ATOM     19  C   UNL     1       8.804  -3.852   0.160  0.00  0.00    +0.019 A 
ATOM     20  C   UNL     1       7.745  -3.045  -0.205  0.00  0.00    +0.047 A 
ATOM     21  C   UNL     1       7.238  -2.118   0.694  0.00  0.00    +0.121 A 
ATOM     22 BR   UNL     1      10.810  -4.844   1.919  0.00  0.00    -0.050 Br
ENDBRANCH  15  21
ENDBRANCH  14  15
ENDBRANCH  13  14
ENDBRANCH   1  13
TORSDOF 7
