REMARK  Name = ZINC44585379
REMARK  4 active torsions:
REMARK  status: ('A' for Active; 'I' for Inactive)
REMARK    1  A    between atoms: C_1  and  C_2
REMARK    2  A    between atoms: C_3  and  C_12
REMARK    3  A    between atoms: C_12  and  C_14
REMARK    4  A    between atoms: C_12  and  N_17
REMARK                            x       y       z     vdW  Elec       q    Type
REMARK                         _______ _______ _______ _____ _____    ______ ____
ROOT
ATOM      1  C   UNL     1       0.214  -0.286  -2.522  0.00  0.00    +0.080 C 
ENDROOT
BRANCH   1   4
ATOM      2  C   UNL     1      -0.195  -3.178  -1.468  0.00  0.00    +0.063 C 
ATOM      3  C   UNL     1       0.011  -1.956  -0.610  0.00  0.00    +0.016 A 
ATOM      4  C   UNL     1       0.186  -0.709  -1.075  0.00  0.00    -0.022 A 
ATOM      5  C   UNL     1       0.346   0.164   0.090  0.00  0.00    +0.002 A 
ATOM      6  C   UNL     1       0.555   1.535   0.255  0.00  0.00    +0.010 A 
ATOM      7  C   UNL     1       0.665   2.058   1.512  0.00  0.00    +0.001 A 
ATOM      8  C   UNL     1       0.569   1.238   2.628  0.00  0.00    +0.002 A 
ATOM      9  C   UNL     1       0.363  -0.117   2.489  0.00  0.00    +0.026 A 
ATOM     10  C   UNL     1       0.248  -0.671   1.218  0.00  0.00    +0.047 A 
ATOM     11  N   UNL     1       0.040  -1.952   0.758  0.00  0.00    -0.358 N 
ATOM     12  H   UNL     1      -0.069  -2.735   1.319  0.00  0.00    +0.166 HD
ENDBRANCH   1   4
BRANCH   1  13
ATOM     13  N   UNL     1      -0.621   0.909  -2.699  0.00  0.00    +0.392 N 
ATOM     14  C   UNL     1      -1.977   0.619  -2.195  0.00  0.00    -0.077 C 
ATOM     15  C   UNL     1      -2.629   1.923  -1.811  0.00  0.00    -0.019 C 
ATOM     16  C   UNL     1      -3.514   2.468  -2.948  0.00  0.00    -0.002 C 
ATOM     17  C   UNL     1      -2.852   2.280  -4.328  0.00  0.00    -0.002 C 
ATOM     18  C   UNL     1      -1.375   2.583  -4.303  0.00  0.00    -0.019 C 
ATOM     19  C   UNL     1      -0.597   1.276  -4.046  0.00  0.00    -0.077 C 
ATOM     20  H   UNL     1      -0.228   1.661  -2.152  0.00  0.00    -0.080 HD
ENDBRANCH   1  13
BRANCH   1  21
ATOM     21  C   UNL     1       1.631   0.025  -2.927  0.00  0.00    +0.347 C 
ATOM     22  O   UNL     1       2.343  -0.854  -3.381  0.00  0.00    -0.248 OA
ATOM     23  O   UNL     1       2.067   1.157  -2.800  0.00  0.00    -0.248 OA
ENDBRANCH   1  21
TORSDOF 3
