REMARK  Name = ZINC63498339
REMARK  8 active torsions:
REMARK  status: ('A' for Active; 'I' for Inactive)
REMARK    1  A    between atoms: C_1  and  C_2
REMARK    2  A    between atoms: C_2  and  C_3
REMARK    3  A    between atoms: C_2  and  N_22
REMARK    4  A    between atoms: N_5  and  C_6
REMARK    5  A    between atoms: N_5  and  C_13
REMARK    6  A    between atoms: C_6  and  C_7
REMARK    7  A    between atoms: C_7  and  N_8
REMARK    8  A    between atoms: C_13  and  C_14
REMARK                            x       y       z     vdW  Elec       q    Type
REMARK                         _______ _______ _______ _____ _____    ______ ____
ROOT
ATOM      1  C   UNL     1      -1.360  -0.716   0.293  0.00  0.00    +0.236 C 
ATOM      2  O   UNL     1      -1.803  -1.469  -0.547  0.00  0.00    -0.274 OA
ATOM      3  N   UNL     1      -2.191  -0.136   1.183  0.00  0.00    -0.297 N 
ENDROOT
BRANCH   1   5
ATOM      4  C   UNL     1       0.381   0.984  -0.185  0.00  0.00    +0.038 C 
ATOM      5  C   UNL     1       0.118  -0.428   0.344  0.00  0.00    +0.157 C 
BRANCH   5   6
ATOM      6  N   UNL     1       0.834  -1.401  -0.485  0.00  0.00    -0.289 N 
ATOM      7  C   UNL     1       2.126  -1.685  -0.227  0.00  0.00    +0.298 C 
ATOM      8  O   UNL     1       2.697  -1.133   0.693  0.00  0.00    -0.253 OA
ATOM      9  N   UNL     1       2.784  -2.580  -0.990  0.00  0.00    -0.313 N 
ATOM     10  H   UNL     1       0.377  -1.841  -1.219  0.00  0.00    +0.151 HD
ATOM     11  H   UNL     1       2.328  -3.020  -1.724  0.00  0.00    +0.146 HD
ATOM     12  H   UNL     1       3.714  -2.784  -0.804  0.00  0.00    +0.146 HD
ENDBRANCH   5   6
ENDBRANCH   1   5
BRANCH   3  13
ATOM     13  C   UNL     1      -1.680   0.879   2.108  0.00  0.00    +0.089 C 
BRANCH  13  14
ATOM     14  C   UNL     1      -1.978   2.273   1.552  0.00  0.00    -0.060 C 
BRANCH  14  15
ATOM     15  N   UNL     1      -1.380   3.288   2.429  0.00  0.00    +0.381 N 
ATOM     16  C   UNL     1       0.102   3.232   2.341  0.00  0.00    -0.079 C 
ATOM     17  C   UNL     1       0.539   4.638   2.822  0.00  0.00    -0.020 C 
ATOM     18  C   UNL     1      -0.550   5.561   2.228  0.00  0.00    -0.020 C 
ATOM     19  C   UNL     1      -1.760   4.643   1.973  0.00  0.00    -0.079 C 
ATOM     20  H   UNL     1      -1.679   3.145   3.382  0.00  0.00    -0.082 HD
ENDBRANCH  14  15
ENDBRANCH  13  14
ENDBRANCH   3  13
BRANCH   3  21
ATOM     21  C   UNL     1      -3.604  -0.520   1.225  0.00  0.00    +0.142 C 
BRANCH  21  22
ATOM     22  C   UNL     1      -3.784  -1.668   2.185  0.00  0.00    -0.029 A 
ATOM     23  C   UNL     1      -3.676  -2.970   1.733  0.00  0.00    +0.007 A 
ATOM     24  C   UNL     1      -3.842  -4.023   2.612  0.00  0.00    +0.022 A 
ATOM     25  C   UNL     1      -4.115  -3.775   3.946  0.00  0.00    +0.059 A 
ATOM     26  C   UNL     1      -4.223  -2.471   4.398  0.00  0.00    +0.060 A 
ATOM     27  C   UNL     1      -4.051  -1.417   3.517  0.00  0.00    +0.026 A 
ATOM     28 CL   UNL     1      -4.566  -2.157   6.071  0.00  0.00    -0.082 Cl
ATOM     29 CL   UNL     1      -4.324  -5.097   5.051  0.00  0.00    -0.082 Cl
ENDBRANCH  21  22
ENDBRANCH   3  21
TORSDOF 7
