REMARK  Name = ZINC01746789
REMARK  9 active torsions:
REMARK  status: ('A' for Active; 'I' for Inactive)
REMARK    1  A    between atoms: C_1  and  O_2
REMARK    2  A    between atoms: O_2  and  C_3
REMARK    3  A    between atoms: C_6  and  C_9
REMARK    4  A    between atoms: N_13  and  C_17
REMARK    5  A    between atoms: C_17  and  C_18
REMARK    6  A    between atoms: C_18  and  C_19
REMARK    7  A    between atoms: N_21  and  C_22
REMARK    8  A    between atoms: C_25  and  S_28
REMARK    9  A    between atoms: S_28  and  N_31
REMARK                            x       y       z     vdW  Elec       q    Type
REMARK                         _______ _______ _______ _____ _____    ______ ____
ROOT
ATOM      1  C   UNL     1       2.902   2.864  -0.119  0.00  0.00    +0.127 C 
ENDROOT
BRANCH   1   6
ATOM      2  C   UNL     1      -0.934   5.991   0.220  0.00  0.00    +0.028 C 
ATOM      3  C   UNL     1      -0.292   4.795   0.213  0.00  0.00    +0.080 C 
ATOM      4  C   UNL     1       1.142   4.498   0.023  0.00  0.00    +0.260 C 
ATOM      5  O   UNL     1       1.958   5.381  -0.163  0.00  0.00    -0.269 OA
ATOM      6  N   UNL     1       1.493   3.224   0.063  0.00  0.00    -0.228 N 
ATOM      7  C   UNL     1       0.585   2.249   0.269  0.00  0.00    +0.286 C 
ATOM      8  O   UNL     1       0.767   1.048   0.330  0.00  0.00    -0.262 OA
ATOM      9  S   UNL     1      -0.951   3.147   0.422  0.00  0.00    -0.026 S 
BRANCH   2  13
ATOM     10  C   UNL     1       1.296   9.596   0.133  0.00  0.00    +0.120 A 
ATOM     11  C   UNL     1       0.092   9.510  -0.557  0.00  0.00    +0.046 A 
ATOM     12  C   UNL     1      -0.636   8.342  -0.532  0.00  0.00    +0.011 A 
ATOM     13  C   UNL     1      -0.162   7.239   0.190  0.00  0.00    -0.024 A 
ATOM     14  C   UNL     1       1.048   7.334   0.888  0.00  0.00    +0.011 A 
ATOM     15  C   UNL     1       1.771   8.505   0.851  0.00  0.00    +0.046 A 
BRANCH  10  17
ATOM     16  C   UNL     1       3.238  10.771   0.835  0.00  0.00    +0.277 C 
ATOM     17  O   UNL     1       2.010  10.750   0.105  0.00  0.00    -0.495 OA
ENDBRANCH  10  17
ENDBRANCH   2  13
ENDBRANCH   1   6
BRANCH   1  18
ATOM     18  C   UNL     1       3.182   2.635  -1.605  0.00  0.00    +0.115 C 
BRANCH  18  19
ATOM     19  C   UNL     1       4.630   2.265  -1.792  0.00  0.00    +0.219 C 
ATOM     20  O   UNL     1       5.367   2.191  -0.831  0.00  0.00    -0.275 OA
ATOM     21  N   UNL     1       5.108   2.015  -3.028  0.00  0.00    -0.285 N 
ATOM     22  H   UNL     1       4.542   2.152  -3.804  0.00  0.00    +0.155 HD
BRANCH  21  23
ATOM     23  C   UNL     1       6.421   1.559  -3.192  0.00  0.00    +0.033 A 
ATOM     24  C   UNL     1       7.151   1.929  -4.313  0.00  0.00    +0.025 A 
ATOM     25  C   UNL     1       8.448   1.481  -4.469  0.00  0.00    +0.030 A 
ATOM     26  C   UNL     1       9.016   0.657  -3.515  0.00  0.00    +0.105 A 
ATOM     27  C   UNL     1       8.290   0.282  -2.400  0.00  0.00    +0.030 A 
ATOM     28  C   UNL     1       6.994   0.731  -2.236  0.00  0.00    +0.025 A 
BRANCH  26  29
ATOM     29  S   UNL     1      10.669   0.082  -3.722  0.00  0.00    +0.056 S 
ATOM     30  O   UNL     1      11.320   1.014  -4.574  0.00  0.00    -0.153 OA
ATOM     31  O   UNL     1      11.155  -0.232  -2.424  0.00  0.00    -0.153 OA
BRANCH  29  32
ATOM     32  N   UNL     1      10.590  -1.346  -4.556  0.00  0.00    -0.204 NA
ATOM     33  H   UNL     1      11.320  -1.609  -5.139  0.00  0.00    +0.144 HD
ATOM     34  H   UNL     1       9.814  -1.921  -4.462  0.00  0.00    +0.144 HD
ENDBRANCH  29  32
ENDBRANCH  26  29
ENDBRANCH  21  23
ENDBRANCH  18  19
ENDBRANCH   1  18
TORSDOF 8
