REMARK  Name = ZINC13128086
REMARK  8 active torsions:
REMARK  status: ('A' for Active; 'I' for Inactive)
REMARK    1  A    between atoms: C_1  and  C_2
REMARK    2  A    between atoms: C_3  and  C_36
REMARK    3  A    between atoms: C_11  and  C_13
REMARK    4  A    between atoms: C_13  and  N_14
REMARK    5  A    between atoms: C_20  and  C_22
REMARK    6  A    between atoms: C_22  and  C_23
REMARK    7  A    between atoms: C_23  and  C_24
REMARK    8  A    between atoms: C_27  and  C_29
REMARK                            x       y       z     vdW  Elec       q    Type
REMARK                         _______ _______ _______ _____ _____    ______ ____
ROOT
ATOM      1  N   UNL     1       0.104  -4.815   4.051  0.00  0.00    -0.292 NA
ATOM      2  C   UNL     1       1.352  -5.103   3.331  0.00  0.00    +0.104 C 
ATOM      3  C   UNL     1       1.253  -6.485   2.678  0.00  0.00    +0.123 C 
ATOM      4  N   UNL     1       0.891  -7.466   3.712  0.00  0.00    -0.299 N 
ATOM      5  C   UNL     1      -0.270  -7.179   4.567  0.00  0.00    +0.123 C 
ATOM      6  C   UNL     1      -0.111  -5.769   5.147  0.00  0.00    +0.104 C 
ATOM      7  C   UNL     1       1.605  -8.598   3.871  0.00  0.00    +0.216 C 
ATOM      8  O   UNL     1       2.559  -8.819   3.156  0.00  0.00    -0.276 OA
ENDROOT
BRANCH   1   9
ATOM      9  C   UNL     1       0.090  -3.432   4.547  0.00  0.00    +0.158 C 
BRANCH   9  20
ATOM     10  C   UNL     1      -0.018   1.503   0.010  0.00  0.00    +0.045 C 
ATOM     11  C   UNL     1       0.002  -0.004   0.002  0.00  0.00    -0.026 A 
ATOM     12  C   UNL     1       0.006  -0.677  -1.160  0.00  0.00    -0.008 A 
ATOM     13  S   UNL     1       0.032  -2.385  -0.648  0.00  0.00    -0.073 S 
ATOM     14  C   UNL     1       0.037  -2.144   1.110  0.00  0.00    +0.116 A 
ATOM     15  C   UNL     1       0.024  -0.745   1.250  0.00  0.00    +0.075 A 
ATOM     16  C   UNL     1       0.029  -0.257   2.597  0.00  0.00    +0.260 A 
ATOM     17  O   UNL     1       0.014   0.942   2.821  0.00  0.00    -0.267 OA
ATOM     18  N   UNL     1       0.051  -1.142   3.611  0.00  0.00    -0.309 N 
ATOM     19  H   UNL     1       0.054  -0.817   4.525  0.00  0.00    +0.170 HD
ATOM     20  C   UNL     1       0.067  -2.480   3.380  0.00  0.00    +0.125 A 
ATOM     21  N   UNL     1       0.053  -2.956   2.163  0.00  0.00    -0.225 NA
ATOM     22  C   UNL     1      -0.009  -0.122  -2.561  0.00  0.00    +0.052 C 
ENDBRANCH   9  20
ENDBRANCH   1   9
BRANCH   7  23
ATOM     23  C   UNL     1       1.216  -9.590   4.937  0.00  0.00    +0.103 C 
BRANCH  23  24
ATOM     24  C   UNL     1       2.181 -10.777   4.906  0.00  0.00    +0.083 C 
BRANCH  24  25
ATOM     25  C   UNL     1       1.793 -11.769   5.972  0.00  0.00    +0.106 A 
ATOM     26  C   UNL     1       0.942 -12.801   5.812  0.00  0.00    +0.045 A 
ATOM     27  C   UNL     1       0.865 -13.468   7.052  0.00  0.00    +0.050 A 
ATOM     28  C   UNL     1       1.682 -12.799   7.908  0.00  0.00    +0.138 A 
ATOM     29  O   UNL     1       2.243 -11.774   7.238  0.00  0.00    -0.460 OA
BRANCH  28  30
ATOM     30  C   UNL     1       1.918 -13.140   9.326  0.00  0.00    +0.052 A 
ATOM     31  C   UNL     1       0.839 -13.366  10.182  0.00  0.00    +0.014 A 
ATOM     32  C   UNL     1       1.066 -13.685  11.505  0.00  0.00    +0.001 A 
ATOM     33  C   UNL     1       2.361 -13.781  11.985  0.00  0.00    +0.003 A 
ATOM     34  C   UNL     1       3.436 -13.559  11.144  0.00  0.00    +0.039 A 
ATOM     35  C   UNL     1       3.223 -13.245   9.815  0.00  0.00    +0.134 A 
ATOM     36  F   UNL     1       4.274 -13.034   8.992  0.00  0.00    -0.205 F 
ENDBRANCH  28  30
ENDBRANCH  24  25
ENDBRANCH  23  24
ENDBRANCH   7  23
TORSDOF 6
