REMARK  Name = ZINC59466240
REMARK  9 active torsions:
REMARK  status: ('A' for Active; 'I' for Inactive)
REMARK    1  A    between atoms: C_1  and  C_2
REMARK    2  A    between atoms: C_3  and  C_23
REMARK    3  A    between atoms: C_5  and  N_10
REMARK    4  A    between atoms: C_6  and  C_7
REMARK    5  A    between atoms: C_11  and  C_12
REMARK    6  A    between atoms: C_15  and  O_20
REMARK    7  A    between atoms: C_17  and  O_18
REMARK    8  A    between atoms: O_18  and  C_19
REMARK    9  A    between atoms: O_20  and  C_21
REMARK                            x       y       z     vdW  Elec       q    Type
REMARK                         _______ _______ _______ _____ _____    ______ ____
ROOT
ATOM      1  N   UNL     1       0.054  -3.023   2.123  0.00  0.00    -0.247 NA
ATOM      2  C   UNL     1       0.070  -4.302   1.844  0.00  0.00    +0.123 C 
ENDROOT
BRANCH   1   7
ATOM      3  C   UNL     1      -0.018   1.503   0.010  0.00  0.00    +0.045 C 
ATOM      4  C   UNL     1       0.002  -0.004   0.002  0.00  0.00    -0.026 A 
ATOM      5  C   UNL     1       0.006  -0.678  -1.166  0.00  0.00    -0.008 A 
ATOM      6  S   UNL     1       0.032  -2.383  -0.641  0.00  0.00    -0.074 S 
ATOM      7  C   UNL     1       0.037  -2.115   1.124  0.00  0.00    +0.114 A 
ATOM      8  C   UNL     1       0.023  -0.714   1.202  0.00  0.00    +0.072 A 
ATOM      9  C   UNL     1      -0.009  -0.128  -2.569  0.00  0.00    +0.052 C 
BRANCH   8  10
ATOM     10  C   UNL     1       0.025  -0.023   2.495  0.00  0.00    +0.244 C 
ATOM     11  O   UNL     1      -1.028   0.249   3.042  0.00  0.00    -0.270 OA
ATOM     12  N   UNL     1       1.194   0.310   3.079  0.00  0.00    -0.325 N 
ATOM     13  H   UNL     1       2.033   0.094   2.643  0.00  0.00    +0.145 HD
ATOM     14  H   UNL     1       1.195   0.767   3.934  0.00  0.00    +0.145 HD
ENDBRANCH   8  10
ENDBRANCH   1   7
BRANCH   2  15
ATOM     15  C   UNL     1       0.089  -5.288   2.929  0.00  0.00    +0.036 A 
ATOM     16  C   UNL     1       0.113  -6.658   2.635  0.00  0.00    +0.032 A 
ATOM     17  C   UNL     1       0.131  -7.579   3.657  0.00  0.00    +0.060 A 
ATOM     18  C   UNL     1       0.125  -7.156   4.983  0.00  0.00    +0.137 A 
ATOM     19  C   UNL     1       0.101  -5.802   5.286  0.00  0.00    +0.093 A 
ATOM     20  C   UNL     1       0.089  -4.864   4.269  0.00  0.00    +0.132 A 
ATOM     21 BR   UNL     1       0.162  -9.428   3.258  0.00  0.00    -0.046 Br
BRANCH  20  22
ATOM     22  O   UNL     1       0.072  -3.540   4.564  0.00  0.00    -0.494 OA
ATOM     23  C   UNL     1       0.073  -3.183   5.948  0.00  0.00    +0.277 C 
ENDBRANCH  20  22
BRANCH  18  24
ATOM     24  O   UNL     1       0.142  -8.072   5.985  0.00  0.00    -0.494 OA
ATOM     25  C   UNL     1       0.135  -7.570   7.323  0.00  0.00    +0.277 C 
ENDBRANCH  18  24
ENDBRANCH   2  15
TORSDOF 5
