REMARK  Name = ZINC12413244
REMARK  9 active torsions:
REMARK  status: ('A' for Active; 'I' for Inactive)
REMARK    1  A    between atoms: C_1  and  C_2
REMARK    2  A    between atoms: C_2  and  C_3
REMARK    3  A    between atoms: C_6  and  C_9
REMARK    4  A    between atoms: C_9  and  C_11
REMARK    5  A    between atoms: C_11  and  C_12
REMARK    6  A    between atoms: C_12  and  O_32
REMARK    7  A    between atoms: N_19  and  C_22
REMARK    8  A    between atoms: C_22  and  C_23
REMARK    9  A    between atoms: C_26  and  N_29
REMARK                            x       y       z     vdW  Elec       q    Type
REMARK                         _______ _______ _______ _____ _____    ______ ____
ROOT
ATOM      1  C   UNL     1      -0.753   1.593  -1.232  0.00  0.00    +0.175 C 
ATOM      2  C   UNL     1      -0.199   0.945  -2.480  0.00  0.00    +0.015 A 
ATOM      3  C   UNL     1       1.047   0.954  -3.066  0.00  0.00    +0.009 A 
ATOM      4  C   UNL     1       1.263   0.251  -4.238  0.00  0.00    +0.000 A 
ATOM      5  C   UNL     1       0.226  -0.458  -4.817  0.00  0.00    +0.002 A 
ATOM      6  C   UNL     1      -1.023  -0.469  -4.231  0.00  0.00    +0.024 A 
ATOM      7  C   UNL     1      -1.249   0.237  -3.051  0.00  0.00    +0.043 A 
ATOM      8  N   UNL     1      -2.403   0.379  -2.280  0.00  0.00    -0.264 N 
ATOM      9  C   UNL     1      -2.201   1.154  -1.201  0.00  0.00    +0.257 C 
ATOM     10  O   UNL     1      -3.025   1.447  -0.360  0.00  0.00    -0.272 OA
ENDROOT
BRANCH   1  11
ATOM     11  O   UNL     1      -0.662   3.016  -1.320  0.00  0.00    -0.374 OA
ATOM     12  H   UNL     1      -1.032   3.482  -0.557  0.00  0.00    +0.211 HD
ENDBRANCH   1  11
BRANCH   1  13
ATOM     13  C   UNL     1      -0.013   1.086   0.008  0.00  0.00    +0.129 C 
BRANCH  13  14
ATOM     14  C   UNL     1      -0.718   1.572   1.248  0.00  0.00    +0.167 C 
ATOM     15  O   UNL     1      -1.714   2.256   1.150  0.00  0.00    -0.292 OA
BRANCH  14  19
ATOM     16  C   UNL     1       0.781   0.545   5.081  0.00  0.00    -0.048 A 
ATOM     17  C   UNL     1      -0.356   1.327   4.973  0.00  0.00    +0.004 A 
ATOM     18  C   UNL     1      -0.850   1.665   3.731  0.00  0.00    +0.011 A 
ATOM     19  C   UNL     1      -0.198   1.216   2.578  0.00  0.00    +0.018 A 
ATOM     20  C   UNL     1       0.948   0.422   2.695  0.00  0.00    +0.011 A 
ATOM     21  C   UNL     1       1.432   0.098   3.945  0.00  0.00    +0.004 A 
BRANCH  16  23
ATOM     22  C   UNL     1       0.677  -1.131   6.905  0.00  0.00    +0.009 C 
ATOM     23  C   UNL     1       1.313   0.181   6.443  0.00  0.00    +0.032 C 
ENDBRANCH  16  23
ENDBRANCH  14  19
ENDBRANCH  13  14
ENDBRANCH   1  13
BRANCH   8  24
ATOM     24  C   UNL     1      -3.687  -0.244  -2.609  0.00  0.00    +0.148 C 
BRANCH  24  25
ATOM     25  C   UNL     1      -4.491   0.690  -3.478  0.00  0.00    -0.030 A 
ATOM     26  C   UNL     1      -5.351   1.603  -2.898  0.00  0.00    +0.007 A 
ATOM     27  C   UNL     1      -6.085   2.463  -3.695  0.00  0.00    +0.033 A 
ATOM     28  C   UNL     1      -5.965   2.402  -5.070  0.00  0.00    +0.126 A 
ATOM     29  C   UNL     1      -5.108   1.485  -5.650  0.00  0.00    +0.033 A 
ATOM     30  C   UNL     1      -4.371   0.629  -4.853  0.00  0.00    +0.007 A 
BRANCH  28  31
ATOM     31  N   UNL     1      -6.754   3.320  -5.923  0.00  0.00    +0.056 N 
ATOM     32  O   UNL     1      -6.649   3.266  -7.135  0.00  0.00    -0.126 OA
ATOM     33  O   UNL     1      -7.509   4.128  -5.413  0.00  0.00    -0.126 OA
ENDBRANCH  28  31
ENDBRANCH  24  25
ENDBRANCH   8  24
TORSDOF 8
