REMARK  Name = ZINC06733346
REMARK  10 active torsions:
REMARK  status: ('A' for Active; 'I' for Inactive)
REMARK    1  A    between atoms: C_3  and  C_8
REMARK    2  A    between atoms: C_8  and  C_9
REMARK    3  A    between atoms: C_9  and  N_10
REMARK    4  A    between atoms: N_10  and  C_11
REMARK    5  A    between atoms: C_15  and  C_18
REMARK    6  A    between atoms: C_18  and  C_19
REMARK    7  A    between atoms: N_21  and  C_22
REMARK    8  A    between atoms: C_22  and  C_23
REMARK    9  A    between atoms: C_23  and  O_24
REMARK   10  A    between atoms: O_24  and  N_25
REMARK                            x       y       z     vdW  Elec       q    Type
REMARK                         _______ _______ _______ _____ _____    ______ ____
ROOT
ATOM      1  C   UNL     1      -4.785   0.469   3.816  0.00  0.00    +0.063 A 
ATOM      2  C   UNL     1      -5.607  -0.097   2.852  0.00  0.00    +0.027 A 
ATOM      3  C   UNL     1      -5.320   0.078   1.512  0.00  0.00    +0.022 A 
ATOM      4  C   UNL     1      -4.216   0.820   1.129  0.00  0.00    +0.047 A 
ATOM      5  C   UNL     1      -3.391   1.382   2.088  0.00  0.00    +0.017 A 
ATOM      6  C   UNL     1      -3.673   1.211   3.431  0.00  0.00    +0.149 A 
ATOM      7  F   UNL     1      -2.870   1.763   4.366  0.00  0.00    -0.203 F 
ATOM      8 CL   UNL     1      -3.863   1.042  -0.556  0.00  0.00    -0.083 Cl
ENDROOT
BRANCH   1   9
ATOM      9  N   UNL     1      -5.073   0.294   5.174  0.00  0.00    -0.336 N 
ATOM     10  H   UNL     1      -4.498   0.689   5.847  0.00  0.00    +0.146 HD
BRANCH   9  11
ATOM     11  C   UNL     1      -6.244  -0.488   5.579  0.00  0.00    +0.183 C 
BRANCH  11  12
ATOM     12  C   UNL     1      -6.330  -0.525   7.106  0.00  0.00    +0.305 C 
ATOM     13  F   UNL     1      -5.173  -1.117   7.624  0.00  0.00    -0.197 F 
ATOM     14  F   UNL     1      -6.447   0.780   7.598  0.00  0.00    -0.197 F 
BRANCH  12  17
ATOM     15  C   UNL     1      -8.922  -2.239   9.239  0.00  0.00    +0.023 A 
ATOM     16  C   UNL     1      -7.809  -1.502   8.866  0.00  0.00    +0.031 A 
ATOM     17  C   UNL     1      -7.535  -1.329   7.523  0.00  0.00    +0.111 A 
ATOM     18  N   UNL     1      -8.312  -1.863   6.601  0.00  0.00    -0.252 NA
ATOM     19  C   UNL     1      -9.376  -2.574   6.918  0.00  0.00    +0.131 A 
ATOM     20  C   UNL     1      -9.716  -2.786   8.242  0.00  0.00    +0.059 A 
ATOM     21 CL   UNL     1     -11.119  -3.723   8.649  0.00  0.00    -0.082 Cl
ENDBRANCH  12  17
ENDBRANCH  11  12
ENDBRANCH   9  11
ENDBRANCH   1   9
BRANCH   5  22
ATOM     22  C   UNL     1      -2.187   2.186   1.668  0.00  0.00    +0.135 C 
BRANCH  22  23
ATOM     23  C   UNL     1      -0.993   1.274   1.544  0.00  0.00    +0.218 C 
ATOM     24  O   UNL     1      -1.108   0.089   1.774  0.00  0.00    -0.275 OA
ATOM     25  N   UNL     1       0.201   1.776   1.172  0.00  0.00    -0.313 N 
ATOM     26  H   UNL     1       0.293   2.724   0.988  0.00  0.00    +0.149 HD
BRANCH  25  27
ATOM     27  C   UNL     1       1.361   0.889   1.046  0.00  0.00    +0.135 C 
BRANCH  27  28
ATOM     28  C   UNL     1       2.581   1.704   0.614  0.00  0.00    +0.211 C 
BRANCH  28  29
ATOM     29  O   UNL     1       2.925   2.631   1.646  0.00  0.00    -0.270 OA
BRANCH  29  30
ATOM     30  N   UNL     1       4.048   3.439   1.345  0.00  0.00    -0.236 N 
ATOM     31  C   UNL     1       4.486   4.374   2.252  0.00  0.00    +0.190 C 
ATOM     32  N   UNL     1       5.576   5.158   1.959  0.00  0.00    -0.370 N 
ATOM     33  H   UNL     1       4.508   3.333   0.497  0.00  0.00    +0.197 HD
ATOM     34  H   UNL     1       4.100   5.149   4.096  0.00  0.00    +0.159 HD
ATOM     35  H   UNL     1       6.037   5.052   1.112  0.00  0.00    +0.159 HD
ATOM     36  H   UNL     1       5.885   5.818   2.600  0.00  0.00    +0.159 HD
ATOM     37  N   UNL     1       3.814   4.470   3.390  0.00  0.00    -0.370 N 
ATOM     38  H   UNL     1       3.005   3.861   3.562  0.00  0.00    +0.159 HD
ENDBRANCH  29  30
ENDBRANCH  28  29
ENDBRANCH  27  28
ENDBRANCH  25  27
ENDBRANCH  22  23
ENDBRANCH   5  22
TORSDOF 10
