REMARK  Name = ZINC42085079
REMARK  9 active torsions:
REMARK  status: ('A' for Active; 'I' for Inactive)
REMARK    1  A    between atoms: C_1  and  C_2
REMARK    2  A    between atoms: C_2  and  C_3
REMARK    3  A    between atoms: C_5  and  C_9
REMARK    4  A    between atoms: C_7  and  C_8
REMARK    5  A    between atoms: N_11  and  N_12
REMARK    6  A    between atoms: N_12  and  C_13
REMARK    7  A    between atoms: C_13  and  N_15
REMARK    8  A    between atoms: N_15  and  C_16
REMARK    9  A    between atoms: C_22  and  C_24
REMARK                            x       y       z     vdW  Elec       q    Type
REMARK                         _______ _______ _______ _____ _____    ______ ____
ROOT
ATOM      1  N   UNL     1       5.712  -2.460   4.079  0.00  0.00    -0.246 N 
ATOM      2  H   UNL     1       6.368  -2.430   3.365  0.00  0.00    +0.172 HD
ENDROOT
BRANCH   1   5
ATOM      3  C   UNL     1       4.027  -1.662   2.599  0.00  0.00    +0.267 C 
ATOM      4  O   UNL     1       4.850  -1.624   1.704  0.00  0.00    -0.268 OA
ATOM      5  N   UNL     1       4.388  -2.075   3.830  0.00  0.00    -0.231 N 
ATOM      6  H   UNL     1       3.732  -2.105   4.544  0.00  0.00    +0.173 HD
BRANCH   3   9
ATOM      7  C   UNL     1       0.731  -0.503   1.223  0.00  0.00    -0.037 A 
ATOM      8  C   UNL     1       2.069  -0.809   1.159  0.00  0.00    +0.024 A 
ATOM      9  C   UNL     1       2.641  -1.259   2.339  0.00  0.00    +0.076 A 
ATOM     10  S   UNL     1       1.253  -1.220   3.457  0.00  0.00    -0.089 S 
ATOM     11  C   UNL     1       0.077  -0.652   2.401  0.00  0.00    -0.009 A 
ATOM     12  C   UNL     1      -1.375  -0.373   2.696  0.00  0.00    +0.052 C 
BRANCH   7  14
ATOM     13  C   UNL     1      -0.019   1.526   0.010  0.00  0.00    +0.009 C 
ATOM     14  C   UNL     1       0.002  -0.004   0.002  0.00  0.00    +0.032 C 
ENDBRANCH   7  14
ENDBRANCH   3   9
ENDBRANCH   1   5
BRANCH   1  15
ATOM     15  C   UNL     1       6.074  -2.873   5.310  0.00  0.00    +0.147 C 
ATOM     16  S   UNL     1       7.691  -3.344   5.614  0.00  0.00    -0.017 S 
BRANCH  15  17
ATOM     17  N   UNL     1       5.162  -2.915   6.302  0.00  0.00    -0.322 N 
ATOM     18  H   UNL     1       4.245  -2.648   6.129  0.00  0.00    +0.148 HD
BRANCH  17  19
ATOM     19  C   UNL     1       5.555  -3.364   7.640  0.00  0.00    +0.075 C 
ATOM     20  C   UNL     1       5.483  -4.891   7.707  0.00  0.00    +0.022 C 
ATOM     21  C   UNL     1       5.894  -5.359   9.105  0.00  0.00    +0.002 C 
ATOM     22  C   UNL     1       4.945  -4.757  10.143  0.00  0.00    +0.000 C 
ATOM     23  C   UNL     1       5.017  -3.230  10.076  0.00  0.00    +0.005 C 
ATOM     24  C   UNL     1       4.607  -2.762   8.678  0.00  0.00    +0.006 C 
ATOM     25  C   UNL     1       4.679  -1.235   8.611  0.00  0.00    +0.009 C 
ENDBRANCH  17  19
ENDBRANCH  15  17
ENDBRANCH   1  15
TORSDOF 6
