REMARK  Name = ZINC09217751
REMARK  13 active torsions:
REMARK  status: ('A' for Active; 'I' for Inactive)
REMARK    1  A    between atoms: C_1  and  N_2
REMARK    2  A    between atoms: C_3  and  N_31
REMARK    3  A    between atoms: C_4  and  C_11
REMARK    4  A    between atoms: N_7  and  C_10
REMARK    5  A    between atoms: C_11  and  C_13
REMARK    6  A    between atoms: C_13  and  N_64
REMARK    7  A    between atoms: C_16  and  C_19
REMARK    8  A    between atoms: C_19  and  C_20
REMARK    9  A    between atoms: C_20  and  C_21
REMARK   10  A    between atoms: C_23  and  O_29
REMARK   11  A    between atoms: C_25  and  O_27
REMARK   12  A    between atoms: O_27  and  C_28
REMARK   13  A    between atoms: O_29  and  C_30
REMARK                            x       y       z     vdW  Elec       q    Type
REMARK                         _______ _______ _______ _____ _____    ______ ____
ROOT
ATOM      1  C   UNL     1      -0.118   9.446  -2.910  0.00  0.00    -0.078 C 
ATOM      2  C   UNL     1      -0.039   7.918  -2.925  0.00  0.00    -0.015 C 
ATOM      3  C   UNL     1      -0.115   7.394  -1.488  0.00  0.00    -0.014 C 
ATOM      4  C   UNL     1      -1.413   7.886  -0.842  0.00  0.00    -0.015 C 
ATOM      5  C   UNL     1      -1.452   9.415  -0.887  0.00  0.00    -0.078 C 
ATOM      6  N   UNL     1      -1.400   9.854  -2.298  0.00  0.00    +0.385 N 
ATOM      7  H   UNL     1      -2.171   9.412  -2.813  0.00  0.00    -0.081 HD
ENDROOT
BRANCH   6   8
ATOM      8  C   UNL     1      -1.552  11.322  -2.375  0.00  0.00    +0.002 C 
BRANCH   8   9
ATOM      9  C   UNL     1      -2.950  11.689  -1.948  0.00  0.00    +0.155 C 
ATOM     10  O   UNL     1      -3.726  10.821  -1.601  0.00  0.00    -0.294 OA
BRANCH   9  14
ATOM     11  C   UNL     1      -6.418  15.101  -1.396  0.00  0.00    +0.155 C 
ATOM     12  N   UNL     1      -5.034  14.718  -1.688  0.00  0.00    -0.284 N 
ATOM     13  C   UNL     1      -4.689  13.397  -1.677  0.00  0.00    +0.116 A 
ATOM     14  C   UNL     1      -3.357  13.040  -1.952  0.00  0.00    +0.118 A 
ATOM     15  C   UNL     1      -2.405  14.118  -2.250  0.00  0.00    +0.269 A 
ATOM     16  O   UNL     1      -1.241  13.867  -2.500  0.00  0.00    -0.267 OA
ATOM     17  N   UNL     1      -2.848  15.392  -2.240  0.00  0.00    -0.263 N 
ATOM     18  C   UNL     1      -4.132  15.673  -1.965  0.00  0.00    +0.333 A 
ATOM     19  O   UNL     1      -4.491  16.834  -1.966  0.00  0.00    -0.246 OA
ATOM     20  C   UNL     1      -1.917  16.483  -2.535  0.00  0.00    +0.157 C 
BRANCH  13  21
ATOM     21  N   UNL     1      -5.617  12.442  -1.400  0.00  0.00    -0.344 N 
ATOM     22  H   UNL     1      -5.348  11.514  -1.312  0.00  0.00    +0.144 HD
ATOM     23  H   UNL     1      -6.549  12.688  -1.290  0.00  0.00    +0.144 HD
ENDBRANCH  13  21
ENDBRANCH   9  14
ENDBRANCH   8   9
ENDBRANCH   6   8
BRANCH   3  24
ATOM     24  C   UNL     1      -0.097   5.864  -1.500  0.00  0.00    +0.008 C 
BRANCH  24  25
ATOM     25  C   UNL     1      -0.048   5.343  -0.063  0.00  0.00    +0.035 C 
BRANCH  25  26
ATOM     26  C   UNL     1      -0.030   3.836  -0.075  0.00  0.00    -0.040 A 
ATOM     27  C   UNL     1       1.174   3.161  -0.117  0.00  0.00    +0.049 A 
ATOM     28  C   UNL     1       1.193   1.773  -0.128  0.00  0.00    +0.124 A 
ATOM     29  C   UNL     1       0.001   1.065  -0.096  0.00  0.00    +0.091 A 
ATOM     30  C   UNL     1      -1.206   1.745  -0.060  0.00  0.00    +0.124 A 
ATOM     31  C   UNL     1      -1.219   3.133  -0.044  0.00  0.00    +0.049 A 
BRANCH  30  32
ATOM     32  O   UNL     1      -2.376   1.054  -0.035  0.00  0.00    -0.495 OA
ATOM     33  C   UNL     1      -2.287  -0.373  -0.048  0.00  0.00    +0.277 C 
ENDBRANCH  30  32
BRANCH  28  34
ATOM     34  O   UNL     1       2.378   1.109  -0.168  0.00  0.00    -0.495 OA
ATOM     35  C   UNL     1       2.321  -0.319  -0.176  0.00  0.00    +0.277 C 
ENDBRANCH  28  34
ENDBRANCH  25  26
ENDBRANCH  24  25
ENDBRANCH   3  24
TORSDOF 9
