REMARK  Name = ZINC65134607
REMARK  8 active torsions:
REMARK  status: ('A' for Active; 'I' for Inactive)
REMARK    1  A    between atoms: C_1  and  C_2
REMARK    2  A    between atoms: C_2  and  C_3
REMARK    3  A    between atoms: C_2  and  C_4
REMARK    4  A    between atoms: C_4  and  C_5
REMARK    5  A    between atoms: C_5  and  N_6
REMARK    6  A    between atoms: N_9  and  N_10
REMARK    7  A    between atoms: C_11  and  C_13
REMARK    8  A    between atoms: C_13  and  C_16
REMARK                            x       y       z     vdW  Elec       q    Type
REMARK                         _______ _______ _______ _____ _____    ______ ____
ROOT
ATOM      1  N   UNL     1      -6.044  -1.596  -1.192  0.00  0.00    -0.232 N 
ATOM      2  C   UNL     1      -7.309  -2.063  -1.198  0.00  0.00    +0.240 C 
ATOM      3  O   UNL     1      -8.058  -1.773  -2.106  0.00  0.00    -0.273 OA
ATOM      4  H   UNL     1      -5.468  -1.766  -0.430  0.00  0.00    +0.173 HD
ENDROOT
BRANCH   1   8
ATOM      5  N   UNL     1      -3.497  -0.636  -1.224  0.00  0.00    -0.298 N 
ATOM      6  C   UNL     1      -4.297  -0.401  -2.282  0.00  0.00    +0.316 C 
ATOM      7  O   UNL     1      -3.879   0.232  -3.232  0.00  0.00    -0.251 OA
ATOM      8  N   UNL     1      -5.562  -0.867  -2.287  0.00  0.00    -0.218 N 
ATOM      9  H   UNL     1      -3.831  -1.141  -0.466  0.00  0.00    +0.150 HD
ATOM     10  H   UNL     1      -6.138  -0.698  -3.049  0.00  0.00    +0.174 HD
BRANCH   5  11
ATOM     11  C   UNL     1      -2.122  -0.129  -1.218  0.00  0.00    +0.106 C 
BRANCH  11  12
ATOM     12  C   UNL     1      -1.436  -0.531   0.089  0.00  0.00    +0.022 C 
BRANCH  12  14
ATOM     13  C   UNL     1      -0.021   1.528   0.103  0.00  0.00    +0.007 C 
ATOM     14  C   UNL     1      -0.000  -0.002   0.095  0.00  0.00    -0.016 C 
ATOM     15  C   UNL     1       0.725  -0.508   1.343  0.00  0.00    +0.007 C 
ENDBRANCH  12  14
ENDBRANCH  11  12
ENDBRANCH   5  11
ENDBRANCH   1   8
BRANCH   2  16
ATOM     16  C   UNL     1      -7.791  -2.945  -0.075  0.00  0.00    +0.073 C 
ATOM     17  C   UNL     1      -9.153  -2.621   0.543  0.00  0.00    +0.022 C 
ATOM     18  C   UNL     1      -7.870  -2.328   1.323  0.00  0.00    +0.022 C 
BRANCH  16  19
ATOM     19  C   UNL     1      -7.399  -4.396  -0.174  0.00  0.00    -0.031 A 
ATOM     20  C   UNL     1      -7.219  -5.144   0.975  0.00  0.00    +0.005 A 
ATOM     21  C   UNL     1      -6.860  -6.476   0.884  0.00  0.00    +0.001 A 
ATOM     22  C   UNL     1      -6.680  -7.060  -0.355  0.00  0.00    +0.015 A 
ATOM     23  C   UNL     1      -6.860  -6.313  -1.505  0.00  0.00    +0.018 A 
ATOM     24  C   UNL     1      -7.225  -4.982  -1.414  0.00  0.00    +0.020 A 
ATOM     25 BR   UNL     1      -6.613  -7.112  -3.201  0.00  0.00    -0.050 Br
ENDBRANCH  16  19
ENDBRANCH   2  16
TORSDOF 6
