REMARK  Name = ZINC05676272
REMARK  2 active torsions:
REMARK  status: ('A' for Active; 'I' for Inactive)
REMARK    1  A    between atoms: C_6  and  C_7
REMARK    2  A    between atoms: N_20  and  N_21
REMARK                            x       y       z     vdW  Elec       q    Type
REMARK                         _______ _______ _______ _____ _____    ______ ____
ROOT
ATOM      1  C   UNL     1      -3.863   2.955   0.025  0.00  0.00    +0.162 A 
ATOM      2  N   UNL     1      -3.765   1.648   0.217  0.00  0.00    -0.220 NA
ATOM      3  C   UNL     1      -2.548   1.120   0.210  0.00  0.00    +0.116 A 
ATOM      4  C   UNL     1      -1.363   1.869   0.021  0.00  0.00    +0.077 A 
ATOM      5  C   UNL     1      -0.121   1.118   0.047  0.00  0.00    -0.023 A 
ATOM      6  C   UNL     1      -0.223  -0.219   0.239  0.00  0.00    -0.004 A 
ATOM      7  S   UNL     1      -1.963  -0.534   0.400  0.00  0.00    -0.073 S 
ATOM      8  C   UNL     1       0.894  -1.214   0.301  0.00  0.00    +0.043 C 
ATOM      9  C   UNL     1       2.164  -0.555  -0.256  0.00  0.00    +0.005 C 
ATOM     10  C   UNL     1       2.324   0.824   0.391  0.00  0.00    +0.005 C 
ATOM     11  C   UNL     1       1.246   1.772  -0.135  0.00  0.00    +0.037 C 
ATOM     12  C   UNL     1      -1.505   3.285  -0.168  0.00  0.00    +0.279 A 
ATOM     13  O   UNL     1      -0.544   4.016  -0.330  0.00  0.00    -0.265 OA
ATOM     14  N   UNL     1      -2.774   3.757  -0.155  0.00  0.00    -0.214 N 
ENDROOT
BRANCH   1  20
ATOM     15  C   UNL     1      -5.383   4.866   0.514  0.00  0.00    +0.013 A 
ATOM     16  C   UNL     1      -6.637   5.438   0.505  0.00  0.00    +0.021 A 
ATOM     17  C   UNL     1      -7.722   4.727   0.019  0.00  0.00    +0.041 A 
ATOM     18  C   UNL     1      -7.553   3.441  -0.466  0.00  0.00    +0.021 A 
ATOM     19  C   UNL     1      -6.303   2.860  -0.467  0.00  0.00    +0.013 A 
ATOM     20  C   UNL     1      -5.205   3.571   0.022  0.00  0.00    +0.019 A 
ATOM     21 CL   UNL     1      -9.300   5.451   0.017  0.00  0.00    -0.084 Cl
ENDBRANCH   1  20
BRANCH  14  22
ATOM     22  N   UNL     1      -2.973   5.097  -0.331  0.00  0.00    -0.294 N 
ATOM     23  H   UNL     1      -2.094   5.591  -0.368  0.00  0.00    +0.163 HD
ATOM     24  H   UNL     1      -3.524   5.276  -1.157  0.00  0.00    +0.163 HD
ENDBRANCH  14  22
TORSDOF 2
