REMARK  Name = ZINC12859433
REMARK  10 active torsions:
REMARK  status: ('A' for Active; 'I' for Inactive)
REMARK    1  A    between atoms: C_1  and  C_2
REMARK    2  A    between atoms: C_13  and  C_14
REMARK    3  A    between atoms: C_13  and  O_15
REMARK    4  A    between atoms: N_21  and  O_22
REMARK    5  A    between atoms: O_22  and  C_23
REMARK    6  A    between atoms: C_23  and  C_24
REMARK    7  A    between atoms: N_26  and  C_27
REMARK    8  A    between atoms: C_27  and  C_28
REMARK    9  A    between atoms: C_31  and  C_34
REMARK   10  A    between atoms: C_39  and  C_40
REMARK                            x       y       z     vdW  Elec       q    Type
REMARK                         _______ _______ _______ _____ _____    ______ ____
ROOT
ATOM      1  C   UNL     1       3.983   0.516  12.544  0.00  0.00    +0.014 C 
ATOM      2  C   UNL     1       2.952  -0.130  11.615  0.00  0.00    -0.000 C 
ATOM      3  C   UNL     1       3.444  -0.064  10.183  0.00  0.00    +0.010 C 
ATOM      4  C   UNL     1       3.748   1.411   9.869  0.00  0.00    +0.005 C 
ATOM      5  C   UNL     1       2.521   2.300  10.088  0.00  0.00    +0.006 C 
ATOM      6  C   UNL     1       1.958   2.124  11.503  0.00  0.00    -0.003 C 
ATOM      7  C   UNL     1       1.616   0.658  11.688  0.00  0.00    +0.001 C 
ATOM      8  C   UNL     1       1.098   0.259  13.074  0.00  0.00    +0.007 C 
ATOM      9  C   UNL     1       1.411  -1.261  13.137  0.00  0.00    +0.035 C 
ATOM     10  C   UNL     1       2.575  -1.509  12.145  0.00  0.00    +0.069 C 
ATOM     11  C   UNL     1       2.112  -2.409  10.998  0.00  0.00    +0.042 C 
ATOM     12  C   UNL     1       0.699   2.987  11.636  0.00  0.00    +0.008 C 
ATOM     13  C   UNL     1      -0.415   2.321  10.828  0.00  0.00    +0.032 C 
ATOM     14  C   UNL     1       0.066   2.016   9.439  0.00  0.00    -0.058 C 
ATOM     15  C   UNL     1      -0.849   1.678   8.511  0.00  0.00    +0.031 C 
ATOM     16  C   UNL     1      -0.284   1.281   7.186  0.00  0.00    +0.102 C 
ATOM     17  N   UNL     1      -0.821   1.648   6.054  0.00  0.00    -0.085 NA
ATOM     18  C   UNL     1       0.946   0.436   7.256  0.00  0.00    +0.027 C 
ATOM     19  C   UNL     1       1.835   0.802   8.198  0.00  0.00    -0.014 C 
ATOM     20  C   UNL     1       1.496   2.011   9.026  0.00  0.00    +0.011 C 
ATOM     21  C   UNL     1       1.621   3.185   8.052  0.00  0.00    +0.020 C 
ENDROOT
BRANCH  10  22
ATOM     22  O   UNL     1       3.687  -2.101  12.820  0.00  0.00    -0.388 OA
ATOM     23  H   UNL     1       3.590  -3.102  13.267  0.00  0.00    +0.210 HD
ENDBRANCH  10  22
BRANCH  17  24
ATOM     24  O   UNL     1      -0.236   1.245   4.829  0.00  0.00    -0.384 OA
BRANCH  24  25
ATOM     25  C   UNL     1      -0.927   1.718   3.671  0.00  0.00    +0.358 C 
BRANCH  25  26
ATOM     26  C   UNL     1      -0.222   1.232   2.431  0.00  0.00    +0.254 C 
ATOM     27  O   UNL     1       0.774   0.548   2.529  0.00  0.00    -0.272 OA
ATOM     28  N   UNL     1      -0.698   1.558   1.213  0.00  0.00    -0.308 N 
ATOM     29  H   UNL     1      -1.602   2.179   1.124  0.00  0.00    +0.149 HD
BRANCH  28  30
ATOM     30  C   UNL     1      -0.013   1.086   0.008  0.00  0.00    +0.139 C 
BRANCH  30  31
ATOM     31  C   UNL     1      -0.742   1.585  -1.213  0.00  0.00    -0.030 A 
ATOM     32  C   UNL     1      -1.750   0.821  -1.773  0.00  0.00    +0.006 A 
ATOM     33  C   UNL     1      -2.425   1.274  -2.888  0.00  0.00    +0.015 A 
ATOM     34  C   UNL     1      -2.080   2.502  -3.457  0.00  0.00    +0.063 A 
ATOM     35  C   UNL     1      -1.058   3.265  -2.890  0.00  0.00    +0.015 A 
ATOM     36  C   UNL     1      -0.395   2.802  -1.772  0.00  0.00    +0.006 A 
BRANCH  34  37
ATOM     37  C   UNL     1      -2.795   2.991  -4.654  0.00  0.00    +0.387 C 
ATOM     38  O   UNL     1      -2.493   4.060  -5.147  0.00  0.00    -0.241 OA
ATOM     39  O   UNL     1      -3.781   2.253  -5.199  0.00  0.00    -0.241 OA
ENDBRANCH  34  37
ENDBRANCH  30  31
ENDBRANCH  28  30
ENDBRANCH  25  26
ENDBRANCH  24  25
ENDBRANCH  17  24
TORSDOF 7
