REMARK  Name = ZINC04780562
REMARK  6 active torsions:
REMARK  status: ('A' for Active; 'I' for Inactive)
REMARK    1  A    between atoms: C_1  and  C_2
REMARK    2  A    between atoms: C_5  and  C_8
REMARK    3  A    between atoms: N_13  and  C_16
REMARK    4  A    between atoms: C_16  and  C_17
REMARK    5  A    between atoms: C_17  and  C_18
REMARK    6  A    between atoms: N_24  and  C_28
REMARK                            x       y       z     vdW  Elec       q    Type
REMARK                         _______ _______ _______ _____ _____    ______ ____
ROOT
ATOM      1  C   UNL     1       2.490   1.048  -0.016  0.00  0.00    +0.142 C 
ATOM      2  C   UNL     1       2.918   0.887  -1.460  0.00  0.00    +0.058 C 
ATOM      3  C   UNL     1       4.111   1.402  -1.822  0.00  0.00    +0.042 C 
ATOM      4  C   UNL     1       4.276   1.101  -3.295  0.00  0.00    +0.159 C 
ATOM      5  N   UNL     1       3.053   0.377  -3.672  0.00  0.00    -0.292 N 
ATOM      6  C   UNL     1       2.292   0.277  -2.567  0.00  0.00    +0.247 C 
ATOM      7  O   UNL     1       1.204  -0.269  -2.527  0.00  0.00    -0.270 OA
ATOM      8  N   UNL     1       4.907   2.047  -0.918  0.00  0.00    -0.260 N 
ATOM      9  C   UNL     1       4.578   2.217   0.369  0.00  0.00    +0.307 C 
ATOM     10  O   UNL     1       5.352   2.804   1.101  0.00  0.00    -0.252 OA
ATOM     11  N   UNL     1       3.419   1.758   0.880  0.00  0.00    -0.288 N 
ATOM     12  C   UNL     1       6.189   2.582  -1.383  0.00  0.00    +0.139 C 
ATOM     13  H   UNL     1       3.201   1.892   1.815  0.00  0.00    +0.151 HD
ENDROOT
BRANCH   1  18
ATOM     14  C   UNL     1      -2.553   3.869   0.044  0.00  0.00    +0.044 C 
ATOM     15  C   UNL     1      -1.238   3.133   0.029  0.00  0.00    -0.050 A 
ATOM     16  C   UNL     1      -1.219   1.751   0.017  0.00  0.00    +0.004 A 
ATOM     17  C   UNL     1      -0.013   1.076   0.008  0.00  0.00    +0.006 A 
ATOM     18  C   UNL     1       1.175   1.783   0.000  0.00  0.00    -0.023 A 
ATOM     19  C   UNL     1       1.156   3.165   0.008  0.00  0.00    +0.006 A 
ATOM     20  C   UNL     1      -0.050   3.840   0.022  0.00  0.00    +0.004 A 
ENDBRANCH   1  18
BRANCH   5  21
ATOM     21  C   UNL     1       2.724  -0.140  -5.002  0.00  0.00    +0.114 C 
BRANCH  21  22
ATOM     22  C   UNL     1       3.249  -1.571  -5.138  0.00  0.00    +0.074 C 
BRANCH  22  23
ATOM     23  C   UNL     1       2.912  -2.102  -6.507  0.00  0.00    +0.043 A 
ATOM     24  C   UNL     1       3.918  -2.594  -7.316  0.00  0.00    +0.023 A 
ATOM     25  C   UNL     1       3.596  -3.082  -8.574  0.00  0.00    +0.003 A 
ATOM     26  C   UNL     1       2.268  -3.055  -8.972  0.00  0.00    +0.020 A 
ATOM     27  C   UNL     1       1.316  -2.548  -8.108  0.00  0.00    +0.111 A 
ATOM     28  N   UNL     1       1.658  -2.098  -6.917  0.00  0.00    -0.260 NA
ENDBRANCH  22  23
ENDBRANCH  21  22
ENDBRANCH   5  21
TORSDOF 4
