REMARK  Name = ZINC20748790
REMARK  7 active torsions:
REMARK  status: ('A' for Active; 'I' for Inactive)
REMARK    1  A    between atoms: C_1  and  C_2
REMARK    2  A    between atoms: C_2  and  O_3
REMARK    3  A    between atoms: O_3  and  C_4
REMARK    4  A    between atoms: C_9  and  C_10
REMARK    5  A    between atoms: C_23  and  O_26
REMARK    6  A    between atoms: O_26  and  C_27
REMARK    7  A    between atoms: C_27  and  C_28
REMARK                            x       y       z     vdW  Elec       q    Type
REMARK                         _______ _______ _______ _____ _____    ______ ____
ROOT
ATOM      1  C   UNL     1       2.398   5.294   0.078  0.00  0.00    +0.109 C 
ATOM      2  C   UNL     1       1.208   5.793  -0.715  0.00  0.00    +0.029 C 
ATOM      3  C   UNL     1       0.903   7.295  -0.684  0.00  0.00    +0.033 C 
ATOM      4  C   UNL     1      -0.615   7.303  -0.879  0.00  0.00    -0.030 C 
ATOM      5  C   UNL     1      -1.133   6.159  -0.445  0.00  0.00    -0.023 C 
ATOM      6  C   UNL     1      -0.036   5.322   0.100  0.00  0.00    +0.049 C 
ATOM      7  C   UNL     1      -0.052   3.844   0.041  0.00  0.00    -0.016 A 
ATOM      8  C   UNL     1      -1.234   3.131   0.039  0.00  0.00    +0.006 A 
ATOM      9  C   UNL     1      -1.221   1.749   0.017  0.00  0.00    +0.004 A 
ATOM     10  C   UNL     1      -0.013   1.076   0.008  0.00  0.00    +0.047 A 
ATOM     11  C   UNL     1       1.175   1.781   0.000  0.00  0.00    +0.142 A 
ATOM     12  C   UNL     1       1.175   3.181   0.008  0.00  0.00    +0.074 A 
ATOM     13  N   UNL     1       2.412   3.827  -0.040  0.00  0.00    -0.334 N 
ATOM     14  H   UNL     1       3.367   3.294  -0.158  0.00  0.00    +0.147 HD
ENDROOT
BRANCH   1  20
ATOM     15  C   UNL     1       2.586   6.979   1.925  0.00  0.00    +0.125 A 
ATOM     16  C   UNL     1       2.448   7.346   3.256  0.00  0.00    +0.046 A 
ATOM     17  C   UNL     1       1.993   6.426   4.181  0.00  0.00    +0.004 A 
ATOM     18  C   UNL     1       1.669   5.143   3.780  0.00  0.00    +0.001 A 
ATOM     19  C   UNL     1       1.800   4.777   2.453  0.00  0.00    +0.009 A 
ATOM     20  C   UNL     1       2.255   5.693   1.524  0.00  0.00    +0.015 A 
BRANCH  15  21
ATOM     21  O   UNL     1       3.039   7.880   1.014  0.00  0.00    -0.492 OA
BRANCH  21  23
ATOM     22  C   UNL     1       3.850  10.054   0.337  0.00  0.00    +0.048 C 
ATOM     23  C   UNL     1       3.361   9.186   1.498  0.00  0.00    +0.225 C 
ENDBRANCH  21  23
ENDBRANCH  15  21
ENDBRANCH   1  20
BRANCH  11  24
ATOM     24  O   UNL     1       2.357   1.107  -0.014  0.00  0.00    -0.486 OA
BRANCH  24  25
ATOM     25  C   UNL     1       2.290  -0.320  -0.021  0.00  0.00    +0.256 C 
BRANCH  25  26
ATOM     26  C   UNL     1       3.686  -0.888  -0.037  0.00  0.00    +0.006 C 
ATOM     27  C   UNL     1       3.998  -1.882   0.757  0.00  0.00    +0.007 C 
ENDBRANCH  25  26
ENDBRANCH  24  25
ENDBRANCH  11  24
TORSDOF 6
