REMARK  Name = ZINC13063698
REMARK  14 active torsions:
REMARK  status: ('A' for Active; 'I' for Inactive)
REMARK    1  A    between atoms: C_1  and  C_2
REMARK    2  A    between atoms: C_2  and  C_3
REMARK    3  A    between atoms: C_10  and  C_15
REMARK    4  A    between atoms: C_15  and  N_73
REMARK    5  A    between atoms: C_16  and  C_17
REMARK    6  A    between atoms: C_16  and  N_73
REMARK    7  A    between atoms: C_22  and  O_23
REMARK    8  A    between atoms: O_23  and  C_24
REMARK    9  A    between atoms: C_25  and  C_27
REMARK   10  A    between atoms: C_25  and  C_29
REMARK   11  A    between atoms: C_25  and  N_73
REMARK   12  A    between atoms: C_27  and  C_28
REMARK   13  A    between atoms: N_33  and  C_34
REMARK   14  A    between atoms: C_34  and  C_35
REMARK                            x       y       z     vdW  Elec       q    Type
REMARK                         _______ _______ _______ _____ _____    ______ ____
ROOT
ATOM      1  N   UNL     1      -2.960   0.454  -1.462  0.00  0.00    +0.392 N 
ATOM      2  H   UNL     1      -3.251  -0.360  -2.016  0.00  0.00    -0.080 HD
ENDROOT
BRANCH   1   3
ATOM      3  C   UNL     1      -2.188   1.372  -2.327  0.00  0.00    -0.036 C 
BRANCH   3  11
ATOM      4  C   UNL     1       0.760  -1.989  -6.604  0.00  0.00    -0.047 A 
ATOM      5  C   UNL     1       1.961  -2.097  -5.917  0.00  0.00    +0.005 A 
ATOM      6  C   UNL     1       2.117  -1.516  -4.677  0.00  0.00    +0.026 A 
ATOM      7  C   UNL     1       1.061  -0.811  -4.108  0.00  0.00    +0.049 A 
ATOM      8  C   UNL     1      -0.155  -0.704  -4.808  0.00  0.00    -0.001 A 
ATOM      9  C   UNL     1      -0.290  -1.303  -6.065  0.00  0.00    +0.013 A 
ATOM     10  C   UNL     1      -1.260   0.040  -4.201  0.00  0.00    +0.017 A 
ATOM     11  C   UNL     1      -1.071   0.600  -2.980  0.00  0.00    +0.001 A 
ATOM     12  C   UNL     1       0.171   0.468  -2.323  0.00  0.00    +0.251 A 
ATOM     13  O   UNL     1       0.321   0.983  -1.228  0.00  0.00    -0.268 OA
ATOM     14  N   UNL     1       1.190  -0.218  -2.870  0.00  0.00    -0.322 N 
ATOM     15  H   UNL     1       2.028  -0.293  -2.389  0.00  0.00    +0.169 HD
BRANCH   4  17
ATOM     16  C   UNL     1       1.033  -1.643  -9.045  0.00  0.00    +0.009 C 
ATOM     17  C   UNL     1       0.614  -2.635  -7.958  0.00  0.00    +0.032 C 
ENDBRANCH   4  17
ENDBRANCH   3  11
ENDBRANCH   1   3
BRANCH   1  18
ATOM     18  C   UNL     1      -2.120  -0.006  -0.337  0.00  0.00    -0.038 C 
BRANCH  18  19
ATOM     19  C   UNL     1      -2.735  -1.251   0.248  0.00  0.00    -0.022 A 
ATOM     20  C   UNL     1      -3.332  -1.208   1.493  0.00  0.00    +0.005 A 
ATOM     21  C   UNL     1      -3.897  -2.350   2.030  0.00  0.00    +0.000 A 
ATOM     22  C   UNL     1      -3.868  -3.537   1.322  0.00  0.00    +0.004 A 
ATOM     23  C   UNL     1      -3.277  -3.584   0.074  0.00  0.00    +0.046 A 
ATOM     24  C   UNL     1      -2.704  -2.441  -0.464  0.00  0.00    +0.121 A 
BRANCH  24  25
ATOM     25  O   UNL     1      -2.118  -2.486  -1.690  0.00  0.00    -0.495 OA
ATOM     26  C   UNL     1      -2.025  -3.766  -2.318  0.00  0.00    +0.277 C 
ENDBRANCH  24  25
ENDBRANCH  18  19
ENDBRANCH   1  18
BRANCH   1  27
ATOM     27  C   UNL     1      -4.164   1.139  -0.947  0.00  0.00    +0.003 C 
BRANCH  27  28
ATOM     28  C   UNL     1      -5.127   0.102  -0.430  0.00  0.00    +0.138 A 
ATOM     29  N   UNL     1      -5.455  -1.023  -1.018  0.00  0.00    -0.115 NA
ATOM     30  N   UNL     1      -6.301  -1.635  -0.263  0.00  0.00    -0.023 NA
ATOM     31  N   UNL     1      -6.526  -0.926   0.788  0.00  0.00    -0.044 NA
ATOM     32  N   UNL     1      -5.821   0.152   0.722  0.00  0.00    -0.226 N 
BRANCH  32  33
ATOM     33  C   UNL     1      -5.783   1.229   1.714  0.00  0.00    +0.182 C 
BRANCH  33  34
ATOM     34  C   UNL     1      -6.837   2.255   1.383  0.00  0.00    -0.026 A 
ATOM     35  C   UNL     1      -6.528   3.322   0.561  0.00  0.00    +0.005 A 
ATOM     36  C   UNL     1      -7.496   4.260   0.253  0.00  0.00    +0.000 A 
ATOM     37  C   UNL     1      -8.770   4.136   0.776  0.00  0.00    +0.000 A 
ATOM     38  C   UNL     1      -9.077   3.071   1.603  0.00  0.00    +0.000 A 
ATOM     39  C   UNL     1      -8.110   2.131   1.906  0.00  0.00    +0.005 A 
ENDBRANCH  33  34
ENDBRANCH  32  33
ENDBRANCH  27  28
BRANCH  27  40
ATOM     40  C   UNL     1      -4.822   1.925  -2.083  0.00  0.00    -0.011 C 
ATOM     41  C   UNL     1      -5.218   0.963  -3.205  0.00  0.00    +0.002 C 
ENDBRANCH  27  40
ENDBRANCH   1  27
TORSDOF 11
