REMARK  Name = ZINC39942241
REMARK  8 active torsions:
REMARK  status: ('A' for Active; 'I' for Inactive)
REMARK    1  A    between atoms: C_1  and  C_2
REMARK    2  A    between atoms: C_4  and  N_15
REMARK    3  A    between atoms: C_5  and  C_14
REMARK    4  A    between atoms: N_7  and  C_8
REMARK    5  A    between atoms: C_16  and  C_18
REMARK    6  A    between atoms: C_18  and  N_19
REMARK    7  A    between atoms: C_22  and  C_27
REMARK    8  A    between atoms: C_27  and  C_28
REMARK                            x       y       z     vdW  Elec       q    Type
REMARK                         _______ _______ _______ _____ _____    ______ ____
ROOT
ATOM      1  C   UNL     1       0.978  -0.357  -4.969  0.00  0.00    +0.214 C 
ENDROOT
BRANCH   1   2
ATOM      2  N   UNL     1       2.021  -0.921  -5.830  0.00  0.00    -0.216 N 
ATOM      3  C   UNL     1       3.156  -0.277  -6.167  0.00  0.00    +0.244 C 
ATOM      4  O   UNL     1       3.493   0.837  -5.828  0.00  0.00    -0.273 OA
ATOM      5  C   UNL     1       3.922  -1.235  -7.057  0.00  0.00    +0.165 C 
ATOM      6  N   UNL     1       3.049  -2.419  -7.124  0.00  0.00    -0.287 N 
ATOM      7  C   UNL     1       1.967  -2.143  -6.373  0.00  0.00    +0.310 C 
ATOM      8  O   UNL     1       1.043  -2.915  -6.210  0.00  0.00    -0.252 OA
ATOM      9  H   UNL     1       3.221  -3.239  -7.612  0.00  0.00    +0.151 HD
BRANCH   5  10
ATOM     10  C   UNL     1       4.125  -0.631  -8.448  0.00  0.00    +0.069 C 
BRANCH  10  11
ATOM     11  C   UNL     1       4.993  -1.548  -9.272  0.00  0.00    -0.020 A 
ATOM     12  C   UNL     1       4.544  -2.705 -10.051  0.00  0.00    +0.003 A 
ATOM     13  C   UNL     1       3.301  -3.297 -10.281  0.00  0.00    +0.010 A 
ATOM     14  C   UNL     1       3.214  -4.400 -11.083  0.00  0.00    +0.001 A 
ATOM     15  C   UNL     1       4.351  -4.937 -11.670  0.00  0.00    +0.002 A 
ATOM     16  C   UNL     1       5.588  -4.369 -11.457  0.00  0.00    +0.026 A 
ATOM     17  C   UNL     1       5.700  -3.245 -10.645  0.00  0.00    +0.047 A 
ATOM     18  N   UNL     1       6.763  -2.466 -10.247  0.00  0.00    -0.360 N 
ATOM     19  C   UNL     1       6.322  -1.457  -9.434  0.00  0.00    +0.087 A 
ATOM     20  H   UNL     1       7.687  -2.608 -10.507  0.00  0.00    +0.165 HD
ENDBRANCH  10  11
ENDBRANCH   5  10
ENDBRANCH   1   2
BRANCH   1  22
ATOM     21  N   UNL     1       0.442  -0.284  -2.556  0.00  0.00    -0.285 N 
ATOM     22  C   UNL     1       1.272  -0.701  -3.532  0.00  0.00    +0.235 C 
ATOM     23  O   UNL     1       2.257  -1.354  -3.254  0.00  0.00    -0.274 OA
ATOM     24  H   UNL     1      -0.381   0.175  -2.783  0.00  0.00    +0.155 HD
BRANCH  21  27
ATOM     25  C   UNL     1      -0.174  -2.766  -0.689  0.00  0.00    +0.036 C 
ATOM     26  C   UNL     1       1.051  -1.856  -0.579  0.00  0.00    +0.137 C 
ATOM     27  C   UNL     1       0.769  -0.513  -1.213  0.00  0.00    +0.050 C 
ATOM     28  C   UNL     1       0.887   0.405  -0.270  0.00  0.00    +0.038 C 
ATOM     29  N   UNL     1       1.222  -0.159   0.956  0.00  0.00    -0.266 N 
ATOM     30  N   UNL     1       1.340  -1.553   0.833  0.00  0.00    -0.245 N 
ATOM     31  C   UNL     1       0.684   1.881  -0.495  0.00  0.00    +0.063 C 
ATOM     32  H   UNL     1       1.356   0.339   1.777  0.00  0.00    +0.170 HD
BRANCH  30  33
ATOM     33  C   UNL     1       1.663  -2.465   1.841  0.00  0.00    +0.048 A 
ATOM     34  C   UNL     1       1.744  -3.821   1.552  0.00  0.00    +0.025 A 
ATOM     35  C   UNL     1       2.064  -4.720   2.551  0.00  0.00    +0.002 A 
ATOM     36  C   UNL     1       2.303  -4.271   3.837  0.00  0.00    +0.000 A 
ATOM     37  C   UNL     1       2.223  -2.921   4.127  0.00  0.00    +0.002 A 
ATOM     38  C   UNL     1       1.909  -2.016   3.132  0.00  0.00    +0.025 A 
ENDBRANCH  30  33
ENDBRANCH  21  27
ENDBRANCH   1  22
TORSDOF 6
