REMARK  Name = ZINC57143303
REMARK  8 active torsions:
REMARK  status: ('A' for Active; 'I' for Inactive)
REMARK    1  A    between atoms: C_1  and  C_2
REMARK    2  A    between atoms: C_6  and  C_29
REMARK    3  A    between atoms: C_8  and  N_11
REMARK    4  A    between atoms: C_12  and  C_14
REMARK    5  A    between atoms: C_16  and  S_20
REMARK    6  A    between atoms: S_20  and  N_23
REMARK    7  A    between atoms: C_29  and  C_30
REMARK    8  A    between atoms: C_29  and  C_31
REMARK                            x       y       z     vdW  Elec       q    Type
REMARK                         _______ _______ _______ _____ _____    ______ ____
ROOT
ATOM      1  C   UNL     1      -2.644  -3.200   2.422  0.00  0.00    +0.104 A 
ATOM      2  C   UNL     1      -3.433  -3.392   3.536  0.00  0.00    +0.060 A 
ATOM      3  C   UNL     1      -4.663  -3.885   3.088  0.00  0.00    +0.123 A 
ATOM      4  C   UNL     1      -4.604  -3.985   1.739  0.00  0.00    +0.112 A 
ATOM      5  N   UNL     1      -3.385  -3.566   1.321  0.00  0.00    -0.355 N 
ATOM      6  H   UNL     1      -3.083  -3.531   0.400  0.00  0.00    +0.166 HD
ENDROOT
BRANCH   1   8
ATOM      7  N   UNL     1      -0.612  -2.548   1.244  0.00  0.00    -0.307 N 
ATOM      8  C   UNL     1      -1.268  -2.692   2.412  0.00  0.00    +0.261 C 
ATOM      9  O   UNL     1      -0.719  -2.401   3.458  0.00  0.00    -0.269 OA
ATOM     10  H   UNL     1      -1.049  -2.780   0.410  0.00  0.00    +0.149 HD
BRANCH   7  16
ATOM     11  C   UNL     1      -0.019   1.526   0.010  0.00  0.00    +0.007 C 
ATOM     12  C   UNL     1       0.002  -0.004   0.002  0.00  0.00    -0.012 C 
ATOM     13  C   UNL     1       0.718  -0.497  -1.257  0.00  0.00    +0.004 C 
ATOM     14  C   UNL     1       0.739  -2.027  -1.265  0.00  0.00    +0.006 C 
ATOM     15  C   UNL     1       1.479  -2.534  -0.026  0.00  0.00    +0.012 C 
ATOM     16  C   UNL     1       0.763  -2.041   1.233  0.00  0.00    +0.077 C 
ATOM     17  C   UNL     1       0.742  -0.511   1.242  0.00  0.00    +0.026 C 
BRANCH  15  18
ATOM     18  C   UNL     1       1.500  -4.064  -0.034  0.00  0.00    -0.012 C 
ATOM     19  C   UNL     1       2.216  -4.557  -1.293  0.00  0.00    +0.007 C 
ATOM     20  C   UNL     1       2.240  -4.571   1.205  0.00  0.00    +0.007 C 
ENDBRANCH  15  18
ENDBRANCH   7  16
ENDBRANCH   1   8
BRANCH   3  21
ATOM     21  S   UNL     1      -6.043  -4.305   4.101  0.00  0.00    +0.062 S 
ATOM     22  O   UNL     1      -6.814  -5.245   3.365  0.00  0.00    -0.153 OA
ATOM     23  O   UNL     1      -5.527  -4.588   5.394  0.00  0.00    -0.153 OA
BRANCH  21  24
ATOM     24  N   UNL     1      -6.972  -2.943   4.250  0.00  0.00    -0.172 NA
ATOM     25  C   UNL     1      -6.741  -1.984   5.342  0.00  0.00    +0.137 C 
ATOM     26  C   UNL     1      -6.635  -0.579   4.738  0.00  0.00    +0.177 C 
ATOM     27  O   UNL     1      -7.774  -0.336   3.910  0.00  0.00    -0.377 OA
ATOM     28  C   UNL     1      -7.883  -1.218   2.790  0.00  0.00    +0.177 C 
ATOM     29  C   UNL     1      -8.050  -2.652   3.291  0.00  0.00    +0.137 C 
ENDBRANCH  21  24
ENDBRANCH   3  21
TORSDOF 5
