REMARK  Name = ZINC59890624
REMARK  13 active torsions:
REMARK  status: ('A' for Active; 'I' for Inactive)
REMARK    1  A    between atoms: C_1  and  C_2
REMARK    2  A    between atoms: C_7  and  C_9
REMARK    3  A    between atoms: C_7  and  N_31
REMARK    4  A    between atoms: C_9  and  N_10
REMARK    5  A    between atoms: C_11  and  C_13
REMARK    6  A    between atoms: C_13  and  O_14
REMARK    7  A    between atoms: O_14  and  C_15
REMARK    8  A    between atoms: C_18  and  N_21
REMARK    9  A    between atoms: N_21  and  C_22
REMARK   10  A    between atoms: N_21  and  S_23
REMARK   11  A    between atoms: S_23  and  C_26
REMARK   12  A    between atoms: N_31  and  C_32
REMARK   13  A    between atoms: N_31  and  C_33
REMARK                            x       y       z     vdW  Elec       q    Type
REMARK                         _______ _______ _______ _____ _____    ______ ____
ROOT
ATOM      1  C   UNL     1       1.927  -6.265   2.920  0.00  0.00    +0.324 C 
ENDROOT
BRANCH   1   3
ATOM      2  N   UNL     1       1.627  -3.876   2.350  0.00  0.00    -0.314 N 
ATOM      3  C   UNL     1       2.236  -4.803   3.117  0.00  0.00    +0.251 C 
ATOM      4  O   UNL     1       3.032  -4.461   3.965  0.00  0.00    -0.272 OA
ATOM      5  H   UNL     1       0.991  -4.150   1.672  0.00  0.00    +0.149 HD
BRANCH   2   6
ATOM      6  C   UNL     1       1.928  -2.455   2.542  0.00  0.00    +0.092 C 
BRANCH   6  12
ATOM      7  C   UNL     1       0.635  -1.486  -2.187  0.00  0.00    +0.007 C 
ATOM      8  C   UNL     1       0.372  -1.131  -0.722  0.00  0.00    -0.015 C 
ATOM      9  C   UNL     1      -1.091  -1.423  -0.381  0.00  0.00    +0.003 C 
ATOM     10  C   UNL     1      -1.355  -1.068   1.083  0.00  0.00    -0.001 C 
ATOM     11  C   UNL     1      -0.445  -1.907   1.983  0.00  0.00    -0.010 C 
ATOM     12  C   UNL     1       1.018  -1.616   1.643  0.00  0.00    -0.050 C 
ATOM     13  C   UNL     1       1.281  -1.971   0.178  0.00  0.00    -0.007 C 
BRANCH  12  14
ATOM     14  N   UNL     1       1.297  -0.190   1.859  0.00  0.00    +0.381 N 
ATOM     15  C   UNL     1       1.076   0.143   3.272  0.00  0.00    -0.096 C 
ATOM     16  C   UNL     1       2.692   0.096   1.500  0.00  0.00    -0.096 C 
ATOM     17  H   UNL     1       0.681   0.364   1.282  0.00  0.00    -0.082 HD
ENDBRANCH  12  14
ENDBRANCH   6  12
ENDBRANCH   2   6
ENDBRANCH   1   3
BRANCH   1  18
ATOM     18  O   UNL     1       2.691  -7.042   3.844  0.00  0.00    -0.483 OA
BRANCH  18  19
ATOM     19  C   UNL     1       2.528  -8.392   3.798  0.00  0.00    +0.121 A 
ATOM     20  C   UNL     1       1.656  -8.954   2.878  0.00  0.00    +0.047 A 
ATOM     21  C   UNL     1       1.490 -10.324   2.830  0.00  0.00    +0.028 A 
ATOM     22  C   UNL     1       2.198 -11.139   3.704  0.00  0.00    +0.051 A 
ATOM     23  C   UNL     1       3.071 -10.576   4.625  0.00  0.00    +0.028 A 
ATOM     24  C   UNL     1       3.240  -9.205   4.667  0.00  0.00    +0.047 A 
BRANCH  22  25
ATOM     25  N   UNL     1       2.030 -12.528   3.657  0.00  0.00    -0.206 N 
ATOM     26  C   UNL     1       3.185 -13.397   3.419  0.00  0.00    +0.157 C 
BRANCH  25  27
ATOM     27  S   UNL     1       0.527 -13.188   3.871  0.00  0.00    +0.081 S 
ATOM     28  O   UNL     1       0.725 -14.474   4.443  0.00  0.00    -0.149 OA
ATOM     29  O   UNL     1      -0.270 -12.191   4.496  0.00  0.00    -0.149 OA
BRANCH  27  30
ATOM     30  C   UNL     1      -0.160 -13.450   2.269  0.00  0.00    +0.146 A 
ATOM     31  C   UNL     1      -0.076 -14.544   1.474  0.00  0.00    +0.036 A 
ATOM     32  C   UNL     1      -0.702 -14.526   0.241  0.00  0.00    +0.010 A 
ATOM     33  C   UNL     1      -1.381 -13.415  -0.135  0.00  0.00    +0.047 A 
ATOM     34  S   UNL     1      -1.152 -12.347   1.277  0.00  0.00    -0.077 S 
ENDBRANCH  27  30
ENDBRANCH  25  27
ENDBRANCH  22  25
ENDBRANCH  18  19
ENDBRANCH   1  18
TORSDOF 9
