REMARK  Name = ZINC24204162
REMARK  3 active torsions:
REMARK  status: ('A' for Active; 'I' for Inactive)
REMARK    1  A    between atoms: C_11  and  C_25
REMARK    2  A    between atoms: C_15  and  C_17
REMARK    3  A    between atoms: C_28  and  O_31
REMARK                            x       y       z     vdW  Elec       q    Type
REMARK                         _______ _______ _______ _____ _____    ______ ____
ROOT
ATOM      1  C   UNL     1       2.835   1.350   3.341  0.00  0.00    +0.001 A 
ATOM      2  C   UNL     1       4.016   1.961   2.951  0.00  0.00    +0.002 A 
ATOM      3  C   UNL     1       4.228   2.399   1.655  0.00  0.00    +0.026 A 
ATOM      4  C   UNL     1       3.192   2.200   0.744  0.00  0.00    +0.047 A 
ATOM      5  C   UNL     1       1.984   1.574   1.149  0.00  0.00    +0.004 A 
ATOM      6  C   UNL     1       1.798   1.141   2.465  0.00  0.00    +0.010 A 
ATOM      7  C   UNL     1       1.146   1.532  -0.028  0.00  0.00    -0.009 A 
ATOM      8  C   UNL     1       1.844   2.100  -1.037  0.00  0.00    +0.043 A 
ATOM      9  N   UNL     1       3.070   2.504  -0.582  0.00  0.00    -0.356 N 
ATOM     10  H   UNL     1       3.897   3.000  -1.111  0.00  0.00    +0.166 HD
ATOM     11  C   UNL     1       1.300   2.240  -2.439  0.00  0.00    +0.131 C 
ATOM     12  N   UNL     1       0.149   1.334  -2.585  0.00  0.00    -0.304 NA
ATOM     13  C   UNL     1      -0.827   1.529  -1.502  0.00  0.00    +0.094 C 
ATOM     14  C   UNL     1      -0.248   0.980  -0.190  0.00  0.00    +0.067 C 
ATOM     15  H   UNL     1      -0.352   1.529  -3.545  0.00  0.00    +0.123 HD
ENDROOT
BRANCH  14  16
ATOM     16  C   UNL     1      -1.107   1.418   0.969  0.00  0.00    -0.020 A 
ATOM     17  C   UNL     1      -1.294   2.765   1.220  0.00  0.00    +0.007 A 
ATOM     18  C   UNL     1      -2.086   3.167   2.279  0.00  0.00    +0.020 A 
ATOM     19  C   UNL     1      -2.682   2.222   3.095  0.00  0.00    +0.042 A 
ATOM     20  C   UNL     1      -2.491   0.875   2.848  0.00  0.00    +0.040 A 
ATOM     21  C   UNL     1      -1.703   0.473   1.784  0.00  0.00    +0.046 A 
ATOM     22 CL   UNL     1      -1.462  -1.218   1.472  0.00  0.00    -0.083 Cl
ATOM     23 CL   UNL     1      -3.671   2.728   4.430  0.00  0.00    -0.083 Cl
ENDBRANCH  14  16
BRANCH  11  24
ATOM     24  C   UNL     1       0.858   3.662  -2.671  0.00  0.00    -0.024 A 
ATOM     25  C   UNL     1      -0.131   3.935  -3.599  0.00  0.00    +0.009 A 
ATOM     26  C   UNL     1      -0.541   5.237  -3.810  0.00  0.00    +0.046 A 
ATOM     27  C   UNL     1       0.046   6.272  -3.098  0.00  0.00    +0.117 A 
ATOM     28  C   UNL     1       1.041   5.996  -2.171  0.00  0.00    +0.046 A 
ATOM     29  C   UNL     1       1.444   4.692  -1.960  0.00  0.00    +0.009 A 
BRANCH  27  30
ATOM     30  O   UNL     1      -0.352   7.555  -3.307  0.00  0.00    -0.507 OA
ATOM     31  H   UNL     1       0.115   8.375  -2.742  0.00  0.00    +0.292 HD
ENDBRANCH  27  30
ENDBRANCH  11  24
TORSDOF 3
