REMARK  Name = ZINC64052306
REMARK  6 active torsions:
REMARK  status: ('A' for Active; 'I' for Inactive)
REMARK    1  A    between atoms: C_4  and  C_7
REMARK    2  A    between atoms: C_12  and  N_13
REMARK    3  A    between atoms: C_14  and  C_16
REMARK    4  A    between atoms: C_16  and  N_17
REMARK    5  A    between atoms: C_20  and  C_25
REMARK    6  A    between atoms: C_25  and  C_26
REMARK                            x       y       z     vdW  Elec       q    Type
REMARK                         _______ _______ _______ _____ _____    ______ ____
ROOT
ATOM      1  N   UNL     1       2.529  -4.720   4.344  0.00  0.00    -0.216 N 
ATOM      2  C   UNL     1       2.379  -6.001   3.954  0.00  0.00    +0.244 C 
ATOM      3  O   UNL     1       1.859  -6.400   2.934  0.00  0.00    -0.273 OA
ATOM      4  C   UNL     1       2.997  -6.840   5.056  0.00  0.00    +0.165 C 
ATOM      5  N   UNL     1       3.467  -5.839   6.030  0.00  0.00    -0.287 N 
ATOM      6  C   UNL     1       3.153  -4.633   5.524  0.00  0.00    +0.310 C 
ATOM      7  O   UNL     1       3.406  -3.581   6.079  0.00  0.00    -0.252 OA
ATOM      8  H   UNL     1       3.918  -6.016   6.870  0.00  0.00    +0.151 HD
ENDROOT
BRANCH   1   9
ATOM      9  C   UNL     1       2.070  -3.565   3.569  0.00  0.00    +0.214 C 
BRANCH   9  11
ATOM     10  N   UNL     1       2.968  -2.064   1.819  0.00  0.00    -0.284 N 
ATOM     11  C   UNL     1       3.166  -3.118   2.636  0.00  0.00    +0.235 C 
ATOM     12  O   UNL     1       4.226  -3.707   2.621  0.00  0.00    -0.274 OA
ATOM     13  H   UNL     1       2.146  -1.553   1.877  0.00  0.00    +0.155 HD
BRANCH  10  19
ATOM     14  C   UNL     1       3.577  -1.201  -0.362  0.00  0.00    +0.003 A 
ATOM     15  C   UNL     1       4.562  -0.844  -1.280  0.00  0.00    +0.010 A 
ATOM     16  C   UNL     1       5.894  -0.997  -0.956  0.00  0.00    +0.001 A 
ATOM     17  C   UNL     1       6.258  -1.505   0.279  0.00  0.00    +0.002 A 
ATOM     18  C   UNL     1       5.291  -1.863   1.198  0.00  0.00    +0.024 A 
ATOM     19  C   UNL     1       3.948  -1.708   0.889  0.00  0.00    +0.041 A 
BRANCH  14  23
ATOM     20  C   UNL     1      -0.532  -0.735  -1.346  0.00  0.00    +0.000 A 
ATOM     21  C   UNL     1       0.345   0.317  -1.538  0.00  0.00    +0.001 A 
ATOM     22  C   UNL     1       1.681   0.171  -1.220  0.00  0.00    +0.008 A 
ATOM     23  C   UNL     1       2.144  -1.038  -0.705  0.00  0.00    -0.016 A 
ATOM     24  C   UNL     1       1.255  -2.095  -0.514  0.00  0.00    +0.008 A 
ATOM     25  C   UNL     1      -0.078  -1.938  -0.836  0.00  0.00    +0.001 A 
ENDBRANCH  14  23
ENDBRANCH  10  19
ENDBRANCH   9  11
ENDBRANCH   1   9
BRANCH   4  26
ATOM     26  C   UNL     1       1.948  -7.758   5.686  0.00  0.00    +0.065 C 
BRANCH  26  27
ATOM     27  C   UNL     1       2.613  -8.665   6.690  0.00  0.00    -0.039 C 
ATOM     28  C   UNL     1       2.710  -8.467   8.024  0.00  0.00    -0.001 A 
ATOM     29  C   UNL     1       2.244  -7.391   8.907  0.00  0.00    +0.010 A 
ATOM     30  C   UNL     1       2.498  -7.474  10.233  0.00  0.00    +0.001 A 
ATOM     31  C   UNL     1       3.192  -8.559  10.784  0.00  0.00    +0.002 A 
ATOM     32  C   UNL     1       3.651  -9.586  10.038  0.00  0.00    +0.026 A 
ATOM     33  C   UNL     1       3.440  -9.603   8.631  0.00  0.00    +0.043 A 
ATOM     34  N   UNL     1       3.781 -10.469   7.708  0.00  0.00    -0.380 N 
ATOM     35  C   UNL     1       3.300  -9.982   6.410  0.00  0.00    +0.144 C 
ATOM     36  H   UNL     1       4.268 -11.295   7.858  0.00  0.00    +0.160 HD
ENDBRANCH  26  27
ENDBRANCH   4  26
TORSDOF 6
