REMARK  Name = ZINC00756761
REMARK  6 active torsions:
REMARK  status: ('A' for Active; 'I' for Inactive)
REMARK    1  A    between atoms: C_4  and  C_7
REMARK    2  A    between atoms: C_7  and  O_8
REMARK    3  A    between atoms: O_8  and  C_9
REMARK    4  A    between atoms: C_9  and  C_11
REMARK    5  A    between atoms: C_12  and  N_29
REMARK    6  A    between atoms: C_14  and  C_24
REMARK                            x       y       z     vdW  Elec       q    Type
REMARK                         _______ _______ _______ _____ _____    ______ ____
ROOT
ATOM      1  C   UNL     1       1.210   2.116   0.345  0.00  0.00    +0.119 A 
ATOM      2  C   UNL     1       0.044   1.390   0.490  0.00  0.00    +0.056 A 
ATOM      3  C   UNL     1      -1.208   2.115   0.596  0.00  0.00    +0.038 A 
ATOM      4  C   UNL     1      -2.530   1.601   0.755  0.00  0.00    +0.005 A 
ATOM      5  C   UNL     1      -3.606   2.491   0.840  0.00  0.00    -0.017 A 
ATOM      6  C   UNL     1      -3.379   3.848   0.780  0.00  0.00    +0.046 A 
ATOM      7  N   UNL     1      -2.142   4.311   0.637  0.00  0.00    -0.244 NA
ATOM      8  C   UNL     1      -1.097   3.522   0.549  0.00  0.00    +0.112 A 
ATOM      9  S   UNL     1       0.646   3.806   0.356  0.00  0.00    -0.060 S 
ATOM     10  C   UNL     1      -4.491   4.860   0.875  0.00  0.00    +0.056 C 
ATOM     11  C   UNL     1      -5.841   4.202   0.600  0.00  0.00    +0.006 C 
ATOM     12  C   UNL     1      -5.966   2.963   1.494  0.00  0.00    +0.005 C 
ATOM     13  C   UNL     1      -4.986   1.906   0.992  0.00  0.00    +0.037 C 
ENDROOT
BRANCH   4  14
ATOM     14  C   UNL     1      -2.761   0.147   0.824  0.00  0.00    +0.020 A 
ATOM     15  C   UNL     1      -2.647  -0.794  -0.168  0.00  0.00    +0.016 A 
ATOM     16  C   UNL     1      -2.916  -2.109   0.134  0.00  0.00    +0.008 A 
ATOM     17  C   UNL     1      -3.284  -2.436   1.401  0.00  0.00    +0.046 A 
ATOM     18  S   UNL     1      -3.253  -0.850   2.221  0.00  0.00    -0.097 S 
ENDBRANCH   4  14
BRANCH   2  19
ATOM     19  N   UNL     1       0.069   0.003   0.527  0.00  0.00    -0.356 N 
ATOM     20  H   UNL     1      -0.681  -0.485   0.901  0.00  0.00    +0.142 HD
ATOM     21  H   UNL     1       0.837  -0.477   0.180  0.00  0.00    +0.142 HD
ENDBRANCH   2  19
BRANCH   1  22
ATOM     22  C   UNL     1       2.533   1.634   0.218  0.00  0.00    +0.348 C 
ATOM     23  O   UNL     1       2.748   0.436   0.230  0.00  0.00    -0.244 OA
BRANCH  22  24
ATOM     24  O   UNL     1       3.558   2.502   0.085  0.00  0.00    -0.456 OA
BRANCH  24  25
ATOM     25  C   UNL     1       4.868   1.945  -0.039  0.00  0.00    +0.268 C 
BRANCH  25  29
ATOM     26  C   UNL     1       7.724   5.097  -0.433  0.00  0.00    +0.000 A 
ATOM     27  C   UNL     1       7.388   4.621   0.821  0.00  0.00    +0.000 A 
ATOM     28  C   UNL     1       6.464   3.602   0.948  0.00  0.00    +0.007 A 
ATOM     29  C   UNL     1       5.875   3.057  -0.178  0.00  0.00    -0.010 A 
ATOM     30  C   UNL     1       6.215   3.529  -1.432  0.00  0.00    +0.007 A 
ATOM     31  C   UNL     1       7.136   4.553  -1.559  0.00  0.00    +0.000 A 
ENDBRANCH  25  29
ENDBRANCH  24  25
ENDBRANCH  22  24
ENDBRANCH   1  22
TORSDOF 6
