REMARK  Name = ZINC08386536
REMARK  5 active torsions:
REMARK  status: ('A' for Active; 'I' for Inactive)
REMARK    1  A    between atoms: C_4  and  C_7
REMARK    2  A    between atoms: C_7  and  C_24
REMARK    3  A    between atoms: C_9  and  C_11
REMARK    4  A    between atoms: N_13  and  C_14
REMARK    5  A    between atoms: C_17  and  N_21
REMARK                            x       y       z     vdW  Elec       q    Type
REMARK                         _______ _______ _______ _____ _____    ______ ____
ROOT
ATOM      1  C   UNL     1       2.333   1.113   0.269  0.00  0.00    +0.032 C 
ATOM      2  C   UNL     1       1.907   1.683  -1.085  0.00  0.00    +0.031 C 
ATOM      3  C   UNL     1       1.024   1.895   0.146  0.00  0.00    +0.091 C 
ENDROOT
BRANCH   1   7
ATOM      4  C   UNL     1       5.589   3.018   2.274  0.00  0.00    +0.000 A 
ATOM      5  C   UNL     1       5.769   1.780   1.685  0.00  0.00    +0.000 A 
ATOM      6  C   UNL     1       4.715   1.164   1.036  0.00  0.00    +0.004 A 
ATOM      7  C   UNL     1       3.482   1.785   0.976  0.00  0.00    -0.036 A 
ATOM      8  C   UNL     1       3.304   3.025   1.560  0.00  0.00    +0.004 A 
ATOM      9  C   UNL     1       4.356   3.639   2.213  0.00  0.00    +0.000 A 
ENDBRANCH   1   7
BRANCH   1  10
ATOM     10  C   UNL     1       2.238  -0.379   0.457  0.00  0.00    -0.036 A 
ATOM     11  C   UNL     1       1.623  -0.896   1.583  0.00  0.00    +0.004 A 
ATOM     12  C   UNL     1       1.532  -2.264   1.754  0.00  0.00    +0.000 A 
ATOM     13  C   UNL     1       2.062  -3.117   0.803  0.00  0.00    +0.000 A 
ATOM     14  C   UNL     1       2.681  -2.600  -0.320  0.00  0.00    +0.000 A 
ATOM     15  C   UNL     1       2.769  -1.232  -0.492  0.00  0.00    +0.004 A 
ENDBRANCH   1  10
BRANCH   3  16
ATOM     16  C   UNL     1      -0.263   1.114   0.223  0.00  0.00    +0.222 C 
ATOM     17  O   UNL     1      -0.541   0.317  -0.647  0.00  0.00    -0.275 OA
ATOM     18  N   UNL     1      -1.107   1.306   1.256  0.00  0.00    -0.284 N 
ATOM     19  H   UNL     1      -0.918   1.992   1.915  0.00  0.00    +0.155 HD
BRANCH  18  20
ATOM     20  C   UNL     1      -2.255   0.516   1.377  0.00  0.00    +0.048 A 
ATOM     21  C   UNL     1      -2.844  -0.035   0.246  0.00  0.00    +0.026 A 
ATOM     22  C   UNL     1      -3.977  -0.814   0.369  0.00  0.00    +0.034 A 
ATOM     23  C   UNL     1      -4.526  -1.048   1.617  0.00  0.00    +0.127 A 
ATOM     24  C   UNL     1      -3.943  -0.502   2.745  0.00  0.00    +0.049 A 
ATOM     25  C   UNL     1      -2.806   0.275   2.630  0.00  0.00    +0.041 A 
ATOM     26 BR   UNL     1      -2.004   1.015   4.175  0.00  0.00    -0.048 Br
BRANCH  23  27
ATOM     27  N   UNL     1      -5.740  -1.885   1.745  0.00  0.00    +0.056 N 
ATOM     28  O   UNL     1      -6.255  -2.367   0.752  0.00  0.00    -0.126 OA
ATOM     29  O   UNL     1      -6.225  -2.091   2.843  0.00  0.00    -0.126 OA
ENDBRANCH  23  27
ENDBRANCH  18  20
ENDBRANCH   3  16
TORSDOF 5
