REMARK  Name = ZINC21305118
REMARK  9 active torsions:
REMARK  status: ('A' for Active; 'I' for Inactive)
REMARK    1  A    between atoms: C_1  and  C_2
REMARK    2  A    between atoms: C_2  and  C_3
REMARK    3  A    between atoms: C_2  and  C_4
REMARK    4  A    between atoms: C_2  and  C_10
REMARK    5  A    between atoms: C_10  and  C_12
REMARK    6  A    between atoms: C_10  and  N_23
REMARK    7  A    between atoms: C_14  and  N_20
REMARK    8  A    between atoms: C_17  and  O_18
REMARK    9  A    between atoms: O_18  and  C_19
REMARK                            x       y       z     vdW  Elec       q    Type
REMARK                         _______ _______ _______ _____ _____    ______ ____
ROOT
ATOM      1  C   UNL     1      -0.018   1.503   0.010  0.00  0.00    -0.030 C 
ENDROOT
BRANCH   1   2
ATOM      2  C   UNL     1       0.002  -0.004   0.002  0.00  0.00    -0.017 A 
ATOM      3  C   UNL     1      -0.916  -0.704  -0.758  0.00  0.00    +0.038 A 
ATOM      4  C   UNL     1      -0.894  -2.086  -0.770  0.00  0.00    +0.127 A 
ATOM      5  C   UNL     1       0.039  -2.772  -0.014  0.00  0.00    +0.036 A 
ATOM      6  C   UNL     1       0.955  -2.077   0.752  0.00  0.00    +0.048 A 
ATOM      7  C   UNL     1       0.939  -0.690   0.761  0.00  0.00    +0.122 A 
BRANCH   4   8
ATOM      8  N   UNL     1      -1.875  -2.833  -1.589  0.00  0.00    +0.056 N 
ATOM      9  O   UNL     1      -1.860  -4.051  -1.597  0.00  0.00    -0.126 OA
ATOM     10  O   UNL     1      -2.696  -2.230  -2.255  0.00  0.00    -0.126 OA
ENDBRANCH   4   8
BRANCH   7  11
ATOM     11  O   UNL     1       1.839  -0.004   1.513  0.00  0.00    -0.495 OA
ATOM     12  C   UNL     1       2.774  -0.775   2.270  0.00  0.00    +0.277 C 
ENDBRANCH   7  11
ENDBRANCH   1   2
BRANCH   1  13
ATOM     13  N   UNL     1      -0.729   1.989  -1.180  0.00  0.00    +0.383 N 
ATOM     14  H   UNL     1      -0.214   1.635  -2.085  0.00  0.00    -0.089 HD
ATOM     15  H   UNL     1      -0.744   3.089  -1.174  0.00  0.00    -0.089 HD
ATOM     16  H   UNL     1      -1.761   1.609  -1.172  0.00  0.00    -0.089 HD
ENDBRANCH   1  13
BRANCH   1  18
ATOM     17  C   UNL     1      -2.170   1.467   1.280  0.00  0.00    +0.014 C 
ATOM     18  C   UNL     1      -0.735   1.996   1.269  0.00  0.00    -0.019 C 
ATOM     19  C   UNL     1       0.005   1.489   2.509  0.00  0.00    +0.014 C 
BRANCH  18  20
ATOM     20  C   UNL     1      -0.755   3.503   1.277  0.00  0.00    -0.043 A 
ATOM     21  C   UNL     1      -0.171   4.208   0.242  0.00  0.00    +0.004 A 
ATOM     22  C   UNL     1      -0.194   5.590   0.247  0.00  0.00    +0.000 A 
ATOM     23  C   UNL     1      -0.792   6.267   1.293  0.00  0.00    +0.000 A 
ATOM     24  C   UNL     1      -1.371   5.563   2.331  0.00  0.00    +0.000 A 
ATOM     25  C   UNL     1      -1.353   4.180   2.324  0.00  0.00    +0.004 A 
ENDBRANCH  18  20
ENDBRANCH   1  18
TORSDOF 6
