REMARK  Name = ZINC37544110
REMARK  7 active torsions:
REMARK  status: ('A' for Active; 'I' for Inactive)
REMARK    1  A    between atoms: C_4  and  O_12
REMARK    2  A    between atoms: C_5  and  C_7
REMARK    3  A    between atoms: C_8  and  C_9
REMARK    4  A    between atoms: C_9  and  C_10
REMARK    5  A    between atoms: C_10  and  O_11
REMARK    6  A    between atoms: O_12  and  C_13
REMARK    7  A    between atoms: C_13  and  C_14
REMARK                            x       y       z     vdW  Elec       q    Type
REMARK                         _______ _______ _______ _____ _____    ______ ____
ROOT
ATOM      1  C   UNL     1      -0.017   1.375   0.010  0.00  0.00    +0.001 A 
ATOM      2  C   UNL     1       1.169   2.089   0.002  0.00  0.00    +0.004 A 
ATOM      3  C   UNL     1       2.382   1.427  -0.013  0.00  0.00    +0.047 A 
ATOM      4  C   UNL     1       2.418   0.042  -0.022  0.00  0.00    +0.136 A 
ATOM      5  C   UNL     1       1.221  -0.683  -0.014  0.00  0.00    +0.067 A 
ATOM      6  C   UNL     1       0.002  -0.004   0.002  0.00  0.00    +0.020 A 
ENDROOT
BRANCH   5   7
ATOM      7  C   UNL     1       1.246  -2.115  -0.022  0.00  0.00    -0.063 C 
ATOM      8  C   UNL     1       1.268  -3.289  -0.030  0.00  0.00    -0.095 C 
BRANCH   8   9
ATOM      9  C   UNL     1       1.294  -4.760  -0.039  0.00  0.00    +0.117 C 
BRANCH   9  10
ATOM     10  C   UNL     1      -0.139  -5.297  -0.027  0.00  0.00    +0.168 C 
BRANCH  10  11
ATOM     11  O   UNL     1      -0.113  -6.725  -0.036  0.00  0.00    -0.394 OA
ATOM     12  H   UNL     1      -0.989  -7.135  -0.029  0.00  0.00    +0.209 HD
ENDBRANCH  10  11
ENDBRANCH   9  10
ENDBRANCH   8   9
ENDBRANCH   5   7
BRANCH   4  13
ATOM     13  O   UNL     1       3.610  -0.609  -0.038  0.00  0.00    -0.486 OA
BRANCH  13  14
ATOM     14  C   UNL     1       4.790   0.197  -0.046  0.00  0.00    +0.266 C 
BRANCH  14  15
ATOM     15  C   UNL     1       6.006  -0.693  -0.063  0.00  0.00    +0.008 A 
ATOM     16  C   UNL     1       5.856  -2.067  -0.075  0.00  0.00    +0.010 A 
ATOM     17  C   UNL     1       6.971  -2.884  -0.092  0.00  0.00    +0.020 A 
ATOM     18  C   UNL     1       8.238  -2.326  -0.097  0.00  0.00    +0.042 A 
ATOM     19  C   UNL     1       8.388  -0.951  -0.085  0.00  0.00    +0.040 A 
ATOM     20  C   UNL     1       7.271  -0.134  -0.073  0.00  0.00    +0.049 A 
ATOM     21 CL   UNL     1       7.458   1.592  -0.065  0.00  0.00    -0.083 Cl
ATOM     22 CL   UNL     1       9.638  -3.352  -0.116  0.00  0.00    -0.083 Cl
ENDBRANCH  14  15
ENDBRANCH  13  14
ENDBRANCH   4  13
TORSDOF 7
