REMARK  Name = ZINC30563217
REMARK  5 active torsions:
REMARK  status: ('A' for Active; 'I' for Inactive)
REMARK    1  A    between atoms: C_1  and  C_2
REMARK    2  A    between atoms: C_12  and  C_16
REMARK    3  A    between atoms: N_18  and  C_19
REMARK    4  A    between atoms: N_18  and  C_20
REMARK    5  A    between atoms: C_20  and  C_21
REMARK                            x       y       z     vdW  Elec       q    Type
REMARK                         _______ _______ _______ _____ _____    ______ ____
ROOT
ATOM      1  C   UNL     1       1.874  -6.708   1.513  0.00  0.00    +0.249 C 
ATOM      2  O   UNL     1       0.892  -7.220   1.011  0.00  0.00    -0.270 OA
ATOM      3  N   UNL     1       3.075  -7.312   1.413  0.00  0.00    -0.293 N 
ATOM      4  C   UNL     1       4.239  -6.747   2.100  0.00  0.00    +0.133 C 
ENDROOT
BRANCH   1  15
ATOM      5  C   UNL     1      -1.612   1.081   0.907  0.00  0.00    +0.008 C 
ATOM      6  C   UNL     1      -1.356  -0.426   0.840  0.00  0.00    -0.009 C 
ATOM      7  C   UNL     1      -0.943  -0.811  -0.584  0.00  0.00    +0.009 C 
ATOM      8  C   UNL     1      -0.929  -2.337  -0.715  0.00  0.00    +0.054 C 
ATOM      9  C   UNL     1      -0.129  -2.913   0.430  0.00  0.00    +0.020 A 
ATOM     10  C   UNL     1       0.179  -2.224   1.550  0.00  0.00    -0.019 A 
ATOM     11  C   UNL     1       0.949  -3.114   2.395  0.00  0.00    +0.004 A 
ATOM     12  C   UNL     1       1.531  -2.955   3.656  0.00  0.00    +0.010 A 
ATOM     13  C   UNL     1       2.213  -4.042   4.179  0.00  0.00    +0.001 A 
ATOM     14  C   UNL     1       2.322  -5.237   3.497  0.00  0.00    +0.015 A 
ATOM     15  C   UNL     1       1.751  -5.427   2.234  0.00  0.00    +0.061 A 
ATOM     16  C   UNL     1       1.053  -4.336   1.684  0.00  0.00    +0.059 A 
ATOM     17  N   UNL     1       0.392  -4.178   0.506  0.00  0.00    -0.357 N 
ATOM     18  H   UNL     1       0.302  -4.861  -0.178  0.00  0.00    +0.166 HD
ATOM     19  C   UNL     1      -0.232  -0.798   1.814  0.00  0.00    +0.040 C 
ENDBRANCH   1  15
BRANCH   3  20
ATOM     20  C   UNL     1       3.216  -8.533   0.616  0.00  0.00    +0.181 C 
BRANCH  20  21
ATOM     21  C   UNL     1       3.562  -8.168  -0.805  0.00  0.00    +0.128 A 
ATOM     22  N   UNL     1       3.731  -9.171  -1.707  0.00  0.00    -0.309 N 
ATOM     23  H   UNL     1       3.629 -10.096  -1.435  0.00  0.00    +0.170 HD
ATOM     24  C   UNL     1       4.042  -8.865  -2.989  0.00  0.00    +0.266 A 
ATOM     25  O   UNL     1       4.200  -9.742  -3.822  0.00  0.00    -0.267 OA
ATOM     26  C   UNL     1       4.178  -7.519  -3.330  0.00  0.00    +0.102 A 
ATOM     27  C   UNL     1       3.998  -6.501  -2.377  0.00  0.00    +0.085 A 
ATOM     28  N   UNL     1       3.680  -6.915  -1.107  0.00  0.00    -0.232 NA
ATOM     29  C   UNL     1       4.163  -5.193  -2.854  0.00  0.00    +0.036 A 
ATOM     30  C   UNL     1       4.474  -4.976  -4.150  0.00  0.00    +0.048 A 
ATOM     31  S   UNL     1       4.561  -6.630  -4.816  0.00  0.00    -0.090 S 
ENDBRANCH  20  21
ENDBRANCH   3  20
TORSDOF 3
