REMARK  Name = ZINC45869911
REMARK  6 active torsions:
REMARK  status: ('A' for Active; 'I' for Inactive)
REMARK    1  A    between atoms: C_6  and  C_7
REMARK    2  A    between atoms: C_7  and  C_9
REMARK    3  A    between atoms: C_7  and  O_23
REMARK    4  A    between atoms: C_9  and  S_10
REMARK    5  A    between atoms: S_10  and  C_11
REMARK    6  A    between atoms: N_16  and  C_17
REMARK                            x       y       z     vdW  Elec       q    Type
REMARK                         _______ _______ _______ _____ _____    ______ ____
ROOT
ATOM      1  C   UNL     1      -3.484  -2.435   3.164  0.00  0.00    +0.160 A 
ATOM      2  N   UNL     1      -2.753  -2.112   4.213  0.00  0.00    -0.133 NA
ATOM      3  N   UNL     1      -3.155  -2.494   5.472  0.00  0.00    -0.125 NA
ATOM      4  C   UNL     1      -4.270  -3.182   5.624  0.00  0.00    +0.183 A 
ATOM      5  S   UNL     1      -4.830  -3.322   3.934  0.00  0.00    -0.025 S 
ATOM      6  N   UNL     1      -4.855  -3.664   6.789  0.00  0.00    -0.319 N 
ATOM      7  H   UNL     1      -5.687  -4.160   6.744  0.00  0.00    +0.148 HD
ENDROOT
BRANCH   6   8
ATOM      8  C   UNL     1      -4.215  -3.423   8.084  0.00  0.00    +0.072 C 
ATOM      9  C   UNL     1      -3.161  -4.502   8.341  0.00  0.00    +0.022 C 
ATOM     10  C   UNL     1      -2.493  -4.250   9.694  0.00  0.00    +0.002 C 
ATOM     11  C   UNL     1      -3.548  -4.294  10.801  0.00  0.00    +0.000 C 
ATOM     12  C   UNL     1      -4.602  -3.215  10.544  0.00  0.00    +0.002 C 
ATOM     13  C   UNL     1      -5.271  -3.467   9.191  0.00  0.00    +0.022 C 
ENDBRANCH   6   8
BRANCH   1  14
ATOM     14  S   UNL     1      -3.211  -2.079   1.460  0.00  0.00    -0.094 S 
BRANCH  14  15
ATOM     15  C   UNL     1      -1.653  -1.152   1.449  0.00  0.00    +0.112 C 
BRANCH  15  16
ATOM     16  C   UNL     1      -1.293  -0.775   0.011  0.00  0.00    +0.155 C 
BRANCH  16  22
ATOM     17  C   UNL     1      -0.017   1.378   0.010  0.00  0.00    +0.007 A 
ATOM     18  C   UNL     1       1.171   2.086   0.002  0.00  0.00    +0.020 A 
ATOM     19  C   UNL     1       2.378   1.410  -0.013  0.00  0.00    +0.041 A 
ATOM     20  C   UNL     1       2.396   0.027  -0.021  0.00  0.00    +0.020 A 
ATOM     21  C   UNL     1       1.208  -0.679  -0.013  0.00  0.00    +0.007 A 
ATOM     22  C   UNL     1       0.002  -0.004   0.002  0.00  0.00    -0.018 A 
ATOM     23 CL   UNL     1       3.870   2.298  -0.023  0.00  0.00    -0.084 Cl
ENDBRANCH  16  22
BRANCH  16  24
ATOM     24  O   UNL     1      -1.145  -1.963  -0.770  0.00  0.00    -0.386 OA
ATOM     25  H   UNL     1      -0.455  -2.560  -0.450  0.00  0.00    +0.210 HD
ENDBRANCH  16  24
ENDBRANCH  15  16
ENDBRANCH  14  15
ENDBRANCH   1  14
TORSDOF 6
