REMARK  Name = ZINC41285203
REMARK  5 active torsions:
REMARK  status: ('A' for Active; 'I' for Inactive)
REMARK    1  A    between atoms: C_4  and  C_7
REMARK    2  A    between atoms: C_10  and  C_15
REMARK    3  A    between atoms: C_15  and  C_16
REMARK    4  A    between atoms: N_18  and  C_19
REMARK    5  A    between atoms: C_24  and  C_25
REMARK                            x       y       z     vdW  Elec       q    Type
REMARK                         _______ _______ _______ _____ _____    ______ ____
ROOT
ATOM      1  C   UNL     1       3.716  -0.693  -0.063  0.00  0.00    +0.090 A 
ATOM      2  C   UNL     1       3.876  -2.038  -0.072  0.00  0.00    +0.121 A 
ATOM      3  N   UNL     1       5.242  -2.299  -0.073  0.00  0.00    -0.296 N 
ATOM      4  C   UNL     1       6.077  -3.396  -0.080  0.00  0.00    +0.041 A 
ATOM      5  C   UNL     1       7.400  -3.245  -0.079  0.00  0.00    +0.070 A 
ATOM      6  S   UNL     1       7.571  -1.468  -0.068  0.00  0.00    -0.057 S 
ATOM      7  C   UNL     1       5.839  -1.065  -0.066  0.00  0.00    +0.178 A 
ATOM      8  N   UNL     1       4.939  -0.125  -0.066  0.00  0.00    -0.221 NA
ENDROOT
BRANCH   1  12
ATOM      9  C   UNL     1       0.002   1.378  -0.051  0.00  0.00    +0.000 A 
ATOM     10  C   UNL     1       1.188   2.090  -0.052  0.00  0.00    +0.001 A 
ATOM     11  C   UNL     1       2.396   1.423  -0.056  0.00  0.00    +0.010 A 
ATOM     12  C   UNL     1       2.420   0.029  -0.058  0.00  0.00    +0.002 A 
ATOM     13  C   UNL     1       1.222  -0.683  -0.057  0.00  0.00    +0.010 A 
ATOM     14  C   UNL     1       0.019  -0.005  -0.053  0.00  0.00    +0.001 A 
ENDBRANCH   1  12
BRANCH   4  15
ATOM     15  C   UNL     1       5.485  -4.781  -0.089  0.00  0.00    +0.150 C 
BRANCH  15  16
ATOM     16  C   UNL     1       5.173  -5.204   1.324  0.00  0.00    +0.223 C 
ATOM     17  O   UNL     1       5.409  -4.453   2.247  0.00  0.00    -0.275 OA
ATOM     18  N   UNL     1       4.633  -6.415   1.562  0.00  0.00    -0.284 N 
ATOM     19  H   UNL     1       4.371  -6.983   0.820  0.00  0.00    +0.155 HD
BRANCH  18  20
ATOM     20  C   UNL     1       4.452  -6.852   2.873  0.00  0.00    +0.051 A 
ATOM     21  C   UNL     1       5.243  -6.344   3.893  0.00  0.00    +0.024 A 
ATOM     22  C   UNL     1       5.062  -6.778   5.191  0.00  0.00    +0.002 A 
ATOM     23  C   UNL     1       4.091  -7.722   5.486  0.00  0.00    +0.001 A 
ATOM     24  C   UNL     1       3.296  -8.238   4.485  0.00  0.00    +0.021 A 
ATOM     25  C   UNL     1       3.464  -7.804   3.168  0.00  0.00    +0.073 A 
BRANCH  25  26
ATOM     26  C   UNL     1       2.637  -8.332   2.125  0.00  0.00    +0.101 C 
ATOM     27  N   UNL     1       1.982  -8.751   1.297  0.00  0.00    -0.191 NA
ENDBRANCH  25  26
ENDBRANCH  18  20
ENDBRANCH  15  16
ENDBRANCH   4  15
TORSDOF 5
