REMARK  Name = ZINC14276211
REMARK  10 active torsions:
REMARK  status: ('A' for Active; 'I' for Inactive)
REMARK    1  A    between atoms: C_1  and  C_2
REMARK    2  A    between atoms: C_2  and  C_3
REMARK    3  A    between atoms: C_3  and  C_4
REMARK    4  A    between atoms: C_4  and  C_5
REMARK    5  A    between atoms: N_7  and  C_8
REMARK    6  A    between atoms: C_12  and  N_14
REMARK    7  A    between atoms: N_14  and  C_15
REMARK    8  A    between atoms: C_15  and  N_17
REMARK    9  A    between atoms: C_18  and  C_20
REMARK   10  A    between atoms: C_23  and  C_25
REMARK                            x       y       z     vdW  Elec       q    Type
REMARK                         _______ _______ _______ _____ _____    ______ ____
ROOT
ATOM      1  C   UNL     1      -1.218  -1.975   0.829  0.00  0.00    +0.141 C 
ATOM      2  S   UNL     1      -0.118  -2.125   2.132  0.00  0.00    -0.018 S 
ENDROOT
BRANCH   1   3
ATOM      3  N   UNL     1      -2.277  -2.804   0.743  0.00  0.00    -0.261 N 
ATOM      4  C   UNL     1      -2.470  -3.751   1.682  0.00  0.00    +0.285 C 
ATOM      5  O   UNL     1      -1.688  -3.857   2.609  0.00  0.00    -0.266 OA
ATOM      6  H   UNL     1      -2.901  -2.720   0.004  0.00  0.00    +0.157 HD
BRANCH   4   7
ATOM      7  C   UNL     1      -3.620  -4.651   1.589  0.00  0.00    +0.190 A 
ATOM      8  C   UNL     1      -3.932  -5.662   2.473  0.00  0.00    +0.055 A 
ATOM      9  C   UNL     1      -5.105  -6.261   2.005  0.00  0.00    +0.051 A 
ATOM     10  C   UNL     1      -5.459  -5.608   0.858  0.00  0.00    +0.137 A 
ATOM     11  O   UNL     1      -4.558  -4.641   0.617  0.00  0.00    -0.450 OA
BRANCH  10  12
ATOM     12  C   UNL     1      -6.636  -5.915   0.022  0.00  0.00    +0.036 A 
ATOM     13  C   UNL     1      -6.882  -7.227  -0.389  0.00  0.00    +0.014 A 
ATOM     14  C   UNL     1      -7.986  -7.508  -1.165  0.00  0.00    +0.021 A 
ATOM     15  C   UNL     1      -8.845  -6.491  -1.548  0.00  0.00    +0.042 A 
ATOM     16  C   UNL     1      -8.606  -5.187  -1.149  0.00  0.00    +0.040 A 
ATOM     17  C   UNL     1      -7.507  -4.893  -0.367  0.00  0.00    +0.053 A 
ATOM     18 CL   UNL     1      -7.207  -3.257   0.131  0.00  0.00    -0.083 Cl
ATOM     19 CL   UNL     1     -10.229  -6.854  -2.531  0.00  0.00    -0.083 Cl
ENDBRANCH  10  12
ENDBRANCH   4   7
ENDBRANCH   1   3
BRANCH   1  20
ATOM     20  N   UNL     1      -1.025  -1.029  -0.111  0.00  0.00    -0.297 N 
ATOM     21  H   UNL     1      -1.690  -0.890  -0.803  0.00  0.00    +0.154 HD
BRANCH  20  26
ATOM     22  C   UNL     1       2.508  -0.051   0.222  0.00  0.00    +0.035 A 
ATOM     23  C   UNL     1       2.427   1.311  -0.044  0.00  0.00    +0.023 A 
ATOM     24  C   UNL     1       1.205   1.888  -0.330  0.00  0.00    +0.004 A 
ATOM     25  C   UNL     1       0.060   1.115  -0.353  0.00  0.00    +0.023 A 
ATOM     26  C   UNL     1       0.135  -0.246  -0.087  0.00  0.00    +0.034 A 
ATOM     27  C   UNL     1       1.360  -0.830   0.201  0.00  0.00    +0.046 A 
BRANCH  22  30
ATOM     28  C   UNL     1       4.010  -1.892   0.104  0.00  0.00    +0.217 C 
ATOM     29  O   UNL     1       3.147  -2.545  -0.444  0.00  0.00    -0.275 OA
ATOM     30  N   UNL     1       3.746  -0.635   0.512  0.00  0.00    -0.285 N 
ATOM     31  H   UNL     1       4.414  -0.135   1.007  0.00  0.00    +0.155 HD
BRANCH  28  32
ATOM     32  C   UNL     1       5.377  -2.486   0.329  0.00  0.00    +0.096 C 
BRANCH  32  33
ATOM     33  C   UNL     1       5.410  -3.912  -0.223  0.00  0.00    +0.009 C 
BRANCH  33  35
ATOM     34  C   UNL     1       6.831  -5.941  -0.547  0.00  0.00    +0.004 C 
ATOM     35  C   UNL     1       6.798  -4.515   0.005  0.00  0.00    -0.003 C 
ENDBRANCH  33  35
ENDBRANCH  32  33
ENDBRANCH  28  32
ENDBRANCH  22  30
ENDBRANCH  20  26
ENDBRANCH   1  20
TORSDOF 9
