REMARK  Name = ZINC42195936
REMARK  7 active torsions:
REMARK  status: ('A' for Active; 'I' for Inactive)
REMARK    1  A    between atoms: C_4  and  C_7
REMARK    2  A    between atoms: N_9  and  N_10
REMARK    3  A    between atoms: C_11  and  C_13
REMARK    4  A    between atoms: C_13  and  C_14
REMARK    5  A    between atoms: C_14  and  C_15
REMARK    6  A    between atoms: C_15  and  C_16
REMARK    7  A    between atoms: C_16  and  C_17
REMARK                            x       y       z     vdW  Elec       q    Type
REMARK                         _______ _______ _______ _____ _____    ______ ____
ROOT
ATOM      1  N   UNL     1       4.942  -2.713  -0.060  0.00  0.00    -0.234 N 
ATOM      2  C   UNL     1       4.963  -4.061  -0.068  0.00  0.00    +0.229 C 
ATOM      3  O   UNL     1       3.923  -4.684  -0.061  0.00  0.00    -0.274 OA
ATOM      4  H   UNL     1       5.774  -2.215  -0.066  0.00  0.00    +0.173 HD
ENDROOT
BRANCH   1   7
ATOM      5  C   UNL     1       3.696  -0.685  -0.037  0.00  0.00    +0.260 C 
ATOM      6  O   UNL     1       4.738  -0.060  -0.044  0.00  0.00    -0.269 OA
ATOM      7  N   UNL     1       3.717  -2.032  -0.045  0.00  0.00    -0.230 N 
ATOM      8  H   UNL     1       2.885  -2.531  -0.039  0.00  0.00    +0.173 HD
BRANCH   5  12
ATOM      9  C   UNL     1      -0.017   1.379   0.010  0.00  0.00    +0.000 A 
ATOM     10  C   UNL     1       1.168   2.094   0.002  0.00  0.00    +0.001 A 
ATOM     11  C   UNL     1       2.377   1.429  -0.013  0.00  0.00    +0.013 A 
ATOM     12  C   UNL     1       2.403   0.034  -0.021  0.00  0.00    +0.038 A 
ATOM     13  C   UNL     1       1.204  -0.681  -0.013  0.00  0.00    +0.013 A 
ATOM     14  C   UNL     1       0.002  -0.004   0.002  0.00  0.00    +0.001 A 
ENDBRANCH   5  12
ENDBRANCH   1   7
BRANCH   2  15
ATOM     15  C   UNL     1       6.280  -4.793  -0.085  0.00  0.00    +0.097 C 
BRANCH  15  16
ATOM     16  C   UNL     1       6.025  -6.301  -0.090  0.00  0.00    +0.010 C 
BRANCH  16  17
ATOM     17  C   UNL     1       7.362  -7.045  -0.107  0.00  0.00    +0.005 C 
BRANCH  17  18
ATOM     18  C   UNL     1       7.107  -8.553  -0.113  0.00  0.00    +0.035 C 
BRANCH  18  19
ATOM     19  C   UNL     1       8.424  -9.286  -0.130  0.00  0.00    -0.047 A 
ATOM     20  C   UNL     1       9.019  -9.610  -1.335  0.00  0.00    +0.005 A 
ATOM     21  C   UNL     1      10.227 -10.281  -1.351  0.00  0.00    +0.015 A 
ATOM     22  C   UNL     1      10.841 -10.629  -0.161  0.00  0.00    +0.018 A 
ATOM     23  C   UNL     1      10.245 -10.304   1.044  0.00  0.00    +0.015 A 
ATOM     24  C   UNL     1       9.040  -9.628   1.060  0.00  0.00    +0.005 A 
ATOM     25 BR   UNL     1      12.493 -11.547  -0.182  0.00  0.00    -0.050 Br
ENDBRANCH  18  19
ENDBRANCH  17  18
ENDBRANCH  16  17
ENDBRANCH  15  16
ENDBRANCH   2  15
TORSDOF 7
