REMARK  Name = ZINC01347546
REMARK  13 active torsions:
REMARK  status: ('A' for Active; 'I' for Inactive)
REMARK    1  A    between atoms: C_1  and  C_2
REMARK    2  A    between atoms: C_2  and  C_3
REMARK    3  A    between atoms: C_2  and  C_4
REMARK    4  A    between atoms: C_2  and  C_5
REMARK    5  A    between atoms: C_5  and  C_6
REMARK    6  A    between atoms: C_6  and  C_7
REMARK    7  A    between atoms: C_6  and  C_8
REMARK    8  A    between atoms: C_6  and  N_9
REMARK    9  A    between atoms: N_9  and  C_10
REMARK   10  A    between atoms: C_11  and  C_19
REMARK   11  A    between atoms: C_22  and  O_26
REMARK   12  A    between atoms: C_23  and  O_25
REMARK   13  A    between atoms: O_26  and  C_27
REMARK                            x       y       z     vdW  Elec       q    Type
REMARK                         _______ _______ _______ _____ _____    ______ ____
ROOT
ATOM      1  C   UNL     1       4.877   0.501  -3.372  0.00  0.00    +0.132 A 
ATOM      2  C   UNL     1       5.764   0.546  -4.433  0.00  0.00    +0.112 A 
ATOM      3  N   UNL     1       6.896   1.125  -4.005  0.00  0.00    -0.224 NA
ATOM      4  C   UNL     1       6.766   1.447  -2.731  0.00  0.00    +0.158 A 
ATOM      5  N   UNL     1       5.506   1.072  -2.310  0.00  0.00    -0.285 N 
ATOM      6  C   UNL     1       5.137   1.312  -1.011  0.00  0.00    +0.114 A 
ATOM      7  C   UNL     1       6.004   1.911  -0.170  0.00  0.00    +0.129 A 
ATOM      8  N   UNL     1       7.224   2.279  -0.576  0.00  0.00    -0.258 NA
ATOM      9  C   UNL     1       7.631   2.066  -1.805  0.00  0.00    +0.157 A 
ENDROOT
BRANCH   2  10
ATOM     10  C   UNL     1       5.508   0.041  -5.803  0.00  0.00    +0.007 A 
ATOM     11  C   UNL     1       4.725  -1.097  -5.993  0.00  0.00    +0.014 A 
ATOM     12  C   UNL     1       4.488  -1.567  -7.269  0.00  0.00    +0.050 A 
ATOM     13  C   UNL     1       5.027  -0.909  -8.364  0.00  0.00    +0.161 A 
ATOM     14  C   UNL     1       5.810   0.228  -8.181  0.00  0.00    +0.159 A 
ATOM     15  C   UNL     1       6.045   0.706  -6.904  0.00  0.00    +0.059 A 
BRANCH  14  16
ATOM     16  O   UNL     1       6.338   0.871  -9.257  0.00  0.00    -0.503 OA
ATOM     17  H   UNL     1       5.768   1.563  -9.620  0.00  0.00    +0.292 HD
ENDBRANCH  14  16
BRANCH  13  18
ATOM     18  O   UNL     1       4.791  -1.375  -9.620  0.00  0.00    -0.491 OA
ATOM     19  C   UNL     1       3.980  -2.546  -9.736  0.00  0.00    +0.277 C 
ENDBRANCH  13  18
ENDBRANCH   2  10
BRANCH   1  20
ATOM     20  N   UNL     1       3.586  -0.022  -3.390  0.00  0.00    -0.323 N 
ATOM     21  H   UNL     1       3.226  -0.397  -4.208  0.00  0.00    +0.148 HD
BRANCH  20  22
ATOM     22  C   UNL     1       2.772  -0.005  -2.171  0.00  0.00    +0.028 C 
ATOM     23  C   UNL     1       2.572   1.440  -1.712  0.00  0.00    +0.031 C 
ATOM     24  C   UNL     1       3.483  -0.796  -1.072  0.00  0.00    +0.031 C 
BRANCH  22  25
ATOM     25  C   UNL     1       1.411  -0.642  -2.459  0.00  0.00    +0.031 C 
BRANCH  25  27
ATOM     26  C   UNL     1       1.543  -1.089  -4.913  0.00  0.00    +0.010 C 
ATOM     27  C   UNL     1       0.920  -0.197  -3.837  0.00  0.00    -0.036 C 
ATOM     28  C   UNL     1       1.331   1.257  -4.080  0.00  0.00    +0.010 C 
ATOM     29  C   UNL     1      -0.604  -0.313  -3.898  0.00  0.00    +0.010 C 
ENDBRANCH  25  27
ENDBRANCH  22  25
ENDBRANCH  20  22
ENDBRANCH   1  20
TORSDOF 7
