REMARK  Name = ZINC08143403
REMARK  9 active torsions:
REMARK  status: ('A' for Active; 'I' for Inactive)
REMARK    1  A    between atoms: C_1  and  C_2
REMARK    2  A    between atoms: C_5  and  C_9
REMARK    3  A    between atoms: C_6  and  C_8
REMARK    4  A    between atoms: N_11  and  N_12
REMARK    5  A    between atoms: C_13  and  C_15
REMARK    6  A    between atoms: C_15  and  N_16
REMARK    7  A    between atoms: N_16  and  C_17
REMARK    8  A    between atoms: N_16  and  S_18
REMARK    9  A    between atoms: S_18  and  C_21
REMARK                            x       y       z     vdW  Elec       q    Type
REMARK                         _______ _______ _______ _____ _____    ______ ____
ROOT
ATOM      1  N   UNL     1       2.106  -3.381  -3.120  0.00  0.00    -0.233 N 
ATOM      2  C   UNL     1       2.407  -2.412  -2.232  0.00  0.00    +0.245 C 
ATOM      3  O   UNL     1       1.734  -1.404  -2.184  0.00  0.00    -0.273 OA
ATOM      4  H   UNL     1       2.644  -4.187  -3.159  0.00  0.00    +0.173 HD
ENDROOT
BRANCH   1   7
ATOM      5  C   UNL     1       0.716  -4.191  -4.875  0.00  0.00    +0.260 C 
ATOM      6  O   UNL     1       1.390  -5.201  -4.924  0.00  0.00    -0.269 OA
ATOM      7  N   UNL     1       1.017  -3.223  -3.987  0.00  0.00    -0.230 N 
ATOM      8  H   UNL     1       0.479  -2.416  -3.948  0.00  0.00    +0.173 HD
BRANCH   5  13
ATOM      9  C   UNL     1      -3.757  -3.541  -8.436  0.00  0.00    +0.044 C 
ATOM     10  C   UNL     1      -2.586  -3.711  -7.503  0.00  0.00    -0.050 A 
ATOM     11  C   UNL     1      -2.357  -2.778  -6.508  0.00  0.00    +0.004 A 
ATOM     12  C   UNL     1      -1.286  -2.928  -5.651  0.00  0.00    +0.013 A 
ATOM     13  C   UNL     1      -0.433  -4.024  -5.790  0.00  0.00    +0.041 A 
ATOM     14  C   UNL     1      -0.666  -4.958  -6.800  0.00  0.00    -0.038 A 
ATOM     15  C   UNL     1      -1.744  -4.800  -7.647  0.00  0.00    +0.007 A 
ATOM     16  C   UNL     1       0.253  -6.141  -6.961  0.00  0.00    +0.044 C 
ENDBRANCH   5  13
ENDBRANCH   1   7
BRANCH   2  17
ATOM     17  C   UNL     1       3.579  -2.582  -1.300  0.00  0.00    +0.206 C 
BRANCH  17  18
ATOM     18  N   UNL     1       3.694  -1.402  -0.440  0.00  0.00    -0.170 NA
ATOM     19  C   UNL     1       4.421  -0.220  -0.912  0.00  0.00    +0.132 C 
BRANCH  18  20
ATOM     20  S   UNL     1       3.003  -1.402   1.065  0.00  0.00    +0.067 S 
ATOM     21  O   UNL     1       3.713  -0.445   1.838  0.00  0.00    -0.152 OA
ATOM     22  O   UNL     1       2.886  -2.763   1.457  0.00  0.00    -0.152 OA
BRANCH  20  23
ATOM     23  C   UNL     1       1.361  -0.788   0.884  0.00  0.00    +0.144 A 
ATOM     24  C   UNL     1       0.217  -1.470   0.636  0.00  0.00    +0.038 A 
ATOM     25  C   UNL     1      -0.972  -0.771   0.533  0.00  0.00    +0.030 A 
ATOM     26  C   UNL     1      -0.956   0.577   0.683  0.00  0.00    +0.080 A 
ATOM     27  S   UNL     1       0.775   0.896   0.980  0.00  0.00    -0.057 S 
ATOM     28 CL   UNL     1      -2.277   1.701   0.601  0.00  0.00    -0.076 Cl
ENDBRANCH  20  23
ENDBRANCH  18  20
ENDBRANCH  17  18
ENDBRANCH   2  17
TORSDOF 6
