REMARK  Name = ZINC17633889
REMARK  8 active torsions:
REMARK  status: ('A' for Active; 'I' for Inactive)
REMARK    1  A    between atoms: C_4  and  C_7
REMARK    2  A    between atoms: N_10  and  C_12
REMARK    3  A    between atoms: C_12  and  C_13
REMARK    4  A    between atoms: C_16  and  C_19
REMARK    5  A    between atoms: N_21  and  N_22
REMARK    6  A    between atoms: C_23  and  C_25
REMARK    7  A    between atoms: C_25  and  C_26
REMARK    8  A    between atoms: C_35  and  O_38
REMARK                            x       y       z     vdW  Elec       q    Type
REMARK                         _______ _______ _______ _____ _____    ______ ____
ROOT
ATOM      1  C   UNL     1      -0.421   1.372   4.836  0.00  0.00    +0.260 C 
ATOM      2  O   UNL     1       0.578   0.686   4.935  0.00  0.00    -0.269 OA
ATOM      3  N   UNL     1      -0.897   1.698   3.618  0.00  0.00    -0.230 N 
ATOM      4  H   UNL     1      -1.801   2.318   3.529  0.00  0.00    +0.173 HD
ENDROOT
BRANCH   1   8
ATOM      5  C   UNL     1      -2.409   2.742   8.331  0.00  0.00    -0.024 A 
ATOM      6  C   UNL     1      -1.272   1.961   8.447  0.00  0.00    +0.006 A 
ATOM      7  C   UNL     1      -0.622   1.513   7.316  0.00  0.00    +0.013 A 
ATOM      8  C   UNL     1      -1.113   1.849   6.053  0.00  0.00    +0.038 A 
ATOM      9  C   UNL     1      -2.257   2.641   5.943  0.00  0.00    +0.013 A 
ATOM     10  C   UNL     1      -2.901   3.078   7.082  0.00  0.00    +0.006 A 
BRANCH   5  11
ATOM     11  C   UNL     1      -3.115   3.228   9.571  0.00  0.00    +0.203 C 
BRANCH  11  15
ATOM     12  C   UNL     1      -2.249   6.599  10.147  0.00  0.00    +0.205 A 
ATOM     13  N   UNL     1      -1.347   5.958  10.903  0.00  0.00    -0.108 NA
ATOM     14  N   UNL     1      -1.571   4.694  10.776  0.00  0.00    -0.045 NA
ATOM     15  N   UNL     1      -2.561   4.524   9.971  0.00  0.00    -0.158 N 
ATOM     16  N   UNL     1      -2.993   5.672   9.578  0.00  0.00    -0.130 NA
BRANCH  12  20
ATOM     17  C   UNL     1      -2.633  10.809   9.675  0.00  0.00    +0.000 A 
ATOM     18  C   UNL     1      -1.646  10.295  10.496  0.00  0.00    +0.001 A 
ATOM     19  C   UNL     1      -1.517   8.929  10.653  0.00  0.00    +0.012 A 
ATOM     20  C   UNL     1      -2.383   8.069   9.982  0.00  0.00    +0.023 A 
ATOM     21  C   UNL     1      -3.371   8.592   9.152  0.00  0.00    +0.012 A 
ATOM     22  C   UNL     1      -3.496   9.959   9.007  0.00  0.00    +0.001 A 
ENDBRANCH  12  20
ENDBRANCH  11  15
ENDBRANCH   5  11
ENDBRANCH   1   8
BRANCH   3  23
ATOM     23  N   UNL     1      -0.242   1.246   2.466  0.00  0.00    -0.234 N 
ATOM     24  C   UNL     1      -0.718   1.572   1.248  0.00  0.00    +0.230 C 
ATOM     25  O   UNL     1      -1.714   2.256   1.150  0.00  0.00    -0.274 OA
ATOM     26  H   UNL     1       0.662   0.625   2.555  0.00  0.00    +0.173 HD
BRANCH  24  27
ATOM     27  C   UNL     1      -0.013   1.086   0.008  0.00  0.00    +0.104 C 
BRANCH  27  28
ATOM     28  C   UNL     1      -0.753   1.593  -1.232  0.00  0.00    -0.018 C 
ATOM     29  C   UNL     1      -2.188   1.063  -1.221  0.00  0.00    +0.011 C 
ATOM     30  C   UNL     1      -2.928   1.570  -2.460  0.00  0.00    -0.007 C 
ATOM     31  C   UNL     1      -2.949   3.100  -2.452  0.00  0.00    +0.007 C 
ATOM     32  C   UNL     1      -1.513   3.629  -2.463  0.00  0.00    -0.007 C 
ATOM     33  C   UNL     1      -0.773   3.123  -1.223  0.00  0.00    +0.011 C 
ATOM     34  C   UNL     1      -0.797   3.136  -3.721  0.00  0.00    +0.038 C 
ATOM     35  C   UNL     1      -0.777   1.606  -3.730  0.00  0.00    +0.067 C 
ATOM     36  C   UNL     1      -2.212   1.077  -3.719  0.00  0.00    +0.038 C 
ATOM     37  C   UNL     1      -0.037   1.099  -2.490  0.00  0.00    +0.042 C 
BRANCH  35  38
ATOM     38  O   UNL     1      -0.108   1.145  -4.906  0.00  0.00    -0.389 OA
ATOM     39  H   UNL     1       0.006   0.066  -5.087  0.00  0.00    +0.210 HD
ENDBRANCH  35  38
ENDBRANCH  27  28
ENDBRANCH  24  27
ENDBRANCH   3  23
TORSDOF 8
