REMARK  Name = ZINC03097428
REMARK  7 active torsions:
REMARK  status: ('A' for Active; 'I' for Inactive)
REMARK    1  A    between atoms: C_4  and  S_7
REMARK    2  A    between atoms: S_7  and  N_10
REMARK    3  A    between atoms: N_10  and  N_11
REMARK    4  A    between atoms: C_12  and  C_13
REMARK    5  A    between atoms: C_16  and  O_19
REMARK    6  A    between atoms: O_19  and  C_20
REMARK    7  A    between atoms: C_20  and  C_22
REMARK                            x       y       z     vdW  Elec       q    Type
REMARK                         _______ _______ _______ _____ _____    ______ ____
ROOT
ATOM      1  C   UNL     1       1.985  -6.915  -0.156  0.00  0.00    -0.005 A 
ATOM      2  C   UNL     1       3.261  -6.350  -0.092  0.00  0.00    +0.013 A 
ATOM      3  C   UNL     1       3.405  -4.980  -0.052  0.00  0.00    +0.047 A 
ATOM      4  C   UNL     1       2.283  -4.161  -0.075  0.00  0.00    +0.132 A 
ATOM      5  C   UNL     1       1.012  -4.719  -0.134  0.00  0.00    +0.047 A 
ATOM      6  C   UNL     1       0.860  -6.088  -0.179  0.00  0.00    +0.013 A 
ENDROOT
BRANCH   1   8
ATOM      7  N   UNL     1       0.641  -8.904  -0.260  0.00  0.00    -0.174 NA
ATOM      8  C   UNL     1       1.827  -8.381  -0.200  0.00  0.00    +0.139 C 
BRANCH   7   9
ATOM      9  N   UNL     1       0.490 -10.296  -0.302  0.00  0.00    -0.137 N 
ATOM     10  H   UNL     1       1.273 -10.869  -0.286  0.00  0.00    +0.197 HD
BRANCH   9  11
ATOM     11  S   UNL     1      -1.024 -10.963  -0.378  0.00  0.00    +0.086 S 
ATOM     12  O   UNL     1      -0.842 -12.362  -0.553  0.00  0.00    -0.149 OA
ATOM     13  O   UNL     1      -1.762 -10.421   0.708  0.00  0.00    -0.149 OA
BRANCH  11  17
ATOM     14  C   UNL     1      -2.974  -9.429  -4.164  0.00  0.00    +0.000 A 
ATOM     15  C   UNL     1      -2.234 -10.596  -4.191  0.00  0.00    +0.002 A 
ATOM     16  C   UNL     1      -1.638 -11.065  -3.035  0.00  0.00    +0.029 A 
ATOM     17  C   UNL     1      -1.782 -10.366  -1.851  0.00  0.00    +0.110 A 
ATOM     18  C   UNL     1      -2.527  -9.201  -1.823  0.00  0.00    +0.029 A 
ATOM     19  C   UNL     1      -3.118  -8.730  -2.980  0.00  0.00    +0.002 A 
ENDBRANCH  11  17
ENDBRANCH   9  11
ENDBRANCH   7   9
ENDBRANCH   1   8
BRANCH   4  20
ATOM     20  O   UNL     1       2.429  -2.811  -0.036  0.00  0.00    -0.422 OA
BRANCH  20  21
ATOM     21  C   UNL     1       2.807  -2.203  -1.177  0.00  0.00    +0.344 C 
ATOM     22  O   UNL     1       3.088  -2.867  -2.155  0.00  0.00    -0.245 OA
BRANCH  21  23
ATOM     23  C   UNL     1       2.881  -0.730  -1.239  0.00  0.00    +0.059 A 
ATOM     24  C   UNL     1       3.273  -0.096  -2.421  0.00  0.00    +0.016 A 
ATOM     25  C   UNL     1       3.340   1.280  -2.473  0.00  0.00    +0.016 A 
ATOM     26  C   UNL     1       3.019   2.034  -1.356  0.00  0.00    +0.018 A 
ATOM     27  C   UNL     1       2.629   1.412  -0.182  0.00  0.00    +0.016 A 
ATOM     28  C   UNL     1       2.559   0.037  -0.117  0.00  0.00    +0.016 A 
ATOM     29 BR   UNL     1       3.112   3.921  -1.436  0.00  0.00    -0.050 Br
ENDBRANCH  21  23
ENDBRANCH  20  21
ENDBRANCH   4  20
TORSDOF 7
