REMARK  Name = ZINC04587534
REMARK  8 active torsions:
REMARK  status: ('A' for Active; 'I' for Inactive)
REMARK    1  A    between atoms: C_1  and  C_2
REMARK    2  A    between atoms: C_4  and  O_30
REMARK    3  A    between atoms: C_6  and  O_29
REMARK    4  A    between atoms: C_8  and  O_28
REMARK    5  A    between atoms: C_10  and  N_13
REMARK    6  A    between atoms: N_13  and  C_14
REMARK    7  A    between atoms: C_17  and  N_20
REMARK    8  A    between atoms: N_21  and  C_22
REMARK                            x       y       z     vdW  Elec       q    Type
REMARK                         _______ _______ _______ _____ _____    ______ ____
ROOT
ATOM      1  N   UNL     1      -0.612  -2.443   1.297  0.00  0.00    -0.317 N 
ATOM      2  H   UNL     1      -1.112  -2.547   0.472  0.00  0.00    +0.149 HD
ENDROOT
BRANCH   1   8
ATOM      3  C   UNL     1      -0.051   1.628   0.366  0.00  0.00    +0.041 C 
ATOM      4  C   UNL     1      -0.037   0.106   0.214  0.00  0.00    +0.149 C 
ATOM      5  C   UNL     1       0.631  -0.268  -1.112  0.00  0.00    +0.174 C 
ATOM      6  C   UNL     1       0.696  -1.794  -1.229  0.00  0.00    +0.178 C 
ATOM      7  C   UNL     1       1.449  -2.357  -0.020  0.00  0.00    +0.192 C 
ATOM      8  C   UNL     1       0.749  -1.902   1.264  0.00  0.00    +0.235 C 
ATOM      9  O   UNL     1       0.696  -0.474   1.295  0.00  0.00    -0.351 OA
BRANCH   7  10
ATOM     10  O   UNL     1       1.454  -3.784  -0.082  0.00  0.00    -0.385 OA
ATOM     11  H   UNL     1       1.915  -4.209   0.654  0.00  0.00    +0.210 HD
ENDBRANCH   7  10
BRANCH   6  12
ATOM     12  O   UNL     1      -0.629  -2.328  -1.260  0.00  0.00    -0.386 OA
ATOM     13  H   UNL     1      -0.664  -3.291  -1.333  0.00  0.00    +0.210 HD
ENDBRANCH   6  12
BRANCH   5  14
ATOM     14  O   UNL     1      -0.131   0.264  -2.197  0.00  0.00    -0.387 OA
ATOM     15  H   UNL     1      -0.216   1.227  -2.183  0.00  0.00    +0.210 HD
ENDBRANCH   5  14
ENDBRANCH   1   8
BRANCH   1  16
ATOM     16  C   UNL     1      -1.186  -2.808   2.511  0.00  0.00    +0.029 A 
ATOM     17  C   UNL     1      -0.468  -2.654   3.693  0.00  0.00    +0.025 A 
ATOM     18  C   UNL     1      -1.033  -3.014   4.896  0.00  0.00    +0.031 A 
ATOM     19  C   UNL     1      -2.331  -3.536   4.929  0.00  0.00    +0.086 A 
ATOM     20  C   UNL     1      -3.049  -3.690   3.738  0.00  0.00    +0.031 A 
ATOM     21  C   UNL     1      -2.480  -3.322   2.540  0.00  0.00    +0.025 A 
BRANCH  19  22
ATOM     22  N   UNL     1      -2.894  -3.894   6.119  0.00  0.00    -0.149 NA
ATOM     23  N   UNL     1      -4.090  -4.376   6.147  0.00  0.00    -0.149 NA
BRANCH  23  24
ATOM     24  C   UNL     1      -4.654  -4.735   7.340  0.00  0.00    +0.086 A 
ATOM     25  C   UNL     1      -3.940  -4.577   8.530  0.00  0.00    +0.029 A 
ATOM     26  C   UNL     1      -4.516  -4.942   9.729  0.00  0.00    +0.002 A 
ATOM     27  C   UNL     1      -5.797  -5.463   9.755  0.00  0.00    +0.000 A 
ATOM     28  C   UNL     1      -6.510  -5.623   8.580  0.00  0.00    +0.002 A 
ATOM     29  C   UNL     1      -5.950  -5.257   7.374  0.00  0.00    +0.029 A 
ENDBRANCH  23  24
ENDBRANCH  19  22
ENDBRANCH   1  16
TORSDOF 7
