REMARK  Name = ZINC39878201
REMARK  7 active torsions:
REMARK  status: ('A' for Active; 'I' for Inactive)
REMARK    1  A    between atoms: C_1  and  C_2
REMARK    2  A    between atoms: C_7  and  C_8
REMARK    3  A    between atoms: C_14  and  C_28
REMARK    4  A    between atoms: N_16  and  C_19
REMARK    5  A    between atoms: C_22  and  O_26
REMARK    6  A    between atoms: O_26  and  C_27
REMARK    7  A    between atoms: C_32  and  O_34
REMARK                            x       y       z     vdW  Elec       q    Type
REMARK                         _______ _______ _______ _____ _____    ______ ____
ROOT
ATOM      1  C   UNL     1      -0.018   1.503   0.010  0.00  0.00    +0.044 C 
ATOM      2  C   UNL     1       0.002  -0.004   0.002  0.00  0.00    -0.047 A 
ATOM      3  C   UNL     1       0.006  -0.685  -1.195  0.00  0.00    +0.019 A 
ATOM      4  C   UNL     1       0.024  -2.080  -1.194  0.00  0.00    +0.065 A 
ATOM      5  C   UNL     1       0.034  -2.793   0.015  0.00  0.00    +0.140 A 
ATOM      6  C   UNL     1       0.033  -2.080   1.214  0.00  0.00    +0.050 A 
ATOM      7  C   UNL     1       0.023  -0.703   1.200  0.00  0.00    -0.044 A 
ATOM      8  C   UNL     1       0.028   0.053   2.503  0.00  0.00    +0.044 C 
ATOM      9  O   UNL     1       0.038  -4.145   0.057  0.00  0.00    -0.450 OA
ATOM     10  C   UNL     1       0.274  -4.846  -1.071  0.00  0.00    +0.199 A 
ATOM     11  C   UNL     1       0.281  -4.268  -2.309  0.00  0.00    +0.072 A 
ATOM     12  C   UNL     1       0.037  -2.832  -2.475  0.00  0.00    +0.199 A 
ATOM     13  O   UNL     1      -0.140  -2.306  -3.559  0.00  0.00    -0.287 OA
ATOM     14  C   UNL     1       0.567  -5.340  -3.309  0.00  0.00    +0.150 C 
ATOM     15  N   UNL     1       0.729  -6.580  -2.533  0.00  0.00    -0.253 N 
ATOM     16  C   UNL     1       0.558  -6.282  -1.229  0.00  0.00    +0.287 C 
ATOM     17  O   UNL     1       0.628  -7.082  -0.317  0.00  0.00    -0.266 OA
ENDROOT
BRANCH  15  18
ATOM     18  C   UNL     1       1.011  -7.846  -3.056  0.00  0.00    +0.039 A 
ATOM     19  C   UNL     1       1.169  -8.013  -4.426  0.00  0.00    +0.027 A 
ATOM     20  C   UNL     1       1.448  -9.262  -4.943  0.00  0.00    +0.049 A 
ATOM     21  C   UNL     1       1.571 -10.353  -4.094  0.00  0.00    +0.138 A 
ATOM     22  C   UNL     1       1.413 -10.188  -2.725  0.00  0.00    +0.084 A 
ATOM     23  C   UNL     1       1.140  -8.937  -2.206  0.00  0.00    +0.047 A 
ATOM     24 CL   UNL     1       1.567 -11.553  -1.663  0.00  0.00    -0.080 Cl
BRANCH  21  25
ATOM     25  O   UNL     1       1.845 -11.583  -4.604  0.00  0.00    -0.494 OA
ATOM     26  C   UNL     1       1.994 -11.680  -6.022  0.00  0.00    +0.277 C 
ENDBRANCH  21  25
ENDBRANCH  15  18
BRANCH  14  27
ATOM     27  C   UNL     1      -0.586  -5.474  -4.271  0.00  0.00    -0.019 A 
ATOM     28  C   UNL     1      -1.730  -6.150  -3.888  0.00  0.00    +0.006 A 
ATOM     29  C   UNL     1      -2.789  -6.274  -4.768  0.00  0.00    +0.004 A 
ATOM     30  C   UNL     1      -2.706  -5.724  -6.033  0.00  0.00    +0.045 A 
ATOM     31  C   UNL     1      -1.559  -5.046  -6.419  0.00  0.00    +0.117 A 
ATOM     32  C   UNL     1      -0.500  -4.917  -5.532  0.00  0.00    +0.051 A 
BRANCH  31  33
ATOM     33  O   UNL     1      -1.475  -4.504  -7.663  0.00  0.00    -0.507 OA
ATOM     34  H   UNL     1      -1.794  -3.592  -7.717  0.00  0.00    +0.292 HD
ENDBRANCH  31  33
ENDBRANCH  14  27
TORSDOF 4
