REMARK  Name = ZINC09609323
REMARK  6 active torsions:
REMARK  status: ('A' for Active; 'I' for Inactive)
REMARK    1  A    between atoms: C_1  and  C_2
REMARK    2  A    between atoms: C_5  and  C_8
REMARK    3  A    between atoms: C_10  and  C_13
REMARK    4  A    between atoms: C_13  and  N_14
REMARK    5  A    between atoms: C_17  and  C_21
REMARK    6  A    between atoms: C_17  and  C_22
REMARK                            x       y       z     vdW  Elec       q    Type
REMARK                         _______ _______ _______ _____ _____    ______ ____
ROOT
ATOM      1  N   UNL     1      -3.943   0.944  -1.762  0.00  0.00    -0.215 N 
ATOM      2  C   UNL     1      -3.591   1.737  -0.726  0.00  0.00    +0.251 C 
ATOM      3  O   UNL     1      -4.039   2.829  -0.450  0.00  0.00    -0.272 OA
ATOM      4  C   UNL     1      -2.513   0.975   0.019  0.00  0.00    +0.135 C 
ATOM      5  N   UNL     1      -2.372  -0.274  -0.750  0.00  0.00    -0.281 N 
ATOM      6  C   UNL     1      -3.247  -0.199  -1.769  0.00  0.00    +0.310 C 
ATOM      7  O   UNL     1      -3.390  -1.071  -2.603  0.00  0.00    -0.252 OA
ATOM      8  C   UNL     1      -2.958   0.677   1.452  0.00  0.00    +0.047 C 
ATOM      9  H   UNL     1      -1.766  -1.007  -0.559  0.00  0.00    +0.152 HD
ENDROOT
BRANCH   4  10
ATOM     10  C   UNL     1      -1.219   1.748   0.017  0.00  0.00    -0.015 A 
ATOM     11  C   UNL     1      -1.239   3.130   0.030  0.00  0.00    +0.006 A 
ATOM     12  C   UNL     1      -0.052   3.836   0.022  0.00  0.00    +0.004 A 
ATOM     13  C   UNL     1       1.159   3.164   0.008  0.00  0.00    -0.044 A 
ATOM     14  C   UNL     1       1.179   1.782   0.000  0.00  0.00    -0.044 A 
ATOM     15  C   UNL     1      -0.013   1.076   0.008  0.00  0.00    +0.010 A 
ATOM     16  C   UNL     1       2.610   1.291  -0.016  0.00  0.00    +0.036 C 
ATOM     17  C   UNL     1       3.450   2.509  -0.459  0.00  0.00    +0.009 C 
ATOM     18  C   UNL     1       2.576   3.696  -0.004  0.00  0.00    +0.036 C 
ENDBRANCH   4  10
BRANCH   1  19
ATOM     19  C   UNL     1      -4.965   1.292  -2.753  0.00  0.00    +0.216 C 
BRANCH  19  22
ATOM     20  C   UNL     1      -8.220   0.631  -1.379  0.00  0.00    +0.202 A 
ATOM     21  N   UNL     1      -7.165   1.461  -1.544  0.00  0.00    -0.190 NA
ATOM     22  C   UNL     1      -6.309   0.799  -2.282  0.00  0.00    +0.246 A 
ATOM     23  O   UNL     1      -6.850  -0.397  -2.535  0.00  0.00    -0.336 OA
ATOM     24  N   UNL     1      -7.941  -0.478  -2.013  0.00  0.00    -0.056 NA
BRANCH  20  29
ATOM     25  C   UNL     1     -13.030   1.762   1.581  0.00  0.00    +0.044 C 
ATOM     26  C   UNL     1     -11.771   1.466   0.806  0.00  0.00    -0.050 A 
ATOM     27  C   UNL     1     -11.617   0.240   0.185  0.00  0.00    +0.004 A 
ATOM     28  C   UNL     1     -10.466  -0.036  -0.525  0.00  0.00    +0.012 A 
ATOM     29  C   UNL     1      -9.459   0.923  -0.616  0.00  0.00    +0.022 A 
ATOM     30  C   UNL     1      -9.617   2.154   0.017  0.00  0.00    +0.012 A 
ATOM     31  C   UNL     1     -10.774   2.422   0.720  0.00  0.00    +0.004 A 
ENDBRANCH  20  29
ENDBRANCH  19  22
ENDBRANCH   1  19
TORSDOF 4
