REMARK  Name = ZINC09556432
REMARK  9 active torsions:
REMARK  status: ('A' for Active; 'I' for Inactive)
REMARK    1  A    between atoms: C_1  and  C_2
REMARK    2  A    between atoms: C_2  and  S_3
REMARK    3  A    between atoms: S_3  and  C_4
REMARK    4  A    between atoms: C_4  and  S_22
REMARK    5  A    between atoms: C_5  and  C_20
REMARK    6  A    between atoms: C_6  and  C_13
REMARK    7  A    between atoms: C_8  and  C_11
REMARK    8  A    between atoms: S_22  and  C_23
REMARK    9  A    between atoms: C_23  and  C_24
REMARK                            x       y       z     vdW  Elec       q    Type
REMARK                         _______ _______ _______ _____ _____    ______ ____
ROOT
ATOM      1  C   UNL     1      -0.423   3.871   1.823  0.00  0.00    +0.154 C 
ATOM      2  C   UNL     1      -0.895   4.740   3.003  0.00  0.00    +0.133 C 
ATOM      3  C   UNL     1      -1.136   6.231   2.756  0.00  0.00    +0.075 C 
ATOM      4  C   UNL     1       0.271   5.729   3.198  0.00  0.00    +0.141 C 
ATOM      5  C   UNL     1       1.284   5.365   2.143  0.00  0.00    +0.090 C 
ATOM      6  N   UNL     1       2.479   6.011   1.970  0.00  0.00    -0.347 N 
ATOM      7  H   UNL     1       2.718   6.754   2.546  0.00  0.00    +0.143 HD
ATOM      8  H   UNL     1       3.088   5.726   1.270  0.00  0.00    +0.143 HD
ATOM      9  N   UNL     1       0.904   4.368   1.411  0.00  0.00    -0.352 N 
ATOM     10  H   UNL     1       1.456   3.973   0.641  0.00  0.00    +0.163 HD
ENDROOT
BRANCH   3  11
ATOM     11  C   UNL     1      -1.949   6.983   3.778  0.00  0.00    -0.027 A 
ATOM     12  C   UNL     1      -1.825   6.676   5.121  0.00  0.00    +0.005 A 
ATOM     13  C   UNL     1      -2.570   7.366   6.059  0.00  0.00    +0.000 A 
ATOM     14  C   UNL     1      -3.439   8.363   5.655  0.00  0.00    +0.001 A 
ATOM     15  C   UNL     1      -3.563   8.669   4.314  0.00  0.00    +0.015 A 
ATOM     16  C   UNL     1      -2.814   7.983   3.375  0.00  0.00    +0.021 A 
ATOM     17 BR   UNL     1      -2.979   8.407   1.539  0.00  0.00    -0.050 Br
ENDBRANCH   3  11
BRANCH   4  18
ATOM     18  C   UNL     1       0.772   6.067   4.541  0.00  0.00    +0.079 C 
ATOM     19  N   UNL     1       1.159   6.328   5.576  0.00  0.00    -0.195 NA
ENDBRANCH   4  18
BRANCH   2  20
ATOM     20  C   UNL     1      -1.560   4.068   4.131  0.00  0.00    +0.076 C 
ATOM     21  N   UNL     1      -2.074   3.549   5.001  0.00  0.00    -0.196 NA
ENDBRANCH   2  20
BRANCH   1  22
ATOM     22  S   UNL     1      -0.291   2.138   2.343  0.00  0.00    -0.121 S 
BRANCH  22  24
ATOM     23  C   UNL     1       1.472   0.092   1.910  0.00  0.00    +0.015 C 
ATOM     24  C   UNL     1       1.194   1.537   1.491  0.00  0.00    +0.069 C 
ENDBRANCH  22  24
ENDBRANCH   1  22
BRANCH   1  25
ATOM     25  S   UNL     1      -1.587   4.017   0.440  0.00  0.00    -0.121 S 
BRANCH  25  26
ATOM     26  C   UNL     1      -0.803   3.072  -0.895  0.00  0.00    +0.069 C 
ATOM     27  C   UNL     1      -1.619   3.231  -2.180  0.00  0.00    +0.015 C 
ENDBRANCH  25  26
ENDBRANCH   1  25
TORSDOF 7
