REMARK  Name = ZINC08905064
REMARK  12 active torsions:
REMARK  status: ('A' for Active; 'I' for Inactive)
REMARK    1  A    between atoms: C_1  and  N_59
REMARK    2  A    between atoms: C_2  and  N_59
REMARK    3  A    between atoms: C_3  and  C_4
REMARK    4  A    between atoms: C_3  and  N_59
REMARK    5  A    between atoms: C_4  and  C_5
REMARK    6  A    between atoms: C_5  and  N_6
REMARK    7  A    between atoms: C_7  and  C_26
REMARK    8  A    between atoms: C_10  and  C_11
REMARK    9  A    between atoms: C_10  and  O_21
REMARK   10  A    between atoms: C_14  and  O_17
REMARK   11  A    between atoms: O_17  and  C_18
REMARK   12  A    between atoms: C_18  and  C_19
REMARK                            x       y       z     vdW  Elec       q    Type
REMARK                         _______ _______ _______ _____ _____    ______ ____
ROOT
ATOM      1  N   UNL     1       0.588  -1.227  -1.059  0.00  0.00    -0.284 N 
ATOM      2  C   UNL     1       0.018  -1.108  -2.404  0.00  0.00    +0.144 C 
ATOM      3  C   UNL     1       1.094  -1.545  -3.371  0.00  0.00    +0.071 C 
ATOM      4  C   UNL     1       1.002  -1.594  -4.749  0.00  0.00    +0.133 C 
ATOM      5  C   UNL     1       2.202  -1.898  -2.588  0.00  0.00    +0.249 C 
ATOM      6  O   UNL     1       3.271  -2.307  -3.005  0.00  0.00    -0.282 OA
ATOM      7  C   UNL     1       1.847  -1.686  -1.158  0.00  0.00    +0.288 C 
ATOM      8  O   UNL     1       2.587  -1.897  -0.219  0.00  0.00    -0.266 OA
ENDROOT
BRANCH   2   9
ATOM      9  C   UNL     1      -0.366   0.324  -2.677  0.00  0.00    -0.021 A 
ATOM     10  C   UNL     1       0.453   1.353  -2.248  0.00  0.00    +0.006 A 
ATOM     11  C   UNL     1       0.104   2.666  -2.503  0.00  0.00    +0.001 A 
ATOM     12  C   UNL     1      -1.068   2.951  -3.177  0.00  0.00    +0.015 A 
ATOM     13  C   UNL     1      -1.890   1.923  -3.602  0.00  0.00    +0.018 A 
ATOM     14  C   UNL     1      -1.538   0.609  -3.351  0.00  0.00    +0.021 A 
ATOM     15 BR   UNL     1      -3.494   2.313  -4.524  0.00  0.00    -0.050 Br
ENDBRANCH   2   9
BRANCH   4  16
ATOM     16  C   UNL     1       2.191  -1.910  -5.554  0.00  0.00    +0.017 A 
ATOM     17  C   UNL     1       3.383  -1.203  -5.354  0.00  0.00    +0.015 A 
ATOM     18  C   UNL     1       4.494  -1.506  -6.107  0.00  0.00    +0.046 A 
ATOM     19  C   UNL     1       4.432  -2.505  -7.073  0.00  0.00    +0.121 A 
ATOM     20  C   UNL     1       3.249  -3.206  -7.280  0.00  0.00    +0.046 A 
ATOM     21  C   UNL     1       2.133  -2.914  -6.528  0.00  0.00    +0.015 A 
BRANCH  19  22
ATOM     22  O   UNL     1       5.529  -2.796  -7.817  0.00  0.00    -0.488 OA
BRANCH  22  23
ATOM     23  C   UNL     1       6.711  -2.038  -7.553  0.00  0.00    +0.256 C 
BRANCH  23  24
ATOM     24  C   UNL     1       7.817  -2.498  -8.468  0.00  0.00    +0.006 C 
ATOM     25  C   UNL     1       8.568  -1.618  -9.083  0.00  0.00    +0.007 C 
ENDBRANCH  23  24
ENDBRANCH  22  23
ENDBRANCH  19  22
ENDBRANCH   4  16
BRANCH   4  26
ATOM     26  O   UNL     1      -0.180  -1.351  -5.356  0.00  0.00    -0.506 OA
ATOM     27  H   UNL     1      -0.067  -1.427  -6.346  0.00  0.00    +0.292 HD
ENDBRANCH   4  26
BRANCH   1  28
ATOM     28  C   UNL     1      -0.104  -0.904   0.191  0.00  0.00    +0.107 C 
BRANCH  28  29
ATOM     29  C   UNL     1       0.142   0.564   0.545  0.00  0.00    +0.000 C 
BRANCH  29  30
ATOM     30  C   UNL     1      -0.581   0.901   1.851  0.00  0.00    -0.078 C 
BRANCH  30  33
ATOM     31  C   UNL     1      -0.969   3.203   1.205  0.00  0.00    -0.097 C 
ATOM     32  C   UNL     1      -0.819   2.611   3.549  0.00  0.00    -0.097 C 
ATOM     33  N   UNL     1      -0.316   2.315   2.191  0.00  0.00    +0.376 N 
ATOM     34  H   UNL     1       0.697   2.480   2.168  0.00  0.00    -0.083 HD
ENDBRANCH  30  33
ENDBRANCH  29  30
ENDBRANCH  28  29
ENDBRANCH   1  28
TORSDOF 10
