REMARK  Name = ZINC12467273
REMARK  14 active torsions:
REMARK  status: ('A' for Active; 'I' for Inactive)
REMARK    1  A    between atoms: C_1  and  C_2
REMARK    2  A    between atoms: C_2  and  C_3
REMARK    3  A    between atoms: C_3  and  C_4
REMARK    4  A    between atoms: C_4  and  C_5
REMARK    5  A    between atoms: C_5  and  C_7
REMARK    6  A    between atoms: C_5  and  C_9
REMARK    7  A    between atoms: C_7  and  C_8
REMARK    8  A    between atoms: C_9  and  N_10
REMARK    9  A    between atoms: C_11  and  C_13
REMARK   10  A    between atoms: C_18  and  C_19
REMARK   11  A    between atoms: C_18  and  N_63
REMARK   12  A    between atoms: C_21  and  O_27
REMARK   13  A    between atoms: C_22  and  O_26
REMARK   14  A    between atoms: O_27  and  C_28
REMARK                            x       y       z     vdW  Elec       q    Type
REMARK                         _______ _______ _______ _____ _____    ______ ____
ROOT
ATOM      1  C   UNL     1       0.255  -4.193  -3.798  0.00  0.00    +0.071 C 
ATOM      2  C   UNL     1       1.585  -4.494  -3.100  0.00  0.00    -0.006 C 
ATOM      3  C   UNL     1       1.503  -4.041  -1.641  0.00  0.00    -0.078 C 
ATOM      4  C   UNL     1      -0.077  -2.294  -2.211  0.00  0.00    -0.078 C 
ATOM      5  C   UNL     1      -0.042  -2.695  -3.688  0.00  0.00    -0.006 C 
ATOM      6  N   UNL     1       1.239  -2.587  -1.604  0.00  0.00    +0.382 N 
ATOM      7  H   UNL     1       1.968  -2.102  -2.139  0.00  0.00    -0.081 HD
ENDROOT
BRANCH   1   9
ATOM      8  N   UNL     1      -0.709  -4.405  -6.066  0.00  0.00    -0.315 N 
ATOM      9  C   UNL     1       0.350  -4.582  -5.251  0.00  0.00    +0.216 C 
ATOM     10  O   UNL     1       1.379  -5.053  -5.687  0.00  0.00    -0.276 OA
ATOM     11  H   UNL     1      -1.531  -4.028  -5.718  0.00  0.00    +0.149 HD
BRANCH   8  12
ATOM     12  C   UNL     1      -0.616  -4.783  -7.479  0.00  0.00    +0.107 C 
BRANCH  12  13
ATOM     13  C   UNL     1      -1.945  -4.482  -8.175  0.00  0.00    +0.006 C 
BRANCH  13  14
ATOM     14  C   UNL     1      -2.190  -2.971  -8.175  0.00  0.00    +0.002 C 
ATOM     15  C   UNL     1      -3.575  -2.679  -8.756  0.00  0.00    +0.004 C 
ENDBRANCH  13  14
BRANCH  13  16
ATOM     16  C   UNL     1      -1.892  -4.990  -9.617  0.00  0.00    +0.005 C 
BRANCH  16  17
ATOM     17  C   UNL     1      -1.794  -6.517  -9.617  0.00  0.00    +0.000 C 
BRANCH  17  19
ATOM     18  C   UNL     1      -1.609  -8.550 -11.057  0.00  0.00    +0.004 C 
ATOM     19  C   UNL     1      -1.707  -7.023 -11.058  0.00  0.00    -0.003 C 
ENDBRANCH  17  19
ENDBRANCH  16  17
ENDBRANCH  13  16
ENDBRANCH  12  13
ENDBRANCH   8  12
ENDBRANCH   1   9
BRANCH   6  20
ATOM     20  C   UNL     1       1.268  -2.104  -0.207  0.00  0.00    -0.043 C 
BRANCH  20  21
ATOM     21  C   UNL     1       1.216  -0.598  -0.214  0.00  0.00    -0.059 A 
ATOM     22  C   UNL     1      -0.004   0.050  -0.157  0.00  0.00    +0.051 A 
ATOM     23  C   UNL     1      -0.054   1.434  -0.163  0.00  0.00    +0.163 A 
ATOM     24  C   UNL     1       1.125   2.170  -0.226  0.00  0.00    +0.173 A 
ATOM     25  C   UNL     1       2.345   1.515  -0.281  0.00  0.00    +0.063 A 
ATOM     26  C   UNL     1       2.388   0.132  -0.275  0.00  0.00    +0.021 A 
ATOM     27 BR   UNL     1       3.950   2.511  -0.365  0.00  0.00    -0.046 Br
BRANCH  24  28
ATOM     28  O   UNL     1       1.081   3.530  -0.232  0.00  0.00    -0.503 OA
ATOM     29  H   UNL     1       1.111   3.929   0.648  0.00  0.00    +0.292 HD
ENDBRANCH  24  28
BRANCH  23  30
ATOM     30  O   UNL     1      -1.254   2.073  -0.114  0.00  0.00    -0.491 OA
ATOM     31  C   UNL     1      -2.424   1.253  -0.057  0.00  0.00    +0.277 C 
ENDBRANCH  23  30
ENDBRANCH  20  21
ENDBRANCH   6  20
TORSDOF 11
