REMARK  Name = ZINC22652449
REMARK  12 active torsions:
REMARK  status: ('A' for Active; 'I' for Inactive)
REMARK    1  A    between atoms: C_1  and  C_2
REMARK    2  A    between atoms: C_2  and  C_4
REMARK    3  A    between atoms: C_2  and  O_18
REMARK    4  A    between atoms: N_6  and  C_7
REMARK    5  A    between atoms: C_8  and  C_15
REMARK    6  A    between atoms: O_18  and  C_19
REMARK    7  A    between atoms: C_19  and  C_21
REMARK    8  A    between atoms: C_23  and  O_32
REMARK    9  A    between atoms: C_24  and  O_30
REMARK   10  A    between atoms: C_26  and  N_27
REMARK   11  A    between atoms: O_30  and  C_31
REMARK   12  A    between atoms: O_32  and  C_33
REMARK                            x       y       z     vdW  Elec       q    Type
REMARK                         _______ _______ _______ _____ _____    ______ ____
ROOT
ATOM      1  C   UNL     1       0.461   0.936  -0.559  0.00  0.00    +0.062 C 
ATOM      2  C   UNL     1       0.326  -0.554  -0.877  0.00  0.00    +0.259 C 
ENDROOT
BRANCH   2   3
ATOM      3  C   UNL     1       1.266  -1.341   0.000  0.00  0.00    +0.258 C 
ATOM      4  O   UNL     1       0.823  -2.114   0.823  0.00  0.00    -0.271 OA
ATOM      5  N   UNL     1       2.598  -1.187  -0.130  0.00  0.00    -0.276 N 
ATOM      6  H   UNL     1       2.953  -0.569  -0.789  0.00  0.00    +0.155 HD
BRANCH   5   7
ATOM      7  C   UNL     1       3.463  -1.911   0.676  0.00  0.00    +0.084 A 
ATOM      8  C   UNL     1       4.845  -1.877   0.687  0.00  0.00    +0.068 A 
ATOM      9  C   UNL     1       5.529  -2.746   1.643  0.00  0.00    -0.023 A 
ATOM     10  C   UNL     1       4.700  -3.482   2.406  0.00  0.00    -0.004 A 
ATOM     11  S   UNL     1       3.072  -3.023   1.869  0.00  0.00    -0.077 S 
ATOM     12  C   UNL     1       5.455  -4.359   3.368  0.00  0.00    +0.043 C 
ATOM     13  C   UNL     1       6.897  -4.394   2.816  0.00  0.00    +0.010 C 
ATOM     14  C   UNL     1       6.969  -3.064   2.039  0.00  0.00    +0.037 C 
BRANCH   8  15
ATOM     15  C   UNL     1       5.594  -1.007  -0.225  0.00  0.00    +0.244 C 
ATOM     16  O   UNL     1       5.881   0.126   0.114  0.00  0.00    -0.270 OA
ATOM     17  N   UNL     1       5.964  -1.462  -1.438  0.00  0.00    -0.325 N 
ATOM     18  H   UNL     1       5.735  -2.365  -1.709  0.00  0.00    +0.145 HD
ATOM     19  H   UNL     1       6.460  -0.886  -2.041  0.00  0.00    +0.145 HD
ENDBRANCH   8  15
ENDBRANCH   5   7
ENDBRANCH   2   3
BRANCH   2  20
ATOM     20  O   UNL     1      -1.018  -0.974  -0.632  0.00  0.00    -0.449 OA
BRANCH  20  21
ATOM     21  C   UNL     1      -1.883  -0.886  -1.662  0.00  0.00    +0.342 C 
ATOM     22  O   UNL     1      -1.506  -0.464  -2.737  0.00  0.00    -0.245 OA
BRANCH  21  23
ATOM     23  C   UNL     1      -3.286  -1.302  -1.483  0.00  0.00    +0.093 A 
ATOM     24  C   UNL     1      -3.583  -2.585  -1.012  0.00  0.00    +0.066 A 
ATOM     25  C   UNL     1      -4.898  -2.969  -0.847  0.00  0.00    +0.162 A 
ATOM     26  C   UNL     1      -5.928  -2.079  -1.149  0.00  0.00    +0.164 A 
ATOM     27  C   UNL     1      -5.634  -0.805  -1.617  0.00  0.00    +0.083 A 
ATOM     28  C   UNL     1      -4.323  -0.413  -1.778  0.00  0.00    +0.144 A 
BRANCH  28  29
ATOM     29  N   UNL     1      -4.013   0.948  -2.271  0.00  0.00    +0.057 N 
ATOM     30  O   UNL     1      -4.905   1.674  -2.643  0.00  0.00    -0.126 OA
ATOM     31  O   UNL     1      -2.867   1.334  -2.300  0.00  0.00    -0.126 OA
ENDBRANCH  28  29
BRANCH  26  32
ATOM     32  O   UNL     1      -7.222  -2.458  -0.986  0.00  0.00    -0.491 OA
ATOM     33  C   UNL     1      -8.226  -1.496  -1.314  0.00  0.00    +0.277 C 
ENDBRANCH  26  32
BRANCH  25  34
ATOM     34  O   UNL     1      -5.190  -4.216  -0.389  0.00  0.00    -0.491 OA
ATOM     35  C   UNL     1      -4.086  -5.076  -0.100  0.00  0.00    +0.277 C 
ENDBRANCH  25  34
ENDBRANCH  21  23
ENDBRANCH  20  21
ENDBRANCH   2  20
TORSDOF 9
