REMARK  Name = ZINC32594586
REMARK  4 active torsions:
REMARK  status: ('A' for Active; 'I' for Inactive)
REMARK    1  A    between atoms: C_1  and  C_2
REMARK    2  A    between atoms: C_2  and  C_3
REMARK    3  A    between atoms: C_3  and  C_28
REMARK    4  A    between atoms: N_18  and  C_21
REMARK                            x       y       z     vdW  Elec       q    Type
REMARK                         _______ _______ _______ _____ _____    ______ ____
ROOT
ATOM      1  C   UNL     1       0.704  -0.406   1.301  0.00  0.00    +0.014 C 
ATOM      2  C   UNL     1      -0.112   0.049   2.478  0.00  0.00    +0.031 A 
ATOM      3  C   UNL     1      -0.365  -0.584   3.644  0.00  0.00    +0.088 A 
ATOM      4  N   UNL     1      -1.172   0.104   4.515  0.00  0.00    -0.311 N 
ATOM      5  H   UNL     1      -1.409  -0.288   5.370  0.00  0.00    +0.170 HD
ATOM      6  C   UNL     1      -1.634   1.325   4.183  0.00  0.00    +0.289 A 
ATOM      7  O   UNL     1      -2.350   2.065   4.835  0.00  0.00    -0.260 OA
ATOM      8  S   UNL     1      -0.986   1.583   2.652  0.00  0.00    -0.030 S 
ATOM      9  S   UNL     1       0.333  -2.192   3.991  0.00  0.00    -0.093 S 
ATOM     10  C   UNL     1       1.577  -2.290   2.678  0.00  0.00    +0.152 C 
ATOM     11  C   UNL     1       0.835  -1.908   1.361  0.00  0.00    +0.109 C 
ATOM     12  C   UNL     1       1.689  -2.608   0.353  0.00  0.00    +0.232 C 
ATOM     13  O   UNL     1       1.888  -2.270  -0.794  0.00  0.00    -0.274 OA
ATOM     14  N   UNL     1       2.197  -3.700   0.982  0.00  0.00    -0.209 N 
ATOM     15  C   UNL     1       2.034  -3.684   2.346  0.00  0.00    +0.240 C 
ATOM     16  O   UNL     1       2.207  -4.597   3.125  0.00  0.00    -0.274 OA
ATOM     17  C   UNL     1       2.093   0.233   1.354  0.00  0.00    +0.017 C 
ENDROOT
BRANCH  14  18
ATOM     18  C   UNL     1       2.846  -4.744   0.306  0.00  0.00    +0.044 A 
ATOM     19  C   UNL     1       3.001  -4.689  -1.072  0.00  0.00    +0.027 A 
ATOM     20  C   UNL     1       3.641  -5.718  -1.736  0.00  0.00    +0.040 A 
ATOM     21  C   UNL     1       4.128  -6.803  -1.027  0.00  0.00    +0.124 A 
ATOM     22  C   UNL     1       3.974  -6.859   0.348  0.00  0.00    +0.040 A 
ATOM     23  C   UNL     1       3.340  -5.830   1.016  0.00  0.00    +0.027 A 
ATOM     24  F   UNL     1       4.753  -7.808  -1.678  0.00  0.00    -0.205 F 
ENDBRANCH  14  18
BRANCH   1  26
ATOM     25  C   UNL     1      -1.363  -0.691  -0.074  0.00  0.00    +0.005 C 
ATOM     26  C   UNL     1       0.002  -0.004   0.002  0.00  0.00    +0.009 C 
ENDBRANCH   1  26
TORSDOF 2
