REMARK  Name = ZINC17082952
REMARK  6 active torsions:
REMARK  status: ('A' for Active; 'I' for Inactive)
REMARK    1  A    between atoms: C_1  and  C_2
REMARK    2  A    between atoms: C_12  and  C_16
REMARK    3  A    between atoms: C_12  and  C_17
REMARK    4  A    between atoms: C_14  and  C_15
REMARK    5  A    between atoms: N_18  and  C_25
REMARK    6  A    between atoms: C_21  and  C_24
REMARK                            x       y       z     vdW  Elec       q    Type
REMARK                         _______ _______ _______ _____ _____    ______ ____
ROOT
ATOM      1  C   UNL     1      -2.852   4.801   0.335  0.00  0.00    +0.044 C 
ATOM      2  C   UNL     1      -1.915   3.816  -0.315  0.00  0.00    -0.049 A 
ATOM      3  C   UNL     1      -0.994   3.143   0.467  0.00  0.00    +0.013 A 
ATOM      4  C   UNL     1      -0.126   2.231  -0.135  0.00  0.00    -0.000 A 
ATOM      5  C   UNL     1      -0.225   2.038  -1.506  0.00  0.00    +0.051 A 
ATOM      6  C   UNL     1      -1.143   2.707  -2.289  0.00  0.00    +0.018 A 
ATOM      7  C   UNL     1      -1.995   3.605  -1.684  0.00  0.00    +0.012 A 
ATOM      8  C   UNL     1      -0.889   2.190  -3.668  0.00  0.00    +0.193 C 
ATOM      9  C   UNL     1       0.237   1.201  -3.538  0.00  0.00    +0.260 C 
ATOM     10  O   UNL     1       0.745   0.559  -4.433  0.00  0.00    -0.271 OA
ATOM     11  N   UNL     1       0.573   1.168  -2.228  0.00  0.00    -0.259 N 
ATOM     12  C   UNL     1       1.585   0.406  -1.478  0.00  0.00    +0.055 C 
ATOM     13  C   UNL     1       1.684   0.620   0.015  0.00  0.00    +0.002 C 
ATOM     14  C   UNL     1       0.880   1.475   0.636  0.00  0.00    -0.043 C 
ATOM     15  C   UNL     1       0.994   1.674   2.125  0.00  0.00    +0.044 C 
ATOM     16  C   UNL     1       1.318  -1.081  -1.716  0.00  0.00    +0.036 C 
ATOM     17  C   UNL     1       2.952   0.728  -2.084  0.00  0.00    +0.036 C 
ATOM     18  N   UNL     1      -2.073   1.627  -4.309  0.00  0.00    -0.243 N 
ATOM     19  C   UNL     1      -2.668   2.319  -5.280  0.00  0.00    +0.234 C 
ATOM     20  O   UNL     1      -3.648   1.889  -5.850  0.00  0.00    -0.274 OA
ATOM     21  C   UNL     1      -2.071   3.671  -5.646  0.00  0.00    +0.132 C 
ATOM     22  S   UNL     1      -0.428   3.549  -4.811  0.00  0.00    -0.108 S 
ATOM     23  C   UNL     1      -1.913   3.814  -7.161  0.00  0.00    +0.029 C 
ENDROOT
BRANCH  18  24
ATOM     24  C   UNL     1      -2.574   0.382  -3.912  0.00  0.00    +0.038 A 
ATOM     25  C   UNL     1      -3.437   0.293  -2.829  0.00  0.00    +0.023 A 
ATOM     26  C   UNL     1      -3.934  -0.936  -2.443  0.00  0.00    +0.002 A 
ATOM     27  C   UNL     1      -3.564  -2.079  -3.127  0.00  0.00    +0.000 A 
ATOM     28  C   UNL     1      -2.699  -1.994  -4.203  0.00  0.00    +0.002 A 
ATOM     29  C   UNL     1      -2.203  -0.767  -4.598  0.00  0.00    +0.023 A 
ENDBRANCH  18  24
TORSDOF 1
