REMARK  Name = ZINC01021470
REMARK  9 active torsions:
REMARK  status: ('A' for Active; 'I' for Inactive)
REMARK    1  A    between atoms: C_1  and  C_2
REMARK    2  A    between atoms: C_5  and  O_9
REMARK    3  A    between atoms: O_9  and  C_10
REMARK    4  A    between atoms: C_10  and  C_11
REMARK    5  A    between atoms: N_13  and  N_14
REMARK    6  A    between atoms: C_15  and  C_16
REMARK    7  A    between atoms: C_17  and  C_24
REMARK    8  A    between atoms: C_19  and  O_23
REMARK    9  A    between atoms: C_21  and  O_22
REMARK                            x       y       z     vdW  Elec       q    Type
REMARK                         _______ _______ _______ _____ _____    ______ ____
ROOT
ATOM      1  C   UNL     1       5.448  -1.671  -1.133  0.00  0.00    +0.270 C 
ATOM      2  O   UNL     1       5.864  -1.902  -0.017  0.00  0.00    -0.270 OA
ATOM      3  N   UNL     1       6.155  -2.066  -2.211  0.00  0.00    -0.204 N 
ATOM      4  H   UNL     1       5.823  -1.880  -3.103  0.00  0.00    +0.177 HD
ENDROOT
BRANCH   3   5
ATOM      5  N   UNL     1       7.370  -2.743  -2.042  0.00  0.00    -0.188 NA
ATOM      6  C   UNL     1       8.051  -3.123  -3.080  0.00  0.00    +0.142 C 
BRANCH   6   7
ATOM      7  C   UNL     1       9.328  -3.836  -2.903  0.00  0.00    +0.039 A 
ATOM      8  C   UNL     1      10.060  -4.251  -4.018  0.00  0.00    -0.035 A 
ATOM      9  C   UNL     1      11.256  -4.913  -3.848  0.00  0.00    +0.049 A 
ATOM     10  C   UNL     1      11.733  -5.178  -2.569  0.00  0.00    +0.121 A 
ATOM     11  C   UNL     1      11.011  -4.775  -1.456  0.00  0.00    +0.091 A 
ATOM     12  C   UNL     1       9.810  -4.105  -1.614  0.00  0.00    +0.129 A 
ATOM     13  C   UNL     1       9.544  -3.971  -5.406  0.00  0.00    +0.044 C 
BRANCH  12  14
ATOM     14  O   UNL     1       9.102  -3.709  -0.525  0.00  0.00    -0.506 OA
ATOM     15  H   UNL     1       8.466  -4.366  -0.209  0.00  0.00    +0.292 HD
ENDBRANCH  12  14
BRANCH  10  16
ATOM     16  O   UNL     1      12.911  -5.835  -2.410  0.00  0.00    -0.507 OA
ATOM     17  H   UNL     1      12.822  -6.797  -2.363  0.00  0.00    +0.292 HD
ENDBRANCH  10  16
ENDBRANCH   6   7
ENDBRANCH   3   5
BRANCH   1  18
ATOM     18  C   UNL     1       4.142  -0.942  -1.315  0.00  0.00    +0.326 C 
BRANCH  18  19
ATOM     19  O   UNL     1       3.587  -0.632  -0.035  0.00  0.00    -0.480 OA
BRANCH  19  24
ATOM     20  C   UNL     1      -1.333   2.113   0.020  0.00  0.00    +0.044 C 
ATOM     21  C   UNL     1      -0.017   1.378   0.010  0.00  0.00    -0.048 A 
ATOM     22  C   UNL     1       1.170   2.088   0.002  0.00  0.00    +0.022 A 
ATOM     23  C   UNL     1       2.378   1.418  -0.013  0.00  0.00    +0.061 A 
ATOM     24  C   UNL     1       2.400   0.030  -0.021  0.00  0.00    +0.149 A 
ATOM     25  C   UNL     1       1.208  -0.680  -0.013  0.00  0.00    +0.061 A 
ATOM     26  C   UNL     1       0.002  -0.004   0.002  0.00  0.00    +0.022 A 
ATOM     27 BR   UNL     1       1.232  -2.571  -0.023  0.00  0.00    -0.046 Br
ATOM     28 BR   UNL     1       4.000   2.390  -0.023  0.00  0.00    -0.046 Br
ENDBRANCH  19  24
ENDBRANCH  18  19
ENDBRANCH   1  18
TORSDOF 7
