REMARK  Name = ZINC67389859
REMARK  9 active torsions:
REMARK  status: ('A' for Active; 'I' for Inactive)
REMARK    1  A    between atoms: C_1  and  N_2
REMARK    2  A    between atoms: N_2  and  C_3
REMARK    3  A    between atoms: N_2  and  C_4
REMARK    4  A    between atoms: C_4  and  C_6
REMARK    5  A    between atoms: C_4  and  C_21
REMARK    6  A    between atoms: C_6  and  N_7
REMARK    7  A    between atoms: N_10  and  N_11
REMARK    8  A    between atoms: C_12  and  C_14
REMARK    9  A    between atoms: C_14  and  C_15
REMARK                            x       y       z     vdW  Elec       q    Type
REMARK                         _______ _______ _______ _____ _____    ______ ____
ROOT
ATOM      1  N   UNL     1      -1.766   1.531  -1.169  0.00  0.00    -0.299 N 
ATOM      2  C   UNL     1      -2.260   2.263  -2.188  0.00  0.00    +0.316 C 
ATOM      3  O   UNL     1      -2.936   1.731  -3.047  0.00  0.00    -0.251 OA
ATOM      4  N   UNL     1      -2.004   3.585  -2.254  0.00  0.00    -0.218 N 
ATOM      5  H   UNL     1      -1.227   1.956  -0.484  0.00  0.00    +0.150 HD
ATOM      6  H   UNL     1      -2.360   4.111  -2.987  0.00  0.00    +0.174 HD
ENDROOT
BRANCH   4   7
ATOM      7  N   UNL     1      -1.225   4.198  -1.264  0.00  0.00    -0.233 N 
ATOM      8  C   UNL     1      -0.969   5.519  -1.330  0.00  0.00    +0.229 C 
ATOM      9  O   UNL     1      -1.414   6.178  -2.247  0.00  0.00    -0.274 OA
ATOM     10  H   UNL     1      -0.870   3.671  -0.531  0.00  0.00    +0.173 HD
BRANCH   8  11
ATOM     11  C   UNL     1      -0.131   6.179  -0.266  0.00  0.00    +0.101 C 
BRANCH  11  12
ATOM     12  C   UNL     1       0.006   7.671  -0.575  0.00  0.00    -0.002 C 
ATOM     13  C   UNL     1       0.789   7.852  -1.877  0.00  0.00    +0.004 C 
ATOM     14  C   UNL     1       0.925   9.344  -2.187  0.00  0.00    +0.000 C 
ATOM     15  C   UNL     1       1.670  10.036  -1.043  0.00  0.00    +0.000 C 
ATOM     16  C   UNL     1       0.886   9.855   0.258  0.00  0.00    +0.000 C 
ATOM     17  C   UNL     1       0.750   8.363   0.568  0.00  0.00    +0.004 C 
ENDBRANCH  11  12
ENDBRANCH   8  11
ENDBRANCH   4   7
BRANCH   1  18
ATOM     18  C   UNL     1      -2.044   0.095  -1.098  0.00  0.00    +0.095 C 
BRANCH  18  19
ATOM     19  C   UNL     1      -1.282  -0.514   0.081  0.00  0.00    -0.020 C 
BRANCH  19  20
ATOM     20  C   UNL     1      -1.799   0.071   1.370  0.00  0.00    -0.052 A 
ATOM     21  C   UNL     1      -1.113   1.091   2.003  0.00  0.00    +0.009 A 
ATOM     22  C   UNL     1      -1.605   1.595   3.161  0.00  0.00    +0.045 A 
ATOM     23  S   UNL     1      -3.083   0.619   3.389  0.00  0.00    -0.105 S 
ATOM     24  C   UNL     1      -2.947  -0.391   1.923  0.00  0.00    +0.047 A 
ENDBRANCH  19  20
BRANCH  19  26
ATOM     25  C   UNL     1      -0.983  -2.539  -1.170  0.00  0.00    -0.096 C 
ATOM     26  N   UNL     1      -1.477  -1.970   0.091  0.00  0.00    +0.382 N 
ATOM     27  C   UNL     1      -0.736  -2.556   1.216  0.00  0.00    -0.096 C 
ATOM     28  H   UNL     1      -2.460  -2.177   0.191  0.00  0.00    -0.082 HD
ENDBRANCH  19  26
ENDBRANCH  18  19
ENDBRANCH   1  18
TORSDOF 7
