REMARK  Name = ZINC06641572
REMARK  6 active torsions:
REMARK  status: ('A' for Active; 'I' for Inactive)
REMARK    1  A    between atoms: C_1  and  O_2
REMARK    2  A    between atoms: O_2  and  C_3
REMARK    3  A    between atoms: C_5  and  C_10
REMARK    4  A    between atoms: C_8  and  O_9
REMARK    5  A    between atoms: C_12  and  O_24
REMARK    6  A    between atoms: N_15  and  C_16
REMARK                            x       y       z     vdW  Elec       q    Type
REMARK                         _______ _______ _______ _____ _____    ______ ____
ROOT
ATOM      1  C   UNL     1       2.414   3.932  -0.000  0.00  0.00    +0.028 C 
ATOM      2  C   UNL     1       3.601   3.271   0.087  0.00  0.00    +0.077 C 
ATOM      3  C   UNL     1       4.970   3.805   0.197  0.00  0.00    +0.229 C 
ATOM      4  N   UNL     1       5.934   2.945   0.265  0.00  0.00    -0.186 NA
ATOM      5  C   UNL     1       5.714   1.618   0.239  0.00  0.00    +0.197 C 
ATOM      6  N   UNL     1       6.596   0.633   0.301  0.00  0.00    -0.221 NA
ATOM      7  S   UNL     1       3.935   1.514   0.109  0.00  0.00    -0.045 S 
ENDROOT
BRANCH   6   8
ATOM      8  C   UNL     1       7.927   0.915   0.405  0.00  0.00    +0.081 A 
ATOM      9  C   UNL     1       8.361   1.962   1.225  0.00  0.00    +0.029 A 
ATOM     10  C   UNL     1       9.708   2.240   1.325  0.00  0.00    +0.002 A 
ATOM     11  C   UNL     1      10.629   1.488   0.618  0.00  0.00    +0.001 A 
ATOM     12  C   UNL     1      10.208   0.451  -0.196  0.00  0.00    +0.017 A 
ATOM     13  C   UNL     1       8.864   0.155  -0.303  0.00  0.00    +0.043 A 
ATOM     14 BR   UNL     1       8.291  -1.267  -1.409  0.00  0.00    -0.048 Br
ENDBRANCH   6   8
BRANCH   1  17
ATOM     15  C   UNL     1      -1.245   3.122  -0.135  0.00  0.00    +0.162 A 
ATOM     16  C   UNL     1      -0.062   3.831  -0.199  0.00  0.00    +0.057 A 
ATOM     17  C   UNL     1       1.153   3.185   0.066  0.00  0.00    -0.020 A 
ATOM     18  C   UNL     1       1.159   1.823   0.393  0.00  0.00    +0.012 A 
ATOM     19  C   UNL     1      -0.027   1.124   0.454  0.00  0.00    +0.050 A 
ATOM     20  C   UNL     1      -1.229   1.765   0.186  0.00  0.00    +0.158 A 
BRANCH  15  22
ATOM     21  C   UNL     1      -2.367   5.136  -0.719  0.00  0.00    +0.277 C 
ATOM     22  O   UNL     1      -2.426   3.747  -0.391  0.00  0.00    -0.491 OA
ENDBRANCH  15  22
BRANCH  20  23
ATOM     23  O   UNL     1      -2.394   1.069   0.243  0.00  0.00    -0.503 OA
ATOM     24  H   UNL     1      -2.813   1.073   1.114  0.00  0.00    +0.292 HD
ENDBRANCH  20  23
ENDBRANCH   1  17
BRANCH   3  25
ATOM     25  O   UNL     1       5.209   5.136   0.225  0.00  0.00    -0.492 OA
ATOM     26  H   UNL     1       6.145   5.366   0.299  0.00  0.00    +0.294 HD
ENDBRANCH   3  25
TORSDOF 5
