REMARK  Name = ZINC01097182
REMARK  8 active torsions:
REMARK  status: ('A' for Active; 'I' for Inactive)
REMARK    1  A    between atoms: C_1  and  C_2
REMARK    2  A    between atoms: C_4  and  C_18
REMARK    3  A    between atoms: C_5  and  C_17
REMARK    4  A    between atoms: N_6  and  C_7
REMARK    5  A    between atoms: C_10  and  S_13
REMARK    6  A    between atoms: S_13  and  N_16
REMARK    7  A    between atoms: N_19  and  N_20
REMARK    8  A    between atoms: C_21  and  C_23
REMARK                            x       y       z     vdW  Elec       q    Type
REMARK                         _______ _______ _______ _____ _____    ______ ____
ROOT
ATOM      1  C   UNL     1      -2.080   1.296   6.396  0.00  0.00    +0.064 C 
ATOM      2  C   UNL     1      -2.979   2.455   6.049  0.00  0.00    +0.022 A 
ATOM      3  C   UNL     1      -3.815   3.079   6.900  0.00  0.00    +0.032 A 
ATOM      4  C   UNL     1      -4.481   4.136   6.133  0.00  0.00    +0.016 A 
ATOM      5  C   UNL     1      -3.979   4.063   4.865  0.00  0.00    +0.030 A 
ATOM      6  N   UNL     1      -3.078   3.044   4.821  0.00  0.00    -0.317 N 
ATOM      7  C   UNL     1      -4.360   4.955   3.712  0.00  0.00    +0.064 C 
ENDROOT
BRANCH   6   8
ATOM      8  C   UNL     1      -2.355   2.659   3.684  0.00  0.00    +0.047 A 
ATOM      9  C   UNL     1      -2.560   1.408   3.119  0.00  0.00    +0.028 A 
ATOM     10  C   UNL     1      -1.846   1.032   1.999  0.00  0.00    +0.030 A 
ATOM     11  C   UNL     1      -0.927   1.900   1.439  0.00  0.00    +0.105 A 
ATOM     12  C   UNL     1      -0.716   3.145   2.003  0.00  0.00    +0.030 A 
ATOM     13  C   UNL     1      -1.431   3.529   3.121  0.00  0.00    +0.028 A 
BRANCH  11  14
ATOM     14  S   UNL     1      -0.017   1.417   0.010  0.00  0.00    +0.056 S 
ATOM     15  O   UNL     1       0.002  -0.004   0.002  0.00  0.00    -0.153 OA
ATOM     16  O   UNL     1       1.172   2.195   0.003  0.00  0.00    -0.153 OA
BRANCH  14  17
ATOM     17  N   UNL     1      -0.897   1.885  -1.312  0.00  0.00    -0.204 NA
ATOM     18  H   UNL     1      -1.747   2.338  -1.194  0.00  0.00    +0.144 HD
ATOM     19  H   UNL     1      -0.563   1.708  -2.205  0.00  0.00    +0.144 HD
ENDBRANCH  14  17
ENDBRANCH  11  14
ENDBRANCH   6   8
BRANCH   4  20
ATOM     20  C   UNL     1      -5.487   5.090   6.633  0.00  0.00    +0.140 C 
ATOM     21  N   UNL     1      -5.993   5.978   5.832  0.00  0.00    -0.187 NA
BRANCH  21  22
ATOM     22  N   UNL     1      -6.949   6.885   6.306  0.00  0.00    -0.203 N 
ATOM     23  C   UNL     1      -7.475   7.807   5.475  0.00  0.00    +0.264 C 
ATOM     24  O   UNL     1      -7.119   7.851   4.313  0.00  0.00    -0.268 OA
ATOM     25  H   UNL     1      -7.234   6.850   7.233  0.00  0.00    +0.178 HD
BRANCH  23  26
ATOM     26  C   UNL     1      -8.483   8.764   5.976  0.00  0.00    +0.052 A 
ATOM     27  C   UNL     1      -8.899   8.712   7.308  0.00  0.00    +0.014 A 
ATOM     28  C   UNL     1      -9.837   9.611   7.770  0.00  0.00    +0.001 A 
ATOM     29  C   UNL     1     -10.374  10.557   6.914  0.00  0.00    +0.001 A 
ATOM     30  C   UNL     1      -9.972  10.611   5.592  0.00  0.00    +0.016 A 
ATOM     31  C   UNL     1      -9.030   9.720   5.117  0.00  0.00    +0.030 A 
ATOM     32 BR   UNL     1      -8.481   9.795   3.309  0.00  0.00    -0.050 Br
ENDBRANCH  23  26
ENDBRANCH  21  22
ENDBRANCH   4  20
TORSDOF 6
