REMARK  Name = ZINC21247515
REMARK  12 active torsions:
REMARK  status: ('A' for Active; 'I' for Inactive)
REMARK    1  A    between atoms: C_1  and  C_2
REMARK    2  A    between atoms: C_2  and  C_3
REMARK    3  A    between atoms: C_2  and  C_4
REMARK    4  A    between atoms: C_2  and  C_5
REMARK    5  A    between atoms: C_8  and  C_11
REMARK    6  A    between atoms: C_16  and  C_26
REMARK    7  A    between atoms: C_28  and  O_36
REMARK    8  A    between atoms: C_29  and  O_34
REMARK    9  A    between atoms: C_31  and  O_32
REMARK   10  A    between atoms: O_32  and  C_33
REMARK   11  A    between atoms: O_34  and  C_35
REMARK   12  A    between atoms: O_36  and  C_37
REMARK                            x       y       z     vdW  Elec       q    Type
REMARK                         _______ _______ _______ _____ _____    ______ ____
ROOT
ATOM      1  C   UNL     1       5.714   1.506   6.713  0.00  0.00    +0.032 C 
ATOM      2  C   UNL     1       4.481   2.233   7.247  0.00  0.00    +0.059 C 
ATOM      3  C   UNL     1       3.249   1.358   7.077  0.00  0.00    +0.017 C 
ATOM      4  C   UNL     1       3.151   0.517   6.035  0.00  0.00    +0.037 C 
ATOM      5  C   UNL     1       1.979  -0.386   5.732  0.00  0.00    +0.140 C 
ATOM      6  N   UNL     1       1.017  -0.495   6.808  0.00  0.00    -0.331 N 
ATOM      7  C   UNL     1       0.274   0.604   7.227  0.00  0.00    +0.049 A 
ATOM      8  C   UNL     1      -1.095   0.674   7.023  0.00  0.00    +0.025 A 
ATOM      9  C   UNL     1      -1.774   1.833   7.358  0.00  0.00    +0.002 A 
ATOM     10  C   UNL     1      -1.095   2.912   7.894  0.00  0.00    +0.002 A 
ATOM     11  C   UNL     1       0.269   2.837   8.119  0.00  0.00    +0.025 A 
ATOM     12  C   UNL     1       0.946   1.673   7.800  0.00  0.00    +0.052 A 
ATOM     13  N   UNL     1       2.306   1.515   8.040  0.00  0.00    -0.316 N 
ATOM     14  C   UNL     1       4.208   0.414   5.100  0.00  0.00    +0.163 C 
ATOM     15  O   UNL     1       4.086  -0.344   4.158  0.00  0.00    -0.292 OA
ATOM     16  C   UNL     1       5.473   1.208   5.229  0.00  0.00    +0.088 C 
ATOM     17  H   UNL     1       0.861  -1.460   7.312  0.00  0.00    +0.147 HD
ATOM     18  H   UNL     1       2.599   1.524   9.101  0.00  0.00    +0.152 HD
ENDROOT
BRANCH   1  22
ATOM     19  C   UNL     1       9.162   3.990   7.151  0.00  0.00    -0.042 A 
ATOM     20  C   UNL     1       9.128   2.743   7.747  0.00  0.00    +0.004 A 
ATOM     21  C   UNL     1       8.012   1.939   7.605  0.00  0.00    +0.004 A 
ATOM     22  C   UNL     1       6.930   2.382   6.868  0.00  0.00    -0.043 A 
ATOM     23  C   UNL     1       6.966   3.627   6.268  0.00  0.00    +0.004 A 
ATOM     24  C   UNL     1       8.080   4.433   6.414  0.00  0.00    +0.004 A 
BRANCH  19  26
ATOM     25  C   UNL     1      11.600   4.148   6.731  0.00  0.00    +0.015 C 
ATOM     26  C   UNL     1      10.378   4.866   7.306  0.00  0.00    -0.013 C 
ATOM     27  C   UNL     1      10.158   6.180   6.555  0.00  0.00    +0.015 C 
ATOM     28  C   UNL     1      10.610   5.159   8.790  0.00  0.00    +0.015 C 
ENDBRANCH  19  26
ENDBRANCH   1  22
BRANCH   5  29
ATOM     29  C   UNL     1       1.272   0.142   4.510  0.00  0.00    +0.023 A 
ATOM     30  C   UNL     1       1.499   1.439   4.088  0.00  0.00    +0.058 A 
ATOM     31  C   UNL     1       0.855   1.924   2.962  0.00  0.00    +0.162 A 
ATOM     32  C   UNL     1      -0.029   1.109   2.261  0.00  0.00    +0.165 A 
ATOM     33  C   UNL     1      -0.255  -0.190   2.685  0.00  0.00    +0.095 A 
ATOM     34  C   UNL     1       0.397  -0.674   3.810  0.00  0.00    +0.129 A 
BRANCH  34  35
ATOM     35  O   UNL     1       0.175  -1.949   4.227  0.00  0.00    -0.495 OA
ATOM     36  C   UNL     1      -0.740  -2.733   3.459  0.00  0.00    +0.277 C 
ENDBRANCH  34  35
BRANCH  32  37
ATOM     37  O   UNL     1      -0.666   1.586   1.159  0.00  0.00    -0.491 OA
ATOM     38  C   UNL     1      -1.555   0.692   0.486  0.00  0.00    +0.277 C 
ENDBRANCH  32  37
BRANCH  31  39
ATOM     39  O   UNL     1       1.083   3.199   2.544  0.00  0.00    -0.491 OA
ATOM     40  C   UNL     1       2.080   3.944   3.247  0.00  0.00    +0.277 C 
ENDBRANCH  31  39
ENDBRANCH   5  29
TORSDOF 6
