REMARK  Name = ZINC28632126
REMARK  10 active torsions:
REMARK  status: ('A' for Active; 'I' for Inactive)
REMARK    1  A    between atoms: C_1  and  C_2
REMARK    2  A    between atoms: C_2  and  O_3
REMARK    3  A    between atoms: O_3  and  C_4
REMARK    4  A    between atoms: C_4  and  C_6
REMARK    5  A    between atoms: C_7  and  C_22
REMARK    6  A    between atoms: C_12  and  C_14
REMARK    7  A    between atoms: C_17  and  C_21
REMARK    8  A    between atoms: C_19  and  C_20
REMARK    9  A    between atoms: C_22  and  N_23
REMARK   10  A    between atoms: N_23  and  C_24
REMARK                            x       y       z     vdW  Elec       q    Type
REMARK                         _______ _______ _______ _____ _____    ______ ____
ROOT
ATOM      1  C   UNL     1      -3.619  -2.788  -1.509  0.00  0.00    +0.076 C 
ATOM      2  C   UNL     1      -3.122  -2.860  -0.255  0.00  0.00    +0.007 C 
ATOM      3  N   UNL     1      -3.929  -3.147   0.808  0.00  0.00    -0.274 N 
ATOM      4  C   UNL     1      -5.246  -3.366   0.703  0.00  0.00    +0.304 C 
ATOM      5  O   UNL     1      -5.884  -3.610   1.708  0.00  0.00    -0.252 OA
ATOM      6  N   UNL     1      -5.886  -3.328  -0.483  0.00  0.00    -0.288 N 
ATOM      7  C   UNL     1      -5.103  -3.031  -1.694  0.00  0.00    +0.144 C 
ATOM      8  H   UNL     1      -3.504  -3.211   1.820  0.00  0.00    +0.156 HD
ATOM      9  H   UNL     1      -6.968  -3.513  -0.559  0.00  0.00    +0.151 HD
ENDROOT
BRANCH   7  10
ATOM     10  C   UNL     1      -5.269  -4.185  -2.648  0.00  0.00    -0.020 A 
ATOM     11  C   UNL     1      -5.364  -5.476  -2.162  0.00  0.00    +0.006 A 
ATOM     12  C   UNL     1      -5.522  -6.534  -3.038  0.00  0.00    +0.004 A 
ATOM     13  C   UNL     1      -5.573  -6.303  -4.400  0.00  0.00    -0.050 A 
ATOM     14  C   UNL     1      -5.473  -5.013  -4.886  0.00  0.00    +0.007 A 
ATOM     15  C   UNL     1      -5.321  -3.954  -4.010  0.00  0.00    -0.045 A 
ATOM     16  C   UNL     1      -5.210  -2.548  -4.540  0.00  0.00    +0.044 C 
ATOM     17  C   UNL     1      -5.738  -7.457  -5.354  0.00  0.00    +0.044 C 
ENDBRANCH   7  10
BRANCH   1  18
ATOM     18  C   UNL     1      -2.783  -2.495  -2.611  0.00  0.00    +0.339 C 
ATOM     19  O   UNL     1      -2.744  -1.365  -3.062  0.00  0.00    -0.245 OA
BRANCH  18  20
ATOM     20  O   UNL     1      -2.028  -3.468  -3.163  0.00  0.00    -0.462 OA
BRANCH  20  22
ATOM     21  C   UNL     1      -0.454  -4.325  -4.785  0.00  0.00    +0.048 C 
ATOM     22  C   UNL     1      -1.132  -3.081  -4.207  0.00  0.00    +0.229 C 
ENDBRANCH  20  22
ENDBRANCH  18  20
ENDBRANCH   1  18
BRANCH   2  23
ATOM     23  C   UNL     1      -1.651  -2.625  -0.026  0.00  0.00    -0.030 C 
BRANCH  23  24
ATOM     24  N   UNL     1      -1.468  -1.415   0.786  0.00  0.00    +0.384 N 
ATOM     25  H   UNL     1      -1.900  -0.551   0.258  0.00  0.00    -0.085 HD
ATOM     26  H   UNL     1      -1.974  -1.543   1.754  0.00  0.00    -0.085 HD
BRANCH  24  27
ATOM     27  C   UNL     1      -0.043  -1.154   1.029  0.00  0.00    -0.071 C 
ATOM     28  C   UNL     1       0.164   0.338   1.297  0.00  0.00    -0.016 C 
ATOM     29  C   UNL     1       1.648   0.610   1.551  0.00  0.00    -0.002 C 
ATOM     30  C   UNL     1       2.113  -0.196   2.766  0.00  0.00    -0.000 C 
ATOM     31  C   UNL     1       1.906  -1.688   2.498  0.00  0.00    -0.002 C 
ATOM     32  C   UNL     1       0.422  -1.960   2.244  0.00  0.00    -0.016 C 
ENDBRANCH  24  27
ENDBRANCH  23  24
ENDBRANCH   2  23
TORSDOF 7
