REMARK  Name = ZINC41346672
REMARK  7 active torsions:
REMARK  status: ('A' for Active; 'I' for Inactive)
REMARK    1  A    between atoms: C_1  and  C_2
REMARK    2  A    between atoms: C_5  and  C_8
REMARK    3  A    between atoms: C_8  and  S_9
REMARK    4  A    between atoms: S_9  and  N_12
REMARK    5  A    between atoms: C_14  and  C_21
REMARK    6  A    between atoms: C_18  and  C_19
REMARK    7  A    between atoms: C_18  and  C_20
REMARK                            x       y       z     vdW  Elec       q    Type
REMARK                         _______ _______ _______ _____ _____    ______ ____
ROOT
ATOM      1  N   UNL     1       1.609  -6.499  -0.043  0.00  0.00    -0.170 NA
ATOM      2  C   UNL     1       1.661  -7.260   1.216  0.00  0.00    +0.146 C 
ATOM      3  C   UNL     1       2.741  -8.339   1.084  0.00  0.00    +0.164 C 
ATOM      4  O   UNL     1       2.508  -9.096  -0.107  0.00  0.00    -0.369 OA
ATOM      5  C   UNL     1       2.593  -8.332  -1.312  0.00  0.00    +0.184 C 
ATOM      6  C   UNL     1       1.499  -7.252  -1.302  0.00  0.00    +0.060 C 
ATOM      7  C   UNL     1       0.120  -7.909  -1.391  0.00  0.00    +0.031 C 
ATOM      8  C   UNL     1       1.697  -6.305  -2.488  0.00  0.00    +0.031 C 
ENDROOT
BRANCH   3   9
ATOM      9  C   UNL     1       2.689  -9.253   2.281  0.00  0.00    -0.016 A 
ATOM     10  C   UNL     1       1.815 -10.324   2.294  0.00  0.00    +0.006 A 
ATOM     11  C   UNL     1       1.766 -11.163   3.392  0.00  0.00    +0.002 A 
ATOM     12  C   UNL     1       2.591 -10.930   4.477  0.00  0.00    +0.020 A 
ATOM     13  C   UNL     1       3.465  -9.858   4.464  0.00  0.00    +0.041 A 
ATOM     14  C   UNL     1       3.518  -9.023   3.362  0.00  0.00    +0.026 A 
ATOM     15 CL   UNL     1       4.500  -9.565   5.827  0.00  0.00    -0.084 Cl
ENDBRANCH   3   9
BRANCH   1  16
ATOM     16  S   UNL     1       1.666  -4.844  -0.042  0.00  0.00    +0.037 S 
ATOM     17  O   UNL     1       2.457  -4.507  -1.173  0.00  0.00    -0.158 OA
ATOM     18  O   UNL     1       2.091  -4.497   1.269  0.00  0.00    -0.158 OA
BRANCH  16  19
ATOM     19  C   UNL     1      -0.051  -4.318  -0.301  0.00  0.00    +0.220 C 
BRANCH  19  24
ATOM     20  C   UNL     1      -0.314   1.454  -0.365  0.00  0.00    +0.044 C 
ATOM     21  C   UNL     1      -0.245  -0.051  -0.348  0.00  0.00    -0.050 A 
ATOM     22  C   UNL     1      -0.035  -0.747  -1.524  0.00  0.00    +0.003 A 
ATOM     23  C   UNL     1       0.028  -2.127  -1.509  0.00  0.00    +0.005 A 
ATOM     24  C   UNL     1      -0.119  -2.813  -0.318  0.00  0.00    -0.025 A 
ATOM     25  C   UNL     1      -0.328  -2.117   0.859  0.00  0.00    +0.005 A 
ATOM     26  C   UNL     1      -0.386  -0.736   0.844  0.00  0.00    +0.003 A 
ENDBRANCH  19  24
ENDBRANCH  16  19
ENDBRANCH   1  16
TORSDOF 4
