REMARK  Name = ZINC37278166
REMARK  8 active torsions:
REMARK  status: ('A' for Active; 'I' for Inactive)
REMARK    1  A    between atoms: C_1  and  C_2
REMARK    2  A    between atoms: C_2  and  C_3
REMARK    3  A    between atoms: C_3  and  O_4
REMARK    4  A    between atoms: O_4  and  C_5
REMARK    5  A    between atoms: C_10  and  N_11
REMARK    6  A    between atoms: N_11  and  C_12
REMARK    7  A    between atoms: C_12  and  C_14
REMARK    8  A    between atoms: C_12  and  C_15
REMARK                            x       y       z     vdW  Elec       q    Type
REMARK                         _______ _______ _______ _____ _____    ______ ____
ROOT
ATOM      1  N   UNL     1      -1.491  -4.738  -0.010  0.00  0.00    -0.334 N 
ATOM      2  H   UNL     1      -0.632  -4.289  -0.016  0.00  0.00    +0.147 HD
ENDROOT
BRANCH   1   8
ATOM      3  C   UNL     1      -2.617  -2.596   0.013  0.00  0.00    +0.141 A 
ATOM      4  C   UNL     1      -3.790  -1.860   0.022  0.00  0.00    +0.047 A 
ATOM      5  C   UNL     1      -5.013  -2.505   0.031  0.00  0.00    +0.004 A 
ATOM      6  C   UNL     1      -5.069  -3.887   0.030  0.00  0.00    +0.002 A 
ATOM      7  C   UNL     1      -3.904  -4.629   0.020  0.00  0.00    +0.026 A 
ATOM      8  C   UNL     1      -2.673  -3.988   0.006  0.00  0.00    +0.070 A 
BRANCH   3   9
ATOM      9  O   UNL     1      -1.414  -1.962   0.005  0.00  0.00    -0.490 OA
BRANCH   9  10
ATOM     10  C   UNL     1      -1.433  -0.534   0.013  0.00  0.00    +0.229 C 
BRANCH  10  12
ATOM     11  C   UNL     1      -0.019   1.526   0.010  0.00  0.00    +0.007 C 
ATOM     12  C   UNL     1       0.002  -0.004   0.002  0.00  0.00    +0.038 C 
ENDBRANCH  10  12
ENDBRANCH   9  10
ENDBRANCH   3   9
ENDBRANCH   1   8
BRANCH   1  13
ATOM     13  C   UNL     1      -1.553  -6.202  -0.017  0.00  0.00    +0.098 C 
ATOM     14  C   UNL     1      -1.685  -6.714   1.419  0.00  0.00    +0.033 C 
BRANCH  13  15
ATOM     15  C   UNL     1      -0.293  -6.754  -0.633  0.00  0.00    -0.028 A 
ATOM     16  C   UNL     1       0.929  -6.175  -0.345  0.00  0.00    +0.006 A 
ATOM     17  C   UNL     1       2.084  -6.682  -0.909  0.00  0.00    +0.015 A 
ATOM     18  C   UNL     1       2.018  -7.768  -1.763  0.00  0.00    +0.013 A 
ATOM     19  C   UNL     1       0.795  -8.347  -2.051  0.00  0.00    +0.015 A 
ATOM     20  C   UNL     1      -0.359  -7.843  -1.482  0.00  0.00    +0.006 A 
ATOM     21  I   UNL     1       3.769  -8.535  -2.620  0.00  0.00    -0.044 I 
ENDBRANCH  13  15
ENDBRANCH   1  13
TORSDOF 6
