REMARK  Name = ZINC20902925
REMARK  8 active torsions:
REMARK  status: ('A' for Active; 'I' for Inactive)
REMARK    1  A    between atoms: C_1  and  C_2
REMARK    2  A    between atoms: C_2  and  C_26
REMARK    3  A    between atoms: C_7  and  O_24
REMARK    4  A    between atoms: N_15  and  C_16
REMARK    5  A    between atoms: C_20  and  S_22
REMARK    6  A    between atoms: S_22  and  C_23
REMARK    7  A    between atoms: O_24  and  C_25
REMARK    8  A    between atoms: N_28  and  C_29
REMARK                            x       y       z     vdW  Elec       q    Type
REMARK                         _______ _______ _______ _____ _____    ______ ____
ROOT
ATOM      1  C   UNL     1       2.733   4.830   1.469  0.00  0.00    +0.044 C 
ATOM      2  C   UNL     1       2.451   4.245   0.083  0.00  0.00    +0.133 C 
ATOM      3  C   UNL     1       2.403   5.387  -0.931  0.00  0.00    +0.158 C 
ATOM      4  N   UNL     1       1.157   6.141  -0.752  0.00  0.00    -0.334 N 
ATOM      5  C   UNL     1       0.883   7.447  -0.982  0.00  0.00    +0.053 A 
ATOM      6  C   UNL     1       1.672   8.502  -1.438  0.00  0.00    +0.072 A 
ATOM      7  C   UNL     1       1.059   9.741  -1.565  0.00  0.00    +0.122 A 
ATOM      8  C   UNL     1      -0.284   9.938  -1.255  0.00  0.00    +0.046 A 
ATOM      9  C   UNL     1      -1.083   8.920  -0.805  0.00  0.00    +0.013 A 
ATOM     10  C   UNL     1      -0.488   7.657  -0.665  0.00  0.00    +0.001 A 
ATOM     11  C   UNL     1      -1.009   6.424  -0.232  0.00  0.00    +0.041 A 
ATOM     12  C   UNL     1      -0.006   5.522  -0.282  0.00  0.00    +0.106 A 
ATOM     13  C   UNL     1      -0.002   4.095   0.078  0.00  0.00    +0.268 C 
ATOM     14  O   UNL     1      -1.032   3.493   0.316  0.00  0.00    -0.268 OA
ATOM     15  N   UNL     1       1.206   3.488   0.135  0.00  0.00    -0.250 N 
ENDROOT
BRANCH  15  16
ATOM     16  C   UNL     1       1.262   2.095   0.241  0.00  0.00    +0.039 A 
ATOM     17  C   UNL     1       0.668   1.299  -0.730  0.00  0.00    +0.023 A 
ATOM     18  C   UNL     1       0.722  -0.077  -0.626  0.00  0.00    +0.003 A 
ATOM     19  C   UNL     1       1.367  -0.668   0.443  0.00  0.00    +0.015 A 
ATOM     20  C   UNL     1       1.965   0.123   1.418  0.00  0.00    +0.009 A 
ATOM     21  C   UNL     1       1.912   1.506   1.316  0.00  0.00    +0.038 A 
BRANCH  20  22
ATOM     22  S   UNL     1       2.789  -0.631   2.781  0.00  0.00    -0.129 S 
ATOM     23  C   UNL     1       2.596  -2.409   2.482  0.00  0.00    +0.090 C 
ENDBRANCH  20  22
ENDBRANCH  15  16
BRANCH   2  24
ATOM     24  C   UNL     1       3.574   3.312  -0.288  0.00  0.00    +0.239 C 
ATOM     25  O   UNL     1       4.633   3.371   0.302  0.00  0.00    -0.273 OA
ATOM     26  N   UNL     1       3.403   2.410  -1.276  0.00  0.00    -0.311 N 
ATOM     27  H   UNL     1       2.475   2.412  -1.867  0.00  0.00    +0.149 HD
BRANCH  26  28
ATOM     28  C   UNL     1       4.451   1.428  -1.562  0.00  0.00    +0.073 C 
ATOM     29  C   UNL     1       5.455   2.027  -2.550  0.00  0.00    +0.022 C 
ATOM     30  C   UNL     1       6.550   1.001  -2.849  0.00  0.00    +0.002 C 
ATOM     31  C   UNL     1       5.921  -0.254  -3.457  0.00  0.00    +0.000 C 
ATOM     32  C   UNL     1       4.918  -0.852  -2.469  0.00  0.00    +0.002 C 
ATOM     33  C   UNL     1       3.823   0.173  -2.170  0.00  0.00    +0.022 C 
ENDBRANCH  26  28
ENDBRANCH   2  24
BRANCH   7  34
ATOM     34  O   UNL     1       1.793  10.796  -2.005  0.00  0.00    -0.495 OA
ATOM     35  C   UNL     1       1.120  12.051  -2.119  0.00  0.00    +0.277 C 
ENDBRANCH   7  34
TORSDOF 5
