REMARK  Name = ZINC05259342
REMARK  6 active torsions:
REMARK  status: ('A' for Active; 'I' for Inactive)
REMARK    1  A    between atoms: C_4  and  N_7
REMARK    2  A    between atoms: C_10  and  C_15
REMARK    3  A    between atoms: C_15  and  O_16
REMARK    4  A    between atoms: O_16  and  C_17
REMARK    5  A    between atoms: C_17  and  C_19
REMARK    6  A    between atoms: C_19  and  C_20
REMARK                            x       y       z     vdW  Elec       q    Type
REMARK                         _______ _______ _______ _____ _____    ______ ____
ROOT
ATOM      1  N   UNL     1       3.503  -0.656  -0.035  0.00  0.00    -0.284 N 
ATOM      2  C   UNL     1       2.315   0.025   0.149  0.00  0.00    +0.224 A 
ATOM      3  N   UNL     1       1.160  -0.637   0.147  0.00  0.00    -0.196 NA
ATOM      4  C   UNL     1       0.023   0.013   0.324  0.00  0.00    +0.173 A 
ATOM      5  N   UNL     1       0.028   1.322   0.502  0.00  0.00    -0.196 NA
ATOM      6  C   UNL     1       1.178   1.992   0.505  0.00  0.00    +0.217 A 
ATOM      7  N   UNL     1       2.323   1.341   0.329  0.00  0.00    -0.181 NA
ATOM      8  N   UNL     1       1.182   3.359   0.691  0.00  0.00    -0.327 N 
ATOM      9  H   UNL     1       3.504  -1.624  -0.085  0.00  0.00    +0.155 HD
ATOM     10  H   UNL     1       0.345   3.833   0.820  0.00  0.00    +0.145 HD
ATOM     11  H   UNL     1       2.021   3.846   0.694  0.00  0.00    +0.145 HD
ENDROOT
BRANCH   1  15
ATOM     12  C   UNL     1       7.080   1.452  -0.372  0.00  0.00    +0.000 A 
ATOM     13  C   UNL     1       7.067   0.205   0.226  0.00  0.00    +0.002 A 
ATOM     14  C   UNL     1       5.883  -0.496   0.340  0.00  0.00    +0.023 A 
ATOM     15  C   UNL     1       4.704   0.052  -0.148  0.00  0.00    +0.034 A 
ATOM     16  C   UNL     1       4.721   1.302  -0.753  0.00  0.00    +0.023 A 
ATOM     17  C   UNL     1       5.907   2.001  -0.858  0.00  0.00    +0.002 A 
ENDBRANCH   1  15
BRANCH   4  18
ATOM     18  C   UNL     1      -1.282  -0.741   0.321  0.00  0.00    +0.308 C 
BRANCH  18  19
ATOM     19  O   UNL     1      -1.805  -0.798  -1.032  0.00  0.00    -0.456 OA
BRANCH  19  20
ATOM     20  C   UNL     1      -2.971  -1.440  -1.208  0.00  0.00    +0.312 C 
ATOM     21  O   UNL     1      -3.535  -1.938  -0.262  0.00  0.00    -0.250 OA
BRANCH  20  22
ATOM     22  C   UNL     1      -3.576  -1.540  -2.584  0.00  0.00    +0.157 C 
BRANCH  22  23
ATOM     23  C   UNL     1      -4.873  -2.304  -2.509  0.00  0.00    -0.012 A 
ATOM     24  C   UNL     1      -5.041  -3.616  -2.734  0.00  0.00    +0.087 A 
ATOM     25  N   UNL     1      -6.357  -3.953  -2.570  0.00  0.00    -0.360 N 
ATOM     26  H   UNL     1      -6.722  -4.845  -2.677  0.00  0.00    +0.165 HD
ATOM     27  C   UNL     1      -7.088  -2.835  -2.235  0.00  0.00    +0.047 A 
ATOM     28  C   UNL     1      -6.190  -1.753  -2.182  0.00  0.00    +0.003 A 
ATOM     29  C   UNL     1      -6.656  -0.477  -1.861  0.00  0.00    +0.010 A 
ATOM     30  C   UNL     1      -7.983  -0.285  -1.600  0.00  0.00    +0.001 A 
ATOM     31  C   UNL     1      -8.873  -1.349  -1.651  0.00  0.00    +0.002 A 
ATOM     32  C   UNL     1      -8.435  -2.617  -1.965  0.00  0.00    +0.026 A 
ENDBRANCH  22  23
ENDBRANCH  20  22
ENDBRANCH  19  20
ENDBRANCH  18  19
ENDBRANCH   4  18
TORSDOF 6
