REMARK  Name = ZINC64538272
REMARK  9 active torsions:
REMARK  status: ('A' for Active; 'I' for Inactive)
REMARK    1  A    between atoms: C_1  and  C_2
REMARK    2  A    between atoms: C_2  and  C_4
REMARK    3  A    between atoms: C_2  and  N_20
REMARK    4  A    between atoms: N_6  and  C_7
REMARK    5  A    between atoms: C_7  and  C_8
REMARK    6  A    between atoms: C_8  and  C_9
REMARK    7  A    between atoms: C_12  and  O_18
REMARK    8  A    between atoms: O_18  and  C_19
REMARK    9  A    between atoms: C_28  and  C_32
REMARK                            x       y       z     vdW  Elec       q    Type
REMARK                         _______ _______ _______ _____ _____    ______ ____
ROOT
ATOM      1  C   UNL     1      -0.172   1.514  -0.072  0.00  0.00    +0.038 C 
ATOM      2  C   UNL     1       0.002  -0.004   0.002  0.00  0.00    +0.164 C 
ENDROOT
BRANCH   2   3
ATOM      3  N   UNL     1       0.688  -0.476  -1.203  0.00  0.00    -0.256 N 
ATOM      4  C   UNL     1       1.891  -1.182  -1.084  0.00  0.00    +0.058 A 
ATOM      5  C   UNL     1       2.593  -1.189   0.111  0.00  0.00    +0.025 A 
ATOM      6  C   UNL     1       3.777  -1.896   0.209  0.00  0.00    +0.002 A 
ATOM      7  C   UNL     1       4.266  -2.595  -0.879  0.00  0.00    +0.002 A 
ATOM      8  C   UNL     1       3.574  -2.591  -2.077  0.00  0.00    +0.025 A 
ATOM      9  C   UNL     1       2.389  -1.885  -2.182  0.00  0.00    +0.050 A 
ATOM     10  N   UNL     1       1.671  -1.852  -3.386  0.00  0.00    -0.325 N 
ATOM     11  C   UNL     1       0.864  -0.656  -3.673  0.00  0.00    +0.262 C 
ATOM     12  C   UNL     1       0.151  -0.233  -2.414  0.00  0.00    +0.250 C 
ATOM     13  O   UNL     1      -0.917   0.337  -2.492  0.00  0.00    -0.273 OA
ATOM     14  H   UNL     1       1.704  -2.594  -4.009  0.00  0.00    +0.147 HD
BRANCH  11  15
ATOM     15  C   UNL     1       1.777   0.473  -4.156  0.00  0.00    +0.416 C 
ATOM     16  F   UNL     1       2.442   0.069  -5.319  0.00  0.00    -0.168 F 
ATOM     17  F   UNL     1       1.008   1.609  -4.429  0.00  0.00    -0.168 F 
ATOM     18  F   UNL     1       2.715   0.772  -3.163  0.00  0.00    -0.168 F 
ENDBRANCH  11  15
ENDBRANCH   2   3
BRANCH   2  19
ATOM     19  C   UNL     1      -1.351  -0.660   0.100  0.00  0.00    +0.234 C 
ATOM     20  O   UNL     1      -1.707  -1.446  -0.753  0.00  0.00    -0.274 OA
ATOM     21  N   UNL     1      -2.165  -0.375   1.136  0.00  0.00    -0.313 N 
ATOM     22  H   UNL     1      -1.880   0.253   1.818  0.00  0.00    +0.149 HD
BRANCH  21  23
ATOM     23  C   UNL     1      -3.480  -1.013   1.231  0.00  0.00    +0.108 C 
BRANCH  23  24
ATOM     24  C   UNL     1      -4.196  -0.520   2.490  0.00  0.00    +0.052 C 
BRANCH  24  25
ATOM     25  C   UNL     1      -5.549  -1.176   2.588  0.00  0.00    -0.040 C 
ATOM     26  C   UNL     1      -5.864  -2.289   3.289  0.00  0.00    +0.002 A 
ATOM     27  C   UNL     1      -5.074  -3.188   4.136  0.00  0.00    +0.055 A 
ATOM     28  C   UNL     1      -5.674  -4.251   4.723  0.00  0.00    +0.121 A 
ATOM     29  C   UNL     1      -7.041  -4.530   4.551  0.00  0.00    +0.047 A 
ATOM     30  C   UNL     1      -7.850  -3.762   3.791  0.00  0.00    +0.029 A 
ATOM     31  C   UNL     1      -7.304  -2.584   3.108  0.00  0.00    +0.043 A 
ATOM     32  N   UNL     1      -7.857  -1.690   2.328  0.00  0.00    -0.380 N 
ATOM     33  C   UNL     1      -6.831  -0.720   1.928  0.00  0.00    +0.144 C 
ATOM     34  H   UNL     1      -8.790  -1.669   2.061  0.00  0.00    +0.160 HD
BRANCH  28  35
ATOM     35  O   UNL     1      -4.929  -5.076   5.505  0.00  0.00    -0.495 OA
ATOM     36  C   UNL     1      -5.603  -6.185   6.105  0.00  0.00    +0.277 C 
ENDBRANCH  28  35
ENDBRANCH  24  25
ENDBRANCH  23  24
ENDBRANCH  21  23
ENDBRANCH   2  19
TORSDOF 7
