REMARK  Name = ZINC39498279
REMARK  12 active torsions:
REMARK  status: ('A' for Active; 'I' for Inactive)
REMARK    1  A    between atoms: C_1  and  C_2
REMARK    2  A    between atoms: C_2  and  O_3
REMARK    3  A    between atoms: O_3  and  C_4
REMARK    4  A    between atoms: C_5  and  C_29
REMARK    5  A    between atoms: C_8  and  S_19
REMARK    6  A    between atoms: C_9  and  S_10
REMARK    7  A    between atoms: S_10  and  C_13
REMARK    8  A    between atoms: S_19  and  O_22
REMARK    9  A    between atoms: O_22  and  C_23
REMARK   10  A    between atoms: C_29  and  C_31
REMARK   11  A    between atoms: C_29  and  N_34
REMARK   12  A    between atoms: C_31  and  C_32
REMARK                            x       y       z     vdW  Elec       q    Type
REMARK                         _______ _______ _______ _____ _____    ______ ____
ROOT
ATOM      1  C   UNL     1      -2.091  -1.376   0.251  0.00  0.00    +0.153 A 
ATOM      2  C   UNL     1      -1.939  -1.717  -1.086  0.00  0.00    +0.017 A 
ATOM      3  C   UNL     1      -2.174  -3.014  -1.498  0.00  0.00    +0.011 A 
ATOM      4  C   UNL     1      -2.560  -3.973  -0.580  0.00  0.00    +0.033 A 
ATOM      5  C   UNL     1      -2.712  -3.637   0.752  0.00  0.00    +0.157 A 
ATOM      6  C   UNL     1      -2.472  -2.342   1.171  0.00  0.00    +0.163 A 
ENDROOT
BRANCH   6   7
ATOM      7  S   UNL     1      -2.659  -1.915   2.870  0.00  0.00    +0.030 S 
ATOM      8  O   UNL     1      -2.581  -3.130   3.604  0.00  0.00    -0.164 OA
ATOM      9  O   UNL     1      -1.786  -0.821   3.112  0.00  0.00    -0.164 OA
BRANCH   7  10
ATOM     10  C   UNL     1      -4.299  -1.306   3.077  0.00  0.00    +0.094 A 
ATOM     11  C   UNL     1      -4.645  -0.066   2.574  0.00  0.00    +0.027 A 
ATOM     12  C   UNL     1      -5.932   0.412   2.736  0.00  0.00    +0.002 A 
ATOM     13  C   UNL     1      -6.873  -0.350   3.402  0.00  0.00    +0.000 A 
ATOM     14  C   UNL     1      -6.528  -1.591   3.905  0.00  0.00    +0.002 A 
ATOM     15  C   UNL     1      -5.242  -2.071   3.738  0.00  0.00    +0.027 A 
ENDBRANCH   7  10
ENDBRANCH   6   7
BRANCH   5  16
ATOM     16  S   UNL     1      -3.204  -4.862   1.919  0.00  0.00    +0.153 S 
ATOM     17  O   UNL     1      -2.017  -5.316   2.555  0.00  0.00    -0.131 OA
ATOM     18  O   UNL     1      -4.296  -4.316   2.645  0.00  0.00    -0.131 OA
BRANCH  16  19
ATOM     19  O   UNL     1      -3.753  -6.041   1.129  0.00  0.00    -0.342 OA
BRANCH  19  20
ATOM     20  C   UNL     1      -3.912  -7.173   1.864  0.00  0.00    +0.157 A 
ATOM     21  C   UNL     1      -2.847  -8.044   2.039  0.00  0.00    +0.048 A 
ATOM     22  C   UNL     1      -3.011  -9.193   2.788  0.00  0.00    +0.004 A 
ATOM     23  C   UNL     1      -4.237  -9.477   3.361  0.00  0.00    +0.000 A 
ATOM     24  C   UNL     1      -5.301  -8.611   3.187  0.00  0.00    +0.004 A 
ATOM     25  C   UNL     1      -5.140  -7.457   2.445  0.00  0.00    +0.048 A 
ENDBRANCH  19  20
ENDBRANCH  16  19
ENDBRANCH   5  16
BRANCH   1  26
ATOM     26  O   UNL     1      -1.859  -0.101   0.659  0.00  0.00    -0.490 OA
BRANCH  26  28
ATOM     27  C   UNL     1      -0.427   1.748   1.265  0.00  0.00    +0.048 C 
ATOM     28  C   UNL     1      -0.504   0.257   0.934  0.00  0.00    +0.226 C 
ENDBRANCH  26  28
ENDBRANCH   1  26
BRANCH   2  29
ATOM     29  C   UNL     1      -1.520  -0.671  -2.087  0.00  0.00    +0.113 C 
BRANCH  29  30
ATOM     30  N   UNL     1      -2.659   0.197  -2.394  0.00  0.00    -0.311 N 
ATOM     31  C   UNL     1      -3.804  -0.336  -2.866  0.00  0.00    +0.326 C 
ATOM     32  O   UNL     1      -3.923  -1.540  -2.952  0.00  0.00    -0.280 OA
ATOM     33  H   UNL     1      -2.590   1.154  -2.257  0.00  0.00    +0.149 HD
ENDBRANCH  29  30
BRANCH  29  34
ATOM     34  C   UNL     1      -1.041  -1.356  -3.369  0.00  0.00    +0.097 C 
BRANCH  34  35
ATOM     35  C   UNL     1      -0.602  -0.312  -4.363  0.00  0.00    +0.225 C 
ATOM     36  O   UNL     1       0.507  -0.359  -4.838  0.00  0.00    -0.301 OA
ENDBRANCH  34  35
ENDBRANCH  29  34
ENDBRANCH   2  29
TORSDOF 11
