REMARK  Name = ZINC09145601
REMARK  7 active torsions:
REMARK  status: ('A' for Active; 'I' for Inactive)
REMARK    1  A    between atoms: C_1  and  N_2
REMARK    2  A    between atoms: C_3  and  C_21
REMARK    3  A    between atoms: C_6  and  S_7
REMARK    4  A    between atoms: S_7  and  C_8
REMARK    5  A    between atoms: C_8  and  C_9
REMARK    6  A    between atoms: N_11  and  C_12
REMARK    7  A    between atoms: C_24  and  N_27
REMARK                            x       y       z     vdW  Elec       q    Type
REMARK                         _______ _______ _______ _____ _____    ______ ____
ROOT
ATOM      1  C   UNL     1      -2.536  -0.744   0.059  0.00  0.00    +0.153 C 
ATOM      2  N   UNL     1      -1.143  -1.197   0.053  0.00  0.00    -0.305 N 
ATOM      3  C   UNL     1      -0.691  -2.496   0.050  0.00  0.00    +0.165 A 
ATOM      4  N   UNL     1       0.621  -2.448   0.044  0.00  0.00    -0.128 NA
ATOM      5  N   UNL     1       1.015  -1.224   0.038  0.00  0.00    -0.122 NA
ATOM      6  C   UNL     1      -0.021  -0.416   0.049  0.00  0.00    +0.192 A 
ENDROOT
BRANCH   3   7
ATOM      7  C   UNL     1      -1.525  -3.716   0.052  0.00  0.00    +0.019 A 
ATOM      8  C   UNL     1      -0.980  -4.936   0.458  0.00  0.00    +0.013 A 
ATOM      9  C   UNL     1      -1.761  -6.071   0.464  0.00  0.00    +0.023 A 
ATOM     10  C   UNL     1      -3.089  -6.004   0.057  0.00  0.00    +0.025 A 
ATOM     11  C   UNL     1      -3.634  -4.792  -0.353  0.00  0.00    +0.023 A 
ATOM     12  C   UNL     1      -2.859  -3.653  -0.357  0.00  0.00    +0.013 A 
BRANCH  10  13
ATOM     13  N   UNL     1      -3.877  -7.156   0.059  0.00  0.00    -0.358 N 
ATOM     14  H   UNL     1      -4.803  -7.111  -0.225  0.00  0.00    +0.142 HD
ATOM     15  H   UNL     1      -3.498  -8.002   0.345  0.00  0.00    +0.142 HD
ENDBRANCH  10  13
ENDBRANCH   3   7
BRANCH   6  16
ATOM     16  S   UNL     1       0.027   1.345   0.049  0.00  0.00    -0.077 S 
BRANCH  16  17
ATOM     17  C   UNL     1       1.818   1.610   0.042  0.00  0.00    +0.173 C 
BRANCH  17  18
ATOM     18  C   UNL     1       2.106   3.089   0.042  0.00  0.00    +0.228 C 
ATOM     19  O   UNL     1       1.192   3.886   0.046  0.00  0.00    -0.275 OA
ATOM     20  N   UNL     1       3.381   3.527   0.036  0.00  0.00    -0.283 N 
ATOM     21  H   UNL     1       4.111   2.894  -0.050  0.00  0.00    +0.155 HD
BRANCH  20  22
ATOM     22  C   UNL     1       3.651   4.892   0.155  0.00  0.00    +0.062 A 
ATOM     23  C   UNL     1       2.753   5.714   0.765  0.00  0.00    +0.025 A 
ATOM     24  C   UNL     1       2.993   7.080   0.899  0.00  0.00    +0.004 A 
ATOM     25  C   UNL     1       4.128   7.652   0.430  0.00  0.00    +0.031 A 
ATOM     26  C   UNL     1       5.112   6.858  -0.217  0.00  0.00    +0.102 A 
ATOM     27  C   UNL     1       4.869   5.426  -0.357  0.00  0.00    +0.121 A 
ATOM     28  N   UNL     1       5.870   4.806  -0.975  0.00  0.00    -0.189 NA
ATOM     29  S   UNL     1       6.933   5.911  -1.303  0.00  0.00    +0.117 S 
ATOM     30  N   UNL     1       6.280   7.221  -0.743  0.00  0.00    -0.191 NA
ENDBRANCH  20  22
ENDBRANCH  17  18
ENDBRANCH  16  17
ENDBRANCH   6  16
TORSDOF 6
