REMARK  Name = ZINC65137732
REMARK  7 active torsions:
REMARK  status: ('A' for Active; 'I' for Inactive)
REMARK    1  A    between atoms: C_1  and  C_2
REMARK    2  A    between atoms: C_3  and  C_26
REMARK    3  A    between atoms: C_6  and  C_8
REMARK    4  A    between atoms: C_11  and  S_15
REMARK    5  A    between atoms: C_12  and  C_14
REMARK    6  A    between atoms: S_15  and  N_18
REMARK    7  A    between atoms: N_18  and  C_19
REMARK                            x       y       z     vdW  Elec       q    Type
REMARK                         _______ _______ _______ _____ _____    ______ ____
ROOT
ATOM      1  C   UNL     1      -1.193  -0.939   1.821  0.00  0.00    +0.087 C 
ATOM      2  C   UNL     1      -1.220  -1.785   3.121  0.00  0.00    +0.074 C 
ATOM      3  C   UNL     1      -2.625  -2.110   3.512  0.00  0.00    +0.093 C 
ATOM      4  C   UNL     1      -3.594  -2.008   2.623  0.00  0.00    +0.005 C 
ATOM      5  S   UNL     1      -2.819  -1.444   1.118  0.00  0.00    -0.122 S 
ATOM      6  C   UNL     1      -5.056  -2.305   2.836  0.00  0.00    +0.053 C 
ENDROOT
BRANCH   1  12
ATOM      7  C   UNL     1       0.003   0.899  -0.622  0.00  0.00    +0.043 C 
ATOM      8  C   UNL     1      -0.091  -0.590  -0.406  0.00  0.00    -0.023 C 
ATOM      9  C   UNL     1      -0.238  -1.546  -1.325  0.00  0.00    +0.061 C 
ATOM     10  N   UNL     1      -0.283  -2.766  -0.745  0.00  0.00    -0.159 NA
ATOM     11  N   UNL     1      -0.182  -2.753   0.484  0.00  0.00    -0.178 NA
ATOM     12  C   UNL     1      -0.035  -1.350   0.908  0.00  0.00    +0.169 C 
ATOM     13  C   UNL     1      -0.339  -1.300  -2.808  0.00  0.00    +0.067 C 
ENDBRANCH   1  12
BRANCH   3  14
ATOM     14  S   UNL     1      -2.986  -2.629   5.157  0.00  0.00    +0.056 S 
ATOM     15  O   UNL     1      -1.985  -2.062   5.991  0.00  0.00    -0.153 OA
ATOM     16  O   UNL     1      -4.372  -2.392   5.362  0.00  0.00    -0.153 OA
BRANCH  14  17
ATOM     17  N   UNL     1      -2.773  -4.270   5.211  0.00  0.00    -0.187 NA
ATOM     18  H   UNL     1      -3.531  -4.853   5.378  0.00  0.00    +0.148 HD
BRANCH  17  19
ATOM     19  C   UNL     1      -1.440  -4.843   5.006  0.00  0.00    +0.077 C 
ATOM     20  C   UNL     1      -1.261  -5.167   3.509  0.00  0.00    +0.020 C 
ATOM     21  C   UNL     1       0.212  -5.260   3.213  0.00  0.00    +0.002 C 
ATOM     22  C   UNL     1       0.740  -6.705   3.296  0.00  0.00    +0.000 C 
ATOM     23  C   UNL     1       0.165  -7.483   4.495  0.00  0.00    +0.000 C 
ATOM     24  C   UNL     1       0.105  -6.651   5.747  0.00  0.00    +0.002 C 
ATOM     25  C   UNL     1      -1.299  -6.020   5.850  0.00  0.00    +0.020 C 
ENDBRANCH  17  19
ENDBRANCH  14  17
ENDBRANCH   3  14
TORSDOF 4
