REMARK  Name = ZINC20279696
REMARK  10 active torsions:
REMARK  status: ('A' for Active; 'I' for Inactive)
REMARK    1  A    between atoms: C_1  and  C_2
REMARK    2  A    between atoms: C_5  and  C_36
REMARK    3  A    between atoms: N_8  and  C_10
REMARK    4  A    between atoms: C_10  and  C_11
REMARK    5  A    between atoms: C_11  and  C_12
REMARK    6  A    between atoms: C_12  and  N_13
REMARK    7  A    between atoms: C_14  and  C_16
REMARK    8  A    between atoms: C_16  and  N_17
REMARK    9  A    between atoms: C_20  and  S_28
REMARK   10  A    between atoms: S_28  and  N_31
REMARK                            x       y       z     vdW  Elec       q    Type
REMARK                         _______ _______ _______ _____ _____    ______ ____
ROOT
ATOM      1  N   UNL     1       0.002  -0.004   0.002  0.00  0.00    -0.256 N 
ATOM      2  C   UNL     1       1.238  -0.667   0.022  0.00  0.00    +0.081 A 
ATOM      3  C   UNL     1       1.325  -2.011  -0.301  0.00  0.00    +0.055 A 
ATOM      4  C   UNL     1       2.554  -2.646  -0.274  0.00  0.00    +0.107 A 
ATOM      5  C   UNL     1       3.692  -1.943   0.075  0.00  0.00    +0.032 A 
ATOM      6  C   UNL     1       3.611  -0.601   0.400  0.00  0.00    +0.049 A 
ATOM      7  C   UNL     1       2.385   0.042   0.374  0.00  0.00    +0.143 A 
ATOM      8  O   UNL     1       2.287   1.361   0.688  0.00  0.00    -0.481 OA
ATOM      9  C   UNL     1       1.282   2.112   0.001  0.00  0.00    +0.325 C 
ATOM     10  C   UNL     1      -0.016   1.347   0.009  0.00  0.00    +0.258 C 
ATOM     11  O   UNL     1      -1.073   1.941   0.018  0.00  0.00    -0.271 OA
ENDROOT
BRANCH   4  12
ATOM     12  S   UNL     1       2.668  -4.355  -0.686  0.00  0.00    +0.061 S 
ATOM     13  O   UNL     1       3.844  -4.846  -0.057  0.00  0.00    -0.153 OA
ATOM     14  O   UNL     1       1.385  -4.917  -0.448  0.00  0.00    -0.153 OA
BRANCH  12  15
ATOM     15  N   UNL     1       2.931  -4.449  -2.318  0.00  0.00    -0.177 NA
ATOM     16  C   UNL     1       1.887  -4.537  -3.350  0.00  0.00    +0.109 C 
ATOM     17  C   UNL     1       2.600  -4.629  -4.716  0.00  0.00    +0.018 C 
ATOM     18  C   UNL     1       4.006  -5.165  -4.337  0.00  0.00    +0.018 C 
ATOM     19  C   UNL     1       4.250  -4.463  -2.977  0.00  0.00    +0.109 C 
ENDBRANCH  12  15
ENDBRANCH   4  12
BRANCH   1  20
ATOM     20  C   UNL     1      -1.250  -0.765  -0.026  0.00  0.00    +0.209 C 
BRANCH  20  22
ATOM     21  N   UNL     1      -2.779  -1.704  -1.729  0.00  0.00    -0.314 N 
ATOM     22  C   UNL     1      -1.652  -1.017  -1.457  0.00  0.00    +0.231 C 
ATOM     23  O   UNL     1      -0.961  -0.603  -2.363  0.00  0.00    -0.274 OA
ATOM     24  H   UNL     1      -3.406  -2.080  -0.907  0.00  0.00    +0.149 HD
BRANCH  21  25
ATOM     25  C   UNL     1      -3.170  -1.950  -3.119  0.00  0.00    +0.102 C 
BRANCH  25  26
ATOM     26  C   UNL     1      -4.477  -2.744  -3.149  0.00  0.00    +0.000 C 
BRANCH  26  27
ATOM     27  C   UNL     1      -4.885  -3.000  -4.601  0.00  0.00    -0.077 C 
BRANCH  27  33
ATOM     28  C   UNL     1      -7.104  -7.229  -3.421  0.00  0.00    +0.005 C 
ATOM     29  C   UNL     1      -7.304  -5.819  -3.982  0.00  0.00    -0.031 C 
ATOM     30  C   UNL     1      -7.920  -5.909  -5.381  0.00  0.00    +0.003 C 
ATOM     31  C   UNL     1      -8.062  -4.498  -5.959  0.00  0.00    -0.031 C 
ATOM     32  C   UNL     1      -6.688  -3.825  -5.991  0.00  0.00    -0.076 C 
ATOM     33  N   UNL     1      -6.140  -3.763  -4.629  0.00  0.00    +0.380 N 
ATOM     34  C   UNL     1      -5.952  -5.108  -4.071  0.00  0.00    -0.076 C 
ATOM     35  C   UNL     1      -8.622  -4.581  -7.380  0.00  0.00    +0.005 C 
ATOM     36  H   UNL     1      -6.871  -3.237  -3.998  0.00  0.00    -0.082 HD
ENDBRANCH  27  33
ENDBRANCH  26  27
ENDBRANCH  25  26
ENDBRANCH  21  25
ENDBRANCH  20  22
ENDBRANCH   1  20
TORSDOF 8
