REMARK  Name = ZINC10062689
REMARK  8 active torsions:
REMARK  status: ('A' for Active; 'I' for Inactive)
REMARK    1  A    between atoms: C_1  and  C_2
REMARK    2  A    between atoms: C_2  and  C_3
REMARK    3  A    between atoms: C_3  and  N_4
REMARK    4  A    between atoms: N_9  and  C_27
REMARK    5  A    between atoms: C_12  and  C_14
REMARK    6  A    between atoms: N_16  and  C_17
REMARK    7  A    between atoms: C_20  and  S_23
REMARK    8  A    between atoms: S_23  and  N_26
REMARK                            x       y       z     vdW  Elec       q    Type
REMARK                         _______ _______ _______ _____ _____    ______ ____
ROOT
ATOM      1  N   UNL     1       1.420   3.520   0.007  0.00  0.00    -0.352 N 
ATOM      2  C   UNL     1       1.422   4.151   1.196  0.00  0.00    +0.101 A 
ATOM      3  C   UNL     1       1.395   5.521   1.263  0.00  0.00    +0.085 A 
ATOM      4  C   UNL     1       1.388   6.521   2.326  0.00  0.00    +0.283 A 
ATOM      5  O   UNL     1       1.407   6.314   3.529  0.00  0.00    -0.265 OA
ATOM      6  N   UNL     1       1.356   7.723   1.711  0.00  0.00    -0.196 N 
ATOM      7  N   UNL     1       1.342   7.558   0.323  0.00  0.00    -0.162 NA
ATOM      8  C   UNL     1       1.364   6.296   0.002  0.00  0.00    +0.112 A 
ATOM      9  C   UNL     1       1.364   5.531  -1.260  0.00  0.00    +0.081 A 
ATOM     10  C   UNL     1       1.398   4.169  -1.183  0.00  0.00    +0.101 A 
ENDROOT
BRANCH   6  11
ATOM     11  C   UNL     1       1.339   8.958   2.369  0.00  0.00    +0.069 A 
ATOM     12  C   UNL     1       0.656   9.097   3.570  0.00  0.00    +0.028 A 
ATOM     13  C   UNL     1       0.645  10.316   4.220  0.00  0.00    +0.002 A 
ATOM     14  C   UNL     1       1.304  11.400   3.670  0.00  0.00    +0.000 A 
ATOM     15  C   UNL     1       1.980  11.267   2.471  0.00  0.00    +0.002 A 
ATOM     16  C   UNL     1       2.000  10.049   1.819  0.00  0.00    +0.028 A 
ENDBRANCH   6  11
BRANCH   9  17
ATOM     17  C   UNL     1       1.334   6.215  -2.562  0.00  0.00    +0.252 C 
ATOM     18  O   UNL     1       1.309   7.431  -2.609  0.00  0.00    -0.270 OA
ATOM     19  N   UNL     1       1.334   5.497  -3.702  0.00  0.00    -0.281 N 
ATOM     20  H   UNL     1       1.422   4.531  -3.666  0.00  0.00    +0.155 HD
BRANCH  19  21
ATOM     21  C   UNL     1       1.208   6.142  -4.936  0.00  0.00    +0.034 A 
ATOM     22  C   UNL     1       0.514   5.532  -5.973  0.00  0.00    +0.025 A 
ATOM     23  C   UNL     1       0.387   6.175  -7.189  0.00  0.00    +0.030 A 
ATOM     24  C   UNL     1       0.959   7.420  -7.377  0.00  0.00    +0.105 A 
ATOM     25  C   UNL     1       1.655   8.028  -6.349  0.00  0.00    +0.030 A 
ATOM     26  C   UNL     1       1.781   7.393  -5.129  0.00  0.00    +0.025 A 
BRANCH  24  27
ATOM     27  S   UNL     1       0.799   8.234  -8.932  0.00  0.00    +0.056 S 
ATOM     28  O   UNL     1      -0.361   7.698  -9.554  0.00  0.00    -0.153 OA
ATOM     29  O   UNL     1       0.956   9.624  -8.681  0.00  0.00    -0.153 OA
BRANCH  27  30
ATOM     30  N   UNL     1       2.090   7.772  -9.861  0.00  0.00    -0.204 NA
ATOM     31  H   UNL     1       2.002   7.727 -10.826  0.00  0.00    +0.144 HD
ATOM     32  H   UNL     1       2.934   7.547  -9.440  0.00  0.00    +0.144 HD
ENDBRANCH  27  30
ENDBRANCH  24  27
ENDBRANCH  19  21
ENDBRANCH   9  17
BRANCH   1  33
ATOM     33  C   UNL     1       1.450   2.055  -0.001  0.00  0.00    +0.121 C 
BRANCH  33  35
ATOM     34  C   UNL     1       0.050  -0.014   0.005  0.00  0.00    +0.005 C 
ATOM     35  C   UNL     1       0.019   1.516   0.013  0.00  0.00    +0.018 C 
ENDBRANCH  33  35
ENDBRANCH   1  33
TORSDOF 7
