REMARK  Name = ZINC12749934
REMARK  5 active torsions:
REMARK  status: ('A' for Active; 'I' for Inactive)
REMARK    1  A    between atoms: C_7  and  C_11
REMARK    2  A    between atoms: C_11  and  C_12
REMARK    3  A    between atoms: N_14  and  C_15
REMARK    4  A    between atoms: C_18  and  S_21
REMARK    5  A    between atoms: S_21  and  N_24
REMARK                            x       y       z     vdW  Elec       q    Type
REMARK                         _______ _______ _______ _____ _____    ______ ____
ROOT
ATOM      1  C   UNL     1      -1.292   1.520   0.104  0.00  0.00    +0.034 A 
ATOM      2  C   UNL     1      -1.460   2.897   0.055  0.00  0.00    +0.025 A 
ATOM      3  C   UNL     1      -2.727   3.441   0.145  0.00  0.00    +0.030 A 
ATOM      4  C   UNL     1      -3.826   2.615   0.295  0.00  0.00    +0.109 A 
ATOM      5  C   UNL     1      -3.662   1.243   0.349  0.00  0.00    +0.030 A 
ATOM      6  C   UNL     1      -2.398   0.693   0.255  0.00  0.00    +0.025 A 
ENDROOT
BRANCH   1   9
ATOM      7  C   UNL     1       0.924   1.561  -0.759  0.00  0.00    +0.222 C 
ATOM      8  O   UNL     1       0.631   2.523  -1.436  0.00  0.00    -0.275 OA
ATOM      9  N   UNL     1      -0.011   0.966   0.007  0.00  0.00    -0.285 N 
ATOM     10  H   UNL     1       0.203   0.151   0.488  0.00  0.00    +0.155 HD
BRANCH   7  11
ATOM     11  C   UNL     1       2.335   1.031  -0.773  0.00  0.00    +0.133 C 
BRANCH  11  18
ATOM     12  C   UNL     1       4.691   5.047  -0.227  0.00  0.00    +0.001 A 
ATOM     13  C   UNL     1       5.338   5.456  -1.385  0.00  0.00    +0.002 A 
ATOM     14  C   UNL     1       5.254   4.708  -2.539  0.00  0.00    +0.026 A 
ATOM     15  C   UNL     1       4.512   3.531  -2.547  0.00  0.00    +0.047 A 
ATOM     16  C   UNL     1       3.857   3.121  -1.371  0.00  0.00    +0.003 A 
ATOM     17  C   UNL     1       3.957   3.895  -0.213  0.00  0.00    +0.010 A 
ATOM     18  C   UNL     1       3.176   1.868  -1.703  0.00  0.00    -0.014 A 
ATOM     19  C   UNL     1       3.448   1.602  -2.990  0.00  0.00    +0.087 A 
ATOM     20  N   UNL     1       4.241   2.588  -3.512  0.00  0.00    -0.360 N 
ATOM     21  H   UNL     1       4.566   2.616  -4.426  0.00  0.00    +0.165 HD
ENDBRANCH  11  18
ENDBRANCH   7  11
ENDBRANCH   1   9
BRANCH   4  22
ATOM     22  S   UNL     1      -5.439   3.313   0.416  0.00  0.00    +0.074 S 
ATOM     23  O   UNL     1      -5.379   4.587  -0.210  0.00  0.00    -0.150 OA
ATOM     24  O   UNL     1      -6.350   2.304   0.002  0.00  0.00    -0.150 OA
BRANCH  22  25
ATOM     25  N   UNL     1      -5.735   3.588   2.022  0.00  0.00    -0.194 N 
ATOM     26  C   UNL     1      -4.976   4.516   2.717  0.00  0.00    +0.177 A 
ATOM     27  N   UNL     1      -3.982   5.268   2.281  0.00  0.00    -0.232 NA
ATOM     28  C   UNL     1      -3.362   6.112   3.084  0.00  0.00    +0.120 A 
ATOM     29  C   UNL     1      -3.762   6.186   4.376  0.00  0.00    +0.068 A 
ATOM     30  S   UNL     1      -5.083   4.984   4.386  0.00  0.00    -0.059 S 
ATOM     31  H   UNL     1      -6.439   3.099   2.476  0.00  0.00    +0.176 HD
ENDBRANCH  22  25
ENDBRANCH   4  22
TORSDOF 5
