REMARK  Name = ZINC66929453
REMARK  7 active torsions:
REMARK  status: ('A' for Active; 'I' for Inactive)
REMARK    1  A    between atoms: C_1  and  O_2
REMARK    2  A    between atoms: O_2  and  C_3
REMARK    3  A    between atoms: N_11  and  C_12
REMARK    4  A    between atoms: C_12  and  C_13
REMARK    5  A    between atoms: N_15  and  C_16
REMARK    6  A    between atoms: C_16  and  C_17
REMARK    7  A    between atoms: C_17  and  O_27
REMARK                            x       y       z     vdW  Elec       q    Type
REMARK                         _______ _______ _______ _____ _____    ______ ____
ROOT
ATOM      1  C   UNL     1       4.467  -1.624  -5.027  0.00  0.00    +0.233 C 
ATOM      2  O   UNL     1       4.869  -1.674  -3.884  0.00  0.00    -0.274 OA
ATOM      3  N   UNL     1       5.340  -1.472  -6.043  0.00  0.00    -0.311 N 
ATOM      4  H   UNL     1       5.019  -1.432  -6.957  0.00  0.00    +0.149 HD
ENDROOT
BRANCH   1   5
ATOM      5  C   UNL     1       2.991  -1.731  -5.313  0.00  0.00    +0.217 C 
BRANCH   5  14
ATOM      6  C   UNL     1       0.796   0.761  -1.234  0.00  0.00    +0.121 A 
ATOM      7  C   UNL     1       1.454   1.326  -2.324  0.00  0.00    +0.047 A 
ATOM      8  C   UNL     1       1.978   0.530  -3.317  0.00  0.00    +0.030 A 
ATOM      9  C   UNL     1       1.853  -0.853  -3.238  0.00  0.00    +0.050 A 
ATOM     10  C   UNL     1       1.190  -1.427  -2.139  0.00  0.00    +0.003 A 
ATOM     11  C   UNL     1       0.667  -0.610  -1.135  0.00  0.00    +0.055 A 
ATOM     12  C   UNL     1       1.229  -2.876  -2.353  0.00  0.00    +0.028 A 
ATOM     13  C   UNL     1       1.880  -3.085  -3.509  0.00  0.00    +0.087 A 
ATOM     14  N   UNL     1       2.260  -1.889  -4.053  0.00  0.00    -0.338 N 
BRANCH   6  16
ATOM     15  C   UNL     1       0.454   2.971  -0.426  0.00  0.00    +0.277 C 
ATOM     16  O   UNL     1       0.285   1.562  -0.261  0.00  0.00    -0.495 OA
ENDBRANCH   6  16
ENDBRANCH   5  14
ENDBRANCH   1   5
BRANCH   3  17
ATOM     17  C   UNL     1       6.775  -1.368  -5.766  0.00  0.00    +0.143 C 
BRANCH  17  18
ATOM     18  C   UNL     1       7.525  -1.069  -7.065  0.00  0.00    +0.107 C 
ATOM     19  C   UNL     1       6.974   0.216  -7.680  0.00  0.00    +0.041 C 
ATOM     20  C   UNL     1       7.875   0.616  -8.854  0.00  0.00    +0.008 C 
ATOM     21  C   UNL     1       9.218   1.080  -8.294  0.00  0.00    +0.035 C 
ATOM     22  C   UNL     1       9.773   0.058  -7.336  0.00  0.00    -0.041 A 
ATOM     23  C   UNL     1       8.995  -0.926  -6.768  0.00  0.00    -0.011 A 
ATOM     24  C   UNL     1       9.568  -1.833  -5.887  0.00  0.00    +0.007 A 
ATOM     25  C   UNL     1      10.911  -1.758  -5.578  0.00  0.00    +0.000 A 
ATOM     26  C   UNL     1      11.693  -0.773  -6.150  0.00  0.00    +0.000 A 
ATOM     27  C   UNL     1      11.125   0.131  -7.025  0.00  0.00    +0.004 A 
BRANCH  18  28
ATOM     28  O   UNL     1       7.332  -2.149  -7.980  0.00  0.00    -0.382 OA
ATOM     29  H   UNL     1       7.651  -3.002  -7.655  0.00  0.00    +0.211 HD
ENDBRANCH  18  28
ENDBRANCH  17  18
ENDBRANCH   3  17
TORSDOF 6
