REMARK  Name = ZINC09910430
REMARK  8 active torsions:
REMARK  status: ('A' for Active; 'I' for Inactive)
REMARK    1  A    between atoms: C_1  and  C_2
REMARK    2  A    between atoms: C_5  and  C_9
REMARK    3  A    between atoms: C_6  and  C_8
REMARK    4  A    between atoms: C_15  and  C_17
REMARK    5  A    between atoms: C_17  and  C_18
REMARK    6  A    between atoms: C_18  and  C_19
REMARK    7  A    between atoms: C_19  and  S_20
REMARK    8  A    between atoms: S_20  and  C_21
REMARK                            x       y       z     vdW  Elec       q    Type
REMARK                         _______ _______ _______ _____ _____    ______ ____
ROOT
ATOM      1  C   UNL     1       7.227  11.468  -0.282  0.00  0.00    +0.080 A 
ATOM      2  C   UNL     1       5.954  11.918  -0.495  0.00  0.00    +0.076 A 
ATOM      3  S   UNL     1       5.065  10.370  -0.582  0.00  0.00    -0.060 S 
ATOM      4  C   UNL     1       6.466   9.293  -0.317  0.00  0.00    +0.165 A 
ATOM      5  N   UNL     1       7.450  10.165  -0.198  0.00  0.00    -0.225 NA
ATOM      6  N   UNL     1       6.510   7.905  -0.257  0.00  0.00    -0.265 N 
ATOM      7  C   UNL     1       5.379   7.188  -0.404  0.00  0.00    +0.219 C 
ATOM      8  O   UNL     1       4.322   7.754  -0.589  0.00  0.00    -0.275 OA
ATOM      9  H   UNL     1       7.356   7.452  -0.110  0.00  0.00    +0.157 HD
ENDROOT
BRANCH   1  14
ATOM     10  C   UNL     1      11.581  15.201   0.245  0.00  0.00    +0.044 C 
ATOM     11  C   UNL     1      10.441  14.224   0.107  0.00  0.00    -0.050 A 
ATOM     12  C   UNL     1       9.540  14.359  -0.934  0.00  0.00    +0.004 A 
ATOM     13  C   UNL     1       8.498  13.464  -1.069  0.00  0.00    +0.010 A 
ATOM     14  C   UNL     1       8.348  12.430  -0.146  0.00  0.00    +0.004 A 
ATOM     15  C   UNL     1       9.259  12.299   0.900  0.00  0.00    -0.041 A 
ATOM     16  C   UNL     1      10.300  13.196   1.022  0.00  0.00    +0.007 A 
ATOM     17  C   UNL     1       9.107  11.179   1.898  0.00  0.00    +0.044 C 
ENDBRANCH   1  14
BRANCH   7  18
ATOM     18  C   UNL     1       5.426   5.683  -0.340  0.00  0.00    +0.097 C 
BRANCH  18  19
ATOM     19  C   UNL     1       4.017   5.120  -0.535  0.00  0.00    +0.020 C 
BRANCH  19  20
ATOM     20  C   UNL     1       4.065   3.592  -0.470  0.00  0.00    +0.075 C 
BRANCH  20  21
ATOM     21  S   UNL     1       2.395   2.924  -0.702  0.00  0.00    -0.125 S 
BRANCH  21  22
ATOM     22  C   UNL     1       2.616   1.179  -0.601  0.00  0.00    +0.008 A 
ATOM     23  C   UNL     1       1.525   0.329  -0.737  0.00  0.00    +0.016 A 
ATOM     24  C   UNL     1       1.701  -1.038  -0.658  0.00  0.00    +0.021 A 
ATOM     25  C   UNL     1       2.964  -1.563  -0.444  0.00  0.00    +0.041 A 
ATOM     26  C   UNL     1       4.053  -0.720  -0.308  0.00  0.00    +0.021 A 
ATOM     27  C   UNL     1       3.883   0.648  -0.386  0.00  0.00    +0.016 A 
ATOM     28 CL   UNL     1       3.182  -3.282  -0.344  0.00  0.00    -0.084 Cl
ENDBRANCH  21  22
ENDBRANCH  20  21
ENDBRANCH  19  20
ENDBRANCH  18  19
ENDBRANCH   7  18
TORSDOF 6
