REMARK  Name = ZINC23587390
REMARK  7 active torsions:
REMARK  status: ('A' for Active; 'I' for Inactive)
REMARK    1  A    between atoms: C_1  and  C_2
REMARK    2  A    between atoms: C_10  and  C_11
REMARK    3  A    between atoms: C_11  and  C_13
REMARK    4  A    between atoms: C_13  and  O_14
REMARK    5  A    between atoms: O_14  and  C_15
REMARK    6  A    between atoms: C_15  and  C_17
REMARK    7  A    between atoms: N_26  and  C_28
REMARK                            x       y       z     vdW  Elec       q    Type
REMARK                         _______ _______ _______ _____ _____    ______ ____
ROOT
ATOM      1  O   UNL     1       2.390  -4.296  -0.045  0.00  0.00    -0.452 OA
ENDROOT
BRANCH   1   2
ATOM      2  C   UNL     1       2.441  -2.949  -0.038  0.00  0.00    +0.360 C 
ATOM      3  O   UNL     1       3.515  -2.381  -0.045  0.00  0.00    -0.243 OA
BRANCH   2   4
ATOM      4  C   UNL     1       1.192  -2.164  -0.021  0.00  0.00    +0.176 A 
ATOM      5  C   UNL     1       1.237  -0.693  -0.013  0.00  0.00    +0.021 A 
ATOM      6  C   UNL     1       2.428   0.024  -0.021  0.00  0.00    +0.011 A 
ATOM      7  C   UNL     1       2.389   1.403  -0.013  0.00  0.00    +0.001 A 
ATOM      8  C   UNL     1       1.176   2.079   0.002  0.00  0.00    +0.001 A 
ATOM      9  C   UNL     1      -0.017   1.387   0.010  0.00  0.00    +0.014 A 
ATOM     10  C   UNL     1       0.002  -0.004   0.002  0.00  0.00    +0.050 A 
ATOM     11  C   UNL     1      -1.221  -0.819   0.009  0.00  0.00    +0.275 A 
ATOM     12  O   UNL     1      -2.319  -0.294   0.022  0.00  0.00    -0.266 OA
ATOM     13  N   UNL     1      -1.098  -2.162   0.000  0.00  0.00    -0.231 N 
ATOM     14  N   UNL     1       0.028  -2.769  -0.014  0.00  0.00    -0.161 NA
ATOM     15  C   UNL     1      -2.320  -2.970   0.007  0.00  0.00    +0.176 C 
ENDBRANCH   2   4
ENDBRANCH   1   2
BRANCH   1  16
ATOM     16  C   UNL     1       3.658  -5.003  -0.062  0.00  0.00    +0.315 C 
BRANCH  16  17
ATOM     17  C   UNL     1       3.405  -6.488  -0.068  0.00  0.00    +0.235 C 
ATOM     18  O   UNL     1       2.267  -6.910  -0.059  0.00  0.00    -0.285 OA
BRANCH  17  28
ATOM     19  C   UNL     1       3.117  -9.554  -0.070  0.00  0.00    +0.048 C 
ATOM     20  C   UNL     1       4.392  -8.751  -0.085  0.00  0.00    +0.006 A 
ATOM     21  C   UNL     1       5.713  -9.264  -0.106  0.00  0.00    +0.024 A 
ATOM     22  C   UNL     1       6.249 -10.557  -0.117  0.00  0.00    +0.012 A 
ATOM     23  C   UNL     1       7.604 -10.729  -0.131  0.00  0.00    +0.001 A 
ATOM     24  C   UNL     1       8.454  -9.631  -0.133  0.00  0.00    +0.004 A 
ATOM     25  C   UNL     1       7.947  -8.349  -0.121  0.00  0.00    +0.047 A 
ATOM     26  C   UNL     1       6.572  -8.149  -0.107  0.00  0.00    +0.136 A 
ATOM     27  O   UNL     1       5.801  -7.043  -0.094  0.00  0.00    -0.452 OA
ATOM     28  C   UNL     1       4.496  -7.393  -0.084  0.00  0.00    +0.178 A 
ENDBRANCH  17  28
ENDBRANCH  16  17
ENDBRANCH   1  16
TORSDOF 5
