REMARK  Name = ZINC03242767
REMARK  8 active torsions:
REMARK  status: ('A' for Active; 'I' for Inactive)
REMARK    1  A    between atoms: C_2  and  C_3
REMARK    2  A    between atoms: C_2  and  N_10
REMARK    3  A    between atoms: N_10  and  N_11
REMARK    4  A    between atoms: C_12  and  C_14
REMARK    5  A    between atoms: C_14  and  C_15
REMARK    6  A    between atoms: C_15  and  C_16
REMARK    7  A    between atoms: C_19  and  S_22
REMARK    8  A    between atoms: S_22  and  N_25
REMARK                            x       y       z     vdW  Elec       q    Type
REMARK                         _______ _______ _______ _____ _____    ______ ____
ROOT
ATOM      1  C   UNL     1      -0.018   1.503   0.010  0.00  0.00    +0.102 C 
ENDROOT
BRANCH   1   3
ATOM      2  N   UNL     1       0.585  -0.664  -1.018  0.00  0.00    -0.236 N 
ATOM      3  C   UNL     1       0.002  -0.004   0.002  0.00  0.00    +0.229 C 
ATOM      4  O   UNL     1      -0.506  -0.622   0.913  0.00  0.00    -0.274 OA
ATOM      5  H   UNL     1       0.992  -0.170  -1.747  0.00  0.00    +0.173 HD
BRANCH   2   6
ATOM      6  N   UNL     1       0.604  -2.065  -1.026  0.00  0.00    -0.264 N 
ATOM      7  H   UNL     1       0.198  -2.560  -0.297  0.00  0.00    +0.170 HD
BRANCH   6   9
ATOM      8  C   UNL     1       1.766  -2.069  -3.083  0.00  0.00    +0.035 C 
ATOM      9  C   UNL     1       1.208  -2.749  -2.082  0.00  0.00    +0.044 C 
BRANCH   9  10
ATOM     10  C   UNL     1       1.228  -4.230  -2.090  0.00  0.00    -0.003 A 
ATOM     11  C   UNL     1       0.649  -4.944  -1.040  0.00  0.00    +0.011 A 
ATOM     12  C   UNL     1       0.666  -6.323  -1.056  0.00  0.00    +0.016 A 
ATOM     13  C   UNL     1       1.266  -6.999  -2.105  0.00  0.00    +0.018 A 
ATOM     14  C   UNL     1       1.847  -6.295  -3.146  0.00  0.00    +0.016 A 
ATOM     15  C   UNL     1       1.830  -4.916  -3.144  0.00  0.00    +0.011 A 
ATOM     16 BR   UNL     1       1.292  -8.890  -2.115  0.00  0.00    -0.050 Br
ENDBRANCH   9  10
ENDBRANCH   6   9
ENDBRANCH   2   6
ENDBRANCH   1   3
BRANCH   1  17
ATOM     17  C   UNL     1      -0.735   1.996   1.269  0.00  0.00    +0.044 C 
BRANCH  17  18
ATOM     18  C   UNL     1      -0.755   3.503   1.277  0.00  0.00    -0.047 A 
ATOM     19  C   UNL     1       0.275   4.205   1.875  0.00  0.00    +0.005 A 
ATOM     20  C   UNL     1       0.259   5.587   1.879  0.00  0.00    +0.029 A 
ATOM     21  C   UNL     1      -0.793   6.267   1.293  0.00  0.00    +0.105 A 
ATOM     22  C   UNL     1      -1.825   5.565   0.700  0.00  0.00    +0.029 A 
ATOM     23  C   UNL     1      -1.807   4.183   0.693  0.00  0.00    +0.005 A 
BRANCH  21  24
ATOM     24  S   UNL     1      -0.816   8.029   1.302  0.00  0.00    +0.061 S 
ATOM     25  O   UNL     1       0.534   8.453   1.437  0.00  0.00    -0.153 OA
ATOM     26  O   UNL     1      -1.634   8.430   0.211  0.00  0.00    -0.153 OA
BRANCH  24  27
ATOM     27  N   UNL     1      -1.601   8.502   2.681  0.00  0.00    -0.172 NA
ATOM     28  C   UNL     1      -3.058   8.712   2.689  0.00  0.00    +0.137 C 
ATOM     29  C   UNL     1      -3.648   7.929   3.872  0.00  0.00    +0.177 C 
ATOM     30  O   UNL     1      -2.949   8.286   5.067  0.00  0.00    -0.377 OA
ATOM     31  C   UNL     1      -1.560   7.950   5.054  0.00  0.00    +0.177 C 
ATOM     32  C   UNL     1      -0.863   8.729   3.933  0.00  0.00    +0.137 C 
ENDBRANCH  24  27
ENDBRANCH  21  24
ENDBRANCH  17  18
ENDBRANCH   1  17
TORSDOF 8
