REMARK  Name = ZINC64890049
REMARK  4 active torsions:
REMARK  status: ('A' for Active; 'I' for Inactive)
REMARK    1  A    between atoms: C_1  and  C_2
REMARK    2  A    between atoms: C_9  and  S_14
REMARK    3  A    between atoms: S_14  and  N_17
REMARK    4  A    between atoms: C_23  and  C_25
REMARK                            x       y       z     vdW  Elec       q    Type
REMARK                         _______ _______ _______ _____ _____    ______ ____
ROOT
ATOM      1  S   UNL     1       7.864   0.367   1.509  0.00  0.00    +0.061 S 
ATOM      2  O   UNL     1       8.214   0.208   2.877  0.00  0.00    -0.153 OA
ATOM      3  O   UNL     1       8.633  -0.196   0.455  0.00  0.00    -0.153 OA
ENDROOT
BRANCH   1  11
ATOM      4  C   UNL     1       1.348  -0.029  -0.441  0.00  0.00    +0.062 C 
ATOM      5  C   UNL     1       1.758  -1.500  -0.345  0.00  0.00    +0.256 C 
ATOM      6  C   UNL     1       2.713  -1.829  -1.464  0.00  0.00    +0.258 C 
ATOM      7  O   UNL     1       2.292  -2.249  -2.521  0.00  0.00    -0.271 OA
ATOM      8  N   UNL     1       4.041  -1.653  -1.286  0.00  0.00    -0.279 N 
ATOM      9  C   UNL     1       4.504  -1.200  -0.042  0.00  0.00    +0.078 A 
ATOM     10  C   UNL     1       5.790  -0.704   0.096  0.00  0.00    +0.055 A 
ATOM     11  C   UNL     1       6.229  -0.263   1.331  0.00  0.00    +0.107 A 
ATOM     12  C   UNL     1       5.387  -0.317   2.427  0.00  0.00    +0.032 A 
ATOM     13  C   UNL     1       4.101  -0.809   2.296  0.00  0.00    +0.049 A 
ATOM     14  C   UNL     1       3.655  -1.251   1.062  0.00  0.00    +0.143 A 
ATOM     15  O   UNL     1       2.394  -1.736   0.913  0.00  0.00    -0.478 OA
ATOM     16  H   UNL     1       4.663  -1.837  -2.006  0.00  0.00    +0.155 HD
ENDBRANCH   1  11
BRANCH   1  17
ATOM     17  N   UNL     1       7.794   1.997   1.226  0.00  0.00    -0.174 NA
ATOM     18  C   UNL     1       7.969   2.528  -0.133  0.00  0.00    +0.128 C 
ATOM     19  C   UNL     1       6.752   3.393  -0.482  0.00  0.00    +0.125 C 
ATOM     20  N   UNL     1       6.513   4.335   0.621  0.00  0.00    -0.295 N 
ATOM     21  C   UNL     1       6.337   3.804   1.980  0.00  0.00    +0.125 C 
ATOM     22  C   UNL     1       7.549   2.938   2.328  0.00  0.00    +0.128 C 
ATOM     23  C   UNL     1       6.455   5.661   0.390  0.00  0.00    +0.247 C 
ATOM     24  O   UNL     1       6.189   6.425   1.297  0.00  0.00    -0.270 OA
BRANCH  23  25
ATOM     25  C   UNL     1       6.717   6.187  -0.967  0.00  0.00    +0.038 A 
ATOM     26  C   UNL     1       6.037   5.660  -2.066  0.00  0.00    +0.013 A 
ATOM     27  C   UNL     1       6.286   6.155  -3.330  0.00  0.00    +0.002 A 
ATOM     28  C   UNL     1       7.207   7.172  -3.509  0.00  0.00    +0.015 A 
ATOM     29  C   UNL     1       7.885   7.699  -2.423  0.00  0.00    +0.019 A 
ATOM     30  C   UNL     1       7.640   7.217  -1.153  0.00  0.00    +0.028 A 
ATOM     31 BR   UNL     1       9.142   9.088  -2.680  0.00  0.00    -0.050 Br
ENDBRANCH  23  25
ENDBRANCH   1  17
TORSDOF 3
