REMARK  Name = ZINC14240460
REMARK  5 active torsions:
REMARK  status: ('A' for Active; 'I' for Inactive)
REMARK    1  A    between atoms: C_1  and  C_2
REMARK    2  A    between atoms: C_3  and  C_24
REMARK    3  A    between atoms: C_7  and  S_11
REMARK    4  A    between atoms: S_11  and  C_12
REMARK    5  A    between atoms: C_15  and  C_17
REMARK                            x       y       z     vdW  Elec       q    Type
REMARK                         _______ _______ _______ _____ _____    ______ ____
ROOT
ATOM      1  S   UNL     1      -2.743  -0.353   0.096  0.00  0.00    -0.009 S 
ENDROOT
BRANCH   1   8
ATOM      2  C   UNL     1      -1.328   2.192   0.020  0.00  0.00    +0.045 C 
ATOM      3  C   UNL     1      -0.018   1.448   0.010  0.00  0.00    -0.029 A 
ATOM      4  C   UNL     1       1.144   2.119  -0.025  0.00  0.00    -0.008 A 
ATOM      5  S   UNL     1       2.371   0.826  -0.031  0.00  0.00    -0.074 S 
ATOM      6  C   UNL     1       1.292  -0.580   0.013  0.00  0.00    +0.113 A 
ATOM      7  C   UNL     1       0.002  -0.004   0.032  0.00  0.00    +0.043 A 
ATOM      8  C   UNL     1      -1.078  -0.928   0.069  0.00  0.00    +0.117 A 
ATOM      9  N   UNL     1      -0.816  -2.226   0.084  0.00  0.00    -0.228 NA
ATOM     10  C   UNL     1       0.418  -2.695   0.065  0.00  0.00    +0.223 A 
ATOM     11  N   UNL     1       1.461  -1.888   0.030  0.00  0.00    -0.228 NA
ATOM     12  C   UNL     1       1.359   3.610  -0.053  0.00  0.00    +0.052 C 
ENDBRANCH   1   8
BRANCH   1  13
ATOM     13  C   UNL     1      -3.598  -1.894   0.138  0.00  0.00    +0.284 A 
ATOM     14  N   UNL     1      -3.050  -3.086   0.146  0.00  0.00    -0.100 NA
ATOM     15  N   UNL     1      -3.973  -3.982   0.179  0.00  0.00    -0.106 NA
ATOM     16  C   UNL     1      -5.146  -3.397   0.194  0.00  0.00    +0.250 A 
ATOM     17  O   UNL     1      -4.933  -2.063   0.174  0.00  0.00    -0.411 OA
BRANCH  16  18
ATOM     18  C   UNL     1      -6.459  -4.073   0.233  0.00  0.00    +0.052 A 
ATOM     19  C   UNL     1      -7.635  -3.320   0.250  0.00  0.00    +0.014 A 
ATOM     20  C   UNL     1      -8.858  -3.958   0.281  0.00  0.00    +0.001 A 
ATOM     21  C   UNL     1      -8.922  -5.340   0.305  0.00  0.00    +0.001 A 
ATOM     22  C   UNL     1      -7.761  -6.092   0.293  0.00  0.00    +0.016 A 
ATOM     23  C   UNL     1      -6.530  -5.468   0.257  0.00  0.00    +0.030 A 
ATOM     24 BR   UNL     1      -4.945  -6.498   0.241  0.00  0.00    -0.050 Br
ENDBRANCH  16  18
ENDBRANCH   1  13
TORSDOF 3
