REMARK  Name = ZINC66132066
REMARK  6 active torsions:
REMARK  status: ('A' for Active; 'I' for Inactive)
REMARK    1  A    between atoms: C_1  and  C_2
REMARK    2  A    between atoms: C_4  and  C_28
REMARK    3  A    between atoms: C_5  and  C_9
REMARK    4  A    between atoms: C_6  and  C_8
REMARK    5  A    between atoms: N_20  and  C_21
REMARK    6  A    between atoms: C_21  and  C_22
REMARK                            x       y       z     vdW  Elec       q    Type
REMARK                         _______ _______ _______ _____ _____    ______ ____
ROOT
ATOM      1  C   UNL     1       0.903  -4.114  -0.410  0.00  0.00    +0.193 C 
ATOM      2  N   UNL     1       1.973  -4.133  -1.415  0.00  0.00    -0.321 N 
ATOM      3  C   UNL     1       3.241  -3.703  -1.042  0.00  0.00    +0.041 A 
ATOM      4  C   UNL     1       4.113  -3.119  -1.945  0.00  0.00    +0.024 A 
ATOM      5  C   UNL     1       5.361  -2.706  -1.522  0.00  0.00    +0.002 A 
ATOM      6  C   UNL     1       5.747  -2.870  -0.200  0.00  0.00    +0.001 A 
ATOM      7  C   UNL     1       4.891  -3.451   0.713  0.00  0.00    +0.015 A 
ATOM      8  C   UNL     1       3.631  -3.874   0.299  0.00  0.00    +0.058 A 
ATOM      9  C   UNL     1       2.680  -4.509   1.230  0.00  0.00    +0.250 C 
ATOM     10  O   UNL     1       3.055  -4.900   2.319  0.00  0.00    -0.270 OA
ATOM     11  N   UNL     1       1.394  -4.649   0.860  0.00  0.00    -0.272 N 
ATOM     12  H   UNL     1       1.799  -4.439  -2.319  0.00  0.00    +0.148 HD
ENDROOT
BRANCH   1  17
ATOM     13  C   UNL     1      -0.897   1.321   0.370  0.00  0.00    +0.044 C 
ATOM     14  C   UNL     1      -0.427  -0.096   0.167  0.00  0.00    -0.050 A 
ATOM     15  C   UNL     1      -0.735  -0.765  -1.003  0.00  0.00    +0.007 A 
ATOM     16  C   UNL     1      -0.305  -2.065  -1.190  0.00  0.00    -0.043 A 
ATOM     17  C   UNL     1       0.434  -2.696  -0.207  0.00  0.00    -0.003 A 
ATOM     18  C   UNL     1       0.743  -2.027   0.963  0.00  0.00    -0.043 A 
ATOM     19  C   UNL     1       0.316  -0.726   1.148  0.00  0.00    +0.007 A 
ATOM     20  C   UNL     1       1.548  -2.716   2.035  0.00  0.00    +0.044 C 
ATOM     21  C   UNL     1      -0.641  -2.795  -2.465  0.00  0.00    +0.044 C 
ENDBRANCH   1  17
BRANCH  11  22
ATOM     22  C   UNL     1       0.467  -5.351   1.751  0.00  0.00    +0.141 C 
BRANCH  22  23
ATOM     23  C   UNL     1       0.364  -6.817   1.326  0.00  0.00    +0.136 C 
ATOM     24  C   UNL     1      -0.701  -7.536   2.183  0.00  0.00    +0.035 C 
ATOM     25  C   UNL     1      -0.047  -8.925   2.423  0.00  0.00    +0.031 C 
ATOM     26  C   UNL     1       1.450  -8.534   2.506  0.00  0.00    +0.160 C 
ATOM     27  O   UNL     1       1.616  -7.476   1.546  0.00  0.00    -0.375 OA
ENDBRANCH  22  23
ENDBRANCH  11  22
TORSDOF 3
