REMARK  Name = ZINC38684042
REMARK  15 active torsions:
REMARK  status: ('A' for Active; 'I' for Inactive)
REMARK    1  A    between atoms: C_1  and  C_2
REMARK    2  A    between atoms: C_2  and  C_3
REMARK    3  A    between atoms: C_3  and  C_4
REMARK    4  A    between atoms: C_4  and  O_5
REMARK    5  A    between atoms: O_5  and  C_6
REMARK    6  A    between atoms: C_9  and  C_15
REMARK    7  A    between atoms: C_11  and  O_12
REMARK    8  A    between atoms: O_12  and  C_13
REMARK    9  A    between atoms: C_13  and  C_14
REMARK   10  A    between atoms: C_20  and  O_29
REMARK   11  A    between atoms: C_24  and  N_28
REMARK   12  A    between atoms: C_25  and  C_26
REMARK   13  A    between atoms: O_29  and  C_30
REMARK   14  A    between atoms: C_30  and  C_32
REMARK   15  A    between atoms: C_33  and  C_34
REMARK                            x       y       z     vdW  Elec       q    Type
REMARK                         _______ _______ _______ _____ _____    ______ ____
ROOT
ATOM      1  C   UNL     1       1.950  -8.056   3.000  0.00  0.00    +0.098 C 
ATOM      2  C   UNL     1       2.692  -8.636   1.826  0.00  0.00    +0.008 A 
ATOM      3  C   UNL     1       4.054  -8.420   1.707  0.00  0.00    +0.012 A 
ATOM      4  C   UNL     1       4.751  -8.945   0.637  0.00  0.00    +0.047 A 
ATOM      5  C   UNL     1       4.085  -9.692  -0.325  0.00  0.00    +0.135 A 
ATOM      6  C   UNL     1       2.722  -9.910  -0.209  0.00  0.00    +0.093 A 
ATOM      7  C   UNL     1       2.022  -9.381   0.868  0.00  0.00    +0.138 A 
ATOM      8  O   UNL     1       0.688  -9.603   0.967  0.00  0.00    -0.441 OA
ATOM      9  C   UNL     1       0.070  -9.452   2.150  0.00  0.00    +0.199 C 
ATOM     10  C   UNL     1       0.616  -8.730   3.153  0.00  0.00    +0.098 C 
ENDROOT
BRANCH   1  14
ATOM     11  C   UNL     1       1.353  -3.869   2.367  0.00  0.00    +0.162 A 
ATOM     12  C   UNL     1       0.826  -4.789   1.475  0.00  0.00    +0.050 A 
ATOM     13  C   UNL     1       1.021  -6.142   1.683  0.00  0.00    +0.008 A 
ATOM     14  C   UNL     1       1.741  -6.580   2.779  0.00  0.00    -0.031 A 
ATOM     15  C   UNL     1       2.269  -5.667   3.672  0.00  0.00    +0.054 A 
ATOM     16  C   UNL     1       2.083  -4.309   3.467  0.00  0.00    +0.162 A 
BRANCH  11  17
ATOM     17  O   UNL     1       1.163  -2.537   2.164  0.00  0.00    -0.488 OA
BRANCH  17  18
ATOM     18  C   UNL     1       0.404  -2.158   1.014  0.00  0.00    +0.229 C 
BRANCH  18  19
ATOM     19  C   UNL     1       0.296  -0.633   0.953  0.00  0.00    +0.041 C 
BRANCH  19  21
ATOM     20  C   UNL     1      -0.623   1.297  -0.338  0.00  0.00    +0.004 C 
ATOM     21  C   UNL     1      -0.516  -0.228  -0.278  0.00  0.00    -0.000 C 
ENDBRANCH  19  21
ENDBRANCH  18  19
ENDBRANCH  17  18
ENDBRANCH  11  17
BRANCH  16  22
ATOM     22  O   UNL     1       2.606  -3.409   4.342  0.00  0.00    -0.489 OA
BRANCH  22  23
ATOM     23  C   UNL     1       3.344  -3.933   5.448  0.00  0.00    +0.226 C 
ATOM     24  C   UNL     1       3.851  -2.779   6.315  0.00  0.00    +0.048 C 
ENDBRANCH  22  23
ENDBRANCH  16  22
ENDBRANCH   1  14
BRANCH   9  25
ATOM     25  N   UNL     1      -1.152 -10.047   2.343  0.00  0.00    -0.328 N 
ATOM     26  H   UNL     1      -1.556 -10.567   1.631  0.00  0.00    +0.145 HD
ATOM     27  H   UNL     1      -1.611  -9.947   3.192  0.00  0.00    +0.145 HD
ENDBRANCH   9  25
BRANCH  10  28
ATOM     28  C   UNL     1      -0.096  -8.607   4.390  0.00  0.00    +0.101 C 
ATOM     29  N   UNL     1      -0.660  -8.509   5.371  0.00  0.00    -0.191 NA
ENDBRANCH  10  28
BRANCH   5  30
ATOM     30  O   UNL     1       4.770 -10.209  -1.380  0.00  0.00    -0.423 OA
BRANCH  30  31
ATOM     31  C   UNL     1       5.643 -11.209  -1.139  0.00  0.00    +0.337 C 
ATOM     32  O   UNL     1       5.723 -11.692  -0.026  0.00  0.00    -0.245 OA
BRANCH  31  33
ATOM     33  C   UNL     1       6.493 -11.711  -2.217  0.00  0.00    +0.092 C 
ATOM     34  C   UNL     1       7.367 -12.711  -1.976  0.00  0.00    +0.015 C 
BRANCH  34  35
ATOM     35  C   UNL     1       8.223 -13.217  -3.061  0.00  0.00    -0.025 A 
ATOM     36  C   UNL     1       8.138 -12.661  -4.341  0.00  0.00    +0.008 A 
ATOM     37  C   UNL     1       8.944 -13.140  -5.353  0.00  0.00    +0.001 A 
ATOM     38  C   UNL     1       9.834 -14.170  -5.103  0.00  0.00    +0.000 A 
ATOM     39  C   UNL     1       9.924 -14.727  -3.839  0.00  0.00    +0.001 A 
ATOM     40  C   UNL     1       9.129 -14.254  -2.816  0.00  0.00    +0.008 A 
ENDBRANCH  34  35
ENDBRANCH  31  33
ENDBRANCH  30  31
ENDBRANCH   5  30
TORSDOF 13
