REMARK  Name = ZINC63818121
REMARK  8 active torsions:
REMARK  status: ('A' for Active; 'I' for Inactive)
REMARK    1  A    between atoms: C_4  and  C_7
REMARK    2  A    between atoms: C_7  and  O_8
REMARK    3  A    between atoms: O_8  and  C_9
REMARK    4  A    between atoms: N_17  and  C_18
REMARK    5  A    between atoms: C_18  and  C_19
REMARK    6  A    between atoms: N_21  and  C_22
REMARK    7  A    between atoms: C_22  and  C_23
REMARK    8  A    between atoms: C_23  and  C_24
REMARK                            x       y       z     vdW  Elec       q    Type
REMARK                         _______ _______ _______ _____ _____    ______ ____
ROOT
ATOM      1  C   UNL     1       9.911  -4.169   1.379  0.00  0.00    +0.217 C 
ENDROOT
BRANCH   1  10
ATOM      2  C   UNL     1       5.319  -1.605   1.467  0.00  0.00    +0.122 A 
ATOM      3  C   UNL     1       6.049  -2.008   0.350  0.00  0.00    +0.048 A 
ATOM      4  C   UNL     1       7.244  -2.675   0.497  0.00  0.00    +0.030 A 
ATOM      5  C   UNL     1       7.733  -2.954   1.769  0.00  0.00    +0.050 A 
ATOM      6  C   UNL     1       6.999  -2.549   2.898  0.00  0.00    +0.003 A 
ATOM      7  C   UNL     1       5.791  -1.868   2.737  0.00  0.00    +0.055 A 
ATOM      8  C   UNL     1       7.773  -2.986   4.063  0.00  0.00    +0.028 A 
ATOM      9  C   UNL     1       8.873  -3.598   3.596  0.00  0.00    +0.087 A 
ATOM     10  N   UNL     1       8.868  -3.589   2.229  0.00  0.00    -0.338 N 
BRANCH   2  11
ATOM     11  O   UNL     1       4.141  -0.946   1.304  0.00  0.00    -0.487 OA
BRANCH  11  12
ATOM     12  C   UNL     1       3.711  -0.707  -0.038  0.00  0.00    +0.264 C 
BRANCH  12  16
ATOM     13  C   UNL     1      -0.017   1.378   0.010  0.00  0.00    +0.000 A 
ATOM     14  C   UNL     1       1.171   2.086   0.002  0.00  0.00    +0.000 A 
ATOM     15  C   UNL     1       2.377   1.411  -0.013  0.00  0.00    +0.007 A 
ATOM     16  C   UNL     1       2.396   0.029  -0.020  0.00  0.00    -0.010 A 
ATOM     17  C   UNL     1       1.208  -0.679  -0.012  0.00  0.00    +0.007 A 
ATOM     18  C   UNL     1       0.002  -0.004   0.002  0.00  0.00    +0.000 A 
ENDBRANCH  12  16
ENDBRANCH  11  12
ENDBRANCH   2  11
ENDBRANCH   1  10
BRANCH   1  19
ATOM     19  C   UNL     1      10.896  -3.096   0.991  0.00  0.00    +0.233 C 
ATOM     20  O   UNL     1      10.742  -1.960   1.386  0.00  0.00    -0.274 OA
ATOM     21  N   UNL     1      11.948  -3.400   0.206  0.00  0.00    -0.314 N 
ATOM     22  H   UNL     1      12.072  -4.309  -0.110  0.00  0.00    +0.149 HD
BRANCH  21  23
ATOM     23  C   UNL     1      12.906  -2.358  -0.171  0.00  0.00    +0.108 C 
BRANCH  23  24
ATOM     24  C   UNL     1      13.996  -2.963  -1.059  0.00  0.00    +0.052 C 
BRANCH  24  25
ATOM     25  C   UNL     1      14.981  -1.891  -1.446  0.00  0.00    -0.040 C 
ATOM     26  C   UNL     1      16.152  -1.603  -0.834  0.00  0.00    +0.000 A 
ATOM     27  C   UNL     1      16.833  -2.179   0.332  0.00  0.00    +0.030 A 
ATOM     28  C   UNL     1      18.024  -1.666   0.716  0.00  0.00    +0.042 A 
ATOM     29  C   UNL     1      18.623  -0.599   0.030  0.00  0.00    +0.022 A 
ATOM     30  C   UNL     1      18.059  -0.018  -1.049  0.00  0.00    +0.027 A 
ATOM     31  C   UNL     1      16.806  -0.478  -1.541  0.00  0.00    +0.043 A 
ATOM     32  N   UNL     1      16.067  -0.086  -2.551  0.00  0.00    -0.380 N 
ATOM     33  C   UNL     1      14.864  -0.923  -2.603  0.00  0.00    +0.144 C 
ATOM     34 CL   UNL     1      18.832  -2.345   2.095  0.00  0.00    -0.084 Cl
ATOM     35  H   UNL     1      16.283   0.635  -3.163  0.00  0.00    +0.160 HD
ENDBRANCH  24  25
ENDBRANCH  23  24
ENDBRANCH  21  23
ENDBRANCH   1  19
TORSDOF 8
