REMARK  Name = ZINC16936101
REMARK  9 active torsions:
REMARK  status: ('A' for Active; 'I' for Inactive)
REMARK    1  A    between atoms: C_1  and  C_2
REMARK    2  A    between atoms: C_2  and  C_3
REMARK    3  A    between atoms: C_3  and  O_4
REMARK    4  A    between atoms: O_4  and  C_5
REMARK    5  A    between atoms: C_10  and  C_11
REMARK    6  A    between atoms: N_15  and  C_27
REMARK    7  A    between atoms: N_17  and  C_18
REMARK    8  A    between atoms: C_21  and  C_25
REMARK    9  A    between atoms: C_23  and  O_24
REMARK                            x       y       z     vdW  Elec       q    Type
REMARK                         _______ _______ _______ _____ _____    ______ ____
ROOT
ATOM      1  C   UNL     1       0.073   5.226   1.359  0.00  0.00    +0.032 C 
ATOM      2  C   UNL     1       1.201   5.938   1.106  0.00  0.00    +0.078 C 
ATOM      3  C   UNL     1       1.377   7.396   0.970  0.00  0.00    +0.259 C 
ATOM      4  O   UNL     1       0.438   8.163   1.084  0.00  0.00    -0.269 OA
ATOM      5  N   UNL     1       2.599   7.833   0.720  0.00  0.00    -0.249 N 
ATOM      6  C   UNL     1       3.649   6.948   0.594  0.00  0.00    +0.168 C 
ATOM      7  N   UNL     1       4.912   7.209   0.349  0.00  0.00    -0.222 NA
ATOM      8  S   UNL     1       2.873   5.361   0.854  0.00  0.00    -0.049 S 
ATOM      9  C   UNL     1       2.841   9.270   0.575  0.00  0.00    +0.140 C 
ENDROOT
BRANCH   7  10
ATOM     10  C   UNL     1       5.806   6.183   0.192  0.00  0.00    +0.108 A 
ATOM     11  C   UNL     1       5.527   5.138  -0.690  0.00  0.00    +0.032 A 
ATOM     12  C   UNL     1       6.432   4.108  -0.844  0.00  0.00    +0.005 A 
ATOM     13  C   UNL     1       7.614   4.106  -0.126  0.00  0.00    -0.047 A 
ATOM     14  C   UNL     1       7.902   5.136   0.751  0.00  0.00    +0.051 A 
ATOM     15  C   UNL     1       7.007   6.180   0.912  0.00  0.00    +0.142 A 
ATOM     16  C   UNL     1       8.595   2.975  -0.301  0.00  0.00    +0.044 C 
BRANCH  15  17
ATOM     17  O   UNL     1       7.291   7.195   1.771  0.00  0.00    -0.505 OA
ATOM     18  H   UNL     1       6.980   7.046   2.674  0.00  0.00    +0.292 HD
ENDBRANCH  15  17
ENDBRANCH   7  10
BRANCH   1  24
ATOM     19  C   UNL     1      -0.915   2.992   1.847  0.00  0.00    +0.128 A 
ATOM     20  C   UNL     1      -0.897   1.613   1.714  0.00  0.00    +0.046 A 
ATOM     21  C   UNL     1       0.104   1.000   0.986  0.00  0.00    +0.004 A 
ATOM     22  C   UNL     1       1.092   1.756   0.375  0.00  0.00    +0.001 A 
ATOM     23  C   UNL     1       1.089   3.128   0.491  0.00  0.00    +0.011 A 
ATOM     24  C   UNL     1       0.084   3.763   1.230  0.00  0.00    +0.018 A 
BRANCH  19  25
ATOM     25  O   UNL     1      -1.895   3.595   2.567  0.00  0.00    -0.491 OA
BRANCH  25  26
ATOM     26  C   UNL     1      -2.876   2.746   3.165  0.00  0.00    +0.229 C 
BRANCH  26  28
ATOM     27  C   UNL     1      -4.942   2.690   4.570  0.00  0.00    +0.007 C 
ATOM     28  C   UNL     1      -3.891   3.599   3.929  0.00  0.00    +0.038 C 
ENDBRANCH  26  28
ENDBRANCH  25  26
ENDBRANCH  19  25
ENDBRANCH   1  24
TORSDOF 6
