REMARK  Name = ZINC58197651
REMARK  9 active torsions:
REMARK  status: ('A' for Active; 'I' for Inactive)
REMARK    1  A    between atoms: C_1  and  C_2
REMARK    2  A    between atoms: C_5  and  C_8
REMARK    3  A    between atoms: C_8  and  C_10
REMARK    4  A    between atoms: C_8  and  N_15
REMARK    5  A    between atoms: C_16  and  C_18
REMARK    6  A    between atoms: C_18  and  N_19
REMARK    7  A    between atoms: C_22  and  C_26
REMARK    8  A    between atoms: C_22  and  C_27
REMARK    9  A    between atoms: C_31  and  C_33
REMARK                            x       y       z     vdW  Elec       q    Type
REMARK                         _______ _______ _______ _____ _____    ______ ____
ROOT
ATOM      1  C   UNL     1       2.460  -6.468   1.999  0.00  0.00    +0.213 C 
ENDROOT
BRANCH   1   2
ATOM      2  N   UNL     1       2.950  -7.803   1.647  0.00  0.00    -0.215 N 
ATOM      3  C   UNL     1       2.334  -8.951   1.992  0.00  0.00    +0.251 C 
ATOM      4  O   UNL     1       1.309  -9.070   2.628  0.00  0.00    -0.272 OA
ATOM      5  C   UNL     1       3.190 -10.063   1.419  0.00  0.00    +0.135 C 
ATOM      6  N   UNL     1       4.292  -9.346   0.755  0.00  0.00    -0.281 N 
ATOM      7  C   UNL     1       4.061  -8.033   0.938  0.00  0.00    +0.310 C 
ATOM      8  O   UNL     1       4.784  -7.154   0.511  0.00  0.00    -0.252 OA
ATOM      9  C   UNL     1       2.394 -10.886   0.403  0.00  0.00    +0.047 C 
ATOM     10  H   UNL     1       5.036  -9.742   0.276  0.00  0.00    +0.152 HD
BRANCH   5  11
ATOM     11  C   UNL     1       3.719 -10.946   2.519  0.00  0.00    -0.014 A 
ATOM     12  C   UNL     1       2.985 -11.119   3.679  0.00  0.00    +0.006 A 
ATOM     13  C   UNL     1       3.463 -11.928   4.694  0.00  0.00    +0.002 A 
ATOM     14  C   UNL     1       4.678 -12.568   4.556  0.00  0.00    +0.019 A 
ATOM     15  C   UNL     1       5.423 -12.399   3.388  0.00  0.00    +0.052 A 
ATOM     16  C   UNL     1       4.932 -11.585   2.365  0.00  0.00    +0.025 A 
BRANCH  15  17
ATOM     17  C   UNL     1       6.684 -13.061   3.238  0.00  0.00    +0.099 C 
ATOM     18  N   UNL     1       7.685 -13.586   3.118  0.00  0.00    -0.191 NA
ENDBRANCH  15  17
ENDBRANCH   5  11
ENDBRANCH   1   2
BRANCH   1  20
ATOM     19  N   UNL     1       0.959  -4.758   1.029  0.00  0.00    -0.303 N 
ATOM     20  C   UNL     1       1.534  -5.972   0.919  0.00  0.00    +0.232 C 
ATOM     21  O   UNL     1       1.306  -6.665  -0.050  0.00  0.00    -0.274 OA
ATOM     22  H   UNL     1       1.142  -4.204   1.804  0.00  0.00    +0.150 HD
BRANCH  19  23
ATOM     23  C   UNL     1       0.059  -4.275  -0.021  0.00  0.00    +0.140 C 
BRANCH  23  28
ATOM     24  C   UNL     1      -0.018   1.503   0.010  0.00  0.00    +0.044 C 
ATOM     25  C   UNL     1       0.002  -0.004   0.002  0.00  0.00    -0.050 A 
ATOM     26  C   UNL     1       0.006  -0.689  -1.199  0.00  0.00    +0.004 A 
ATOM     27  C   UNL     1       0.025  -2.071  -1.206  0.00  0.00    +0.006 A 
ATOM     28  C   UNL     1       0.040  -2.768  -0.013  0.00  0.00    -0.022 A 
ATOM     29  C   UNL     1       0.037  -2.084   1.188  0.00  0.00    +0.006 A 
ATOM     30  C   UNL     1       0.023  -0.702   1.195  0.00  0.00    +0.004 A 
ENDBRANCH  23  28
BRANCH  23  31
ATOM     31  C   UNL     1      -1.332  -4.797   0.230  0.00  0.00    +0.014 A 
ATOM     32  C   UNL     1      -2.241  -5.266  -0.659  0.00  0.00    +0.013 A 
ATOM     33  C   UNL     1      -3.470  -5.698  -0.196  0.00  0.00    +0.008 A 
ATOM     34  C   UNL     1      -3.729  -5.641   1.133  0.00  0.00    +0.045 A 
ATOM     35  S   UNL     1      -2.207  -4.965   1.777  0.00  0.00    -0.099 S 
ENDBRANCH  23  31
ENDBRANCH  19  23
ENDBRANCH   1  20
TORSDOF 7
