REMARK  Name = ZINC00283707
REMARK  6 active torsions:
REMARK  status: ('A' for Active; 'I' for Inactive)
REMARK    1  A    between atoms: C_4  and  O_8
REMARK    2  A    between atoms: C_5  and  O_7
REMARK    3  A    between atoms: O_8  and  C_9
REMARK    4  A    between atoms: C_12  and  O_15
REMARK    5  A    between atoms: O_15  and  C_16
REMARK    6  A    between atoms: C_21  and  O_22
REMARK                            x       y       z     vdW  Elec       q    Type
REMARK                         _______ _______ _______ _____ _____    ______ ____
ROOT
ATOM      1  C   UNL     1       3.445   3.091   0.110  0.00  0.00    +0.129 A 
ATOM      2  C   UNL     1       3.444   1.705   0.167  0.00  0.00    +0.050 A 
ATOM      3  C   UNL     1       4.638   1.016   0.248  0.00  0.00    +0.050 A 
ATOM      4  C   UNL     1       5.839   1.711   0.282  0.00  0.00    +0.129 A 
ATOM      5  C   UNL     1       5.840   3.097   0.230  0.00  0.00    +0.050 A 
ATOM      6  C   UNL     1       4.646   3.786   0.145  0.00  0.00    +0.050 A 
ENDROOT
BRANCH   1   7
ATOM      7  O   UNL     1       2.270   3.769   0.026  0.00  0.00    -0.452 OA
BRANCH   7  11
ATOM      8  C   UNL     1      -1.241   1.613   0.301  0.00  0.00    +0.004 A 
ATOM      9  C   UNL     1      -0.746   1.975  -0.938  0.00  0.00    +0.004 A 
ATOM     10  C   UNL     1       0.428   2.698  -1.032  0.00  0.00    +0.050 A 
ATOM     11  C   UNL     1       1.115   3.058   0.117  0.00  0.00    +0.170 A 
ATOM     12  C   UNL     1       0.619   2.689   1.364  0.00  0.00    +0.159 A 
ATOM     13  C   UNL     1      -0.558   1.963   1.451  0.00  0.00    +0.049 A 
BRANCH  12  14
ATOM     14  O   UNL     1       1.289   3.039   2.494  0.00  0.00    -0.503 OA
ATOM     15  H   UNL     1       1.021   3.893   2.861  0.00  0.00    +0.292 HD
ENDBRANCH  12  14
ENDBRANCH   7  11
ENDBRANCH   1   7
BRANCH   4  16
ATOM     16  O   UNL     1       7.014   1.033   0.366  0.00  0.00    -0.452 OA
BRANCH  16  17
ATOM     17  C   UNL     1       7.492   0.443  -0.762  0.00  0.00    +0.170 A 
ATOM     18  C   UNL     1       6.748   0.472  -1.930  0.00  0.00    +0.050 A 
ATOM     19  C   UNL     1       7.239  -0.123  -3.077  0.00  0.00    +0.004 A 
ATOM     20  C   UNL     1       8.466  -0.759  -3.059  0.00  0.00    +0.004 A 
ATOM     21  C   UNL     1       9.212  -0.797  -1.895  0.00  0.00    +0.049 A 
ATOM     22  C   UNL     1       8.729  -0.197  -0.743  0.00  0.00    +0.159 A 
BRANCH  22  23
ATOM     23  O   UNL     1       9.460  -0.234   0.402  0.00  0.00    -0.503 OA
ATOM     24  H   UNL     1       9.277  -1.001   0.962  0.00  0.00    +0.292 HD
ENDBRANCH  22  23
ENDBRANCH  16  17
ENDBRANCH   4  16
TORSDOF 6
