REMARK  Name = ZINC21371184
REMARK  9 active torsions:
REMARK  status: ('A' for Active; 'I' for Inactive)
REMARK    1  A    between atoms: C_1  and  C_2
REMARK    2  A    between atoms: C_3  and  C_35
REMARK    3  A    between atoms: C_11  and  C_13
REMARK    4  A    between atoms: C_13  and  S_14
REMARK    5  A    between atoms: S_14  and  C_15
REMARK    6  A    between atoms: N_25  and  C_26
REMARK    7  A    between atoms: C_26  and  C_27
REMARK    8  A    between atoms: C_30  and  O_33
REMARK    9  A    between atoms: O_33  and  C_34
REMARK                            x       y       z     vdW  Elec       q    Type
REMARK                         _______ _______ _______ _____ _____    ______ ____
ROOT
ATOM      1  C   UNL     1       0.134  -6.118   5.400  0.00  0.00    +0.173 A 
ATOM      2  N   UNL     1       0.131  -5.507   6.559  0.00  0.00    -0.223 NA
ATOM      3  C   UNL     1       0.150  -6.193   7.719  0.00  0.00    +0.079 A 
ATOM      4  C   UNL     1       0.146  -5.541   8.956  0.00  0.00    +0.028 A 
ATOM      5  C   UNL     1       0.165  -6.276  10.108  0.00  0.00    +0.002 A 
ATOM      6  C   UNL     1       0.190  -7.664  10.070  0.00  0.00    +0.001 A 
ATOM      7  C   UNL     1       0.194  -8.330   8.876  0.00  0.00    +0.015 A 
ATOM      8  C   UNL     1       0.174  -7.606   7.685  0.00  0.00    +0.065 A 
ATOM      9  C   UNL     1       0.177  -8.268   6.373  0.00  0.00    +0.263 A 
ATOM     10  O   UNL     1       0.198  -9.481   6.278  0.00  0.00    -0.267 OA
ATOM     11  N   UNL     1       0.151  -7.478   5.274  0.00  0.00    -0.283 N 
ENDROOT
BRANCH   1  12
ATOM     12  S   UNL     1       0.108  -5.139   3.935  0.00  0.00    -0.080 S 
BRANCH  12  13
ATOM     13  C   UNL     1       0.090  -3.432   4.547  0.00  0.00    +0.151 C 
BRANCH  13  24
ATOM     14  C   UNL     1      -0.018   1.503   0.010  0.00  0.00    +0.045 C 
ATOM     15  C   UNL     1       0.002  -0.004   0.002  0.00  0.00    -0.026 A 
ATOM     16  C   UNL     1       0.006  -0.677  -1.160  0.00  0.00    -0.008 A 
ATOM     17  S   UNL     1       0.032  -2.385  -0.648  0.00  0.00    -0.073 S 
ATOM     18  C   UNL     1       0.037  -2.144   1.110  0.00  0.00    +0.116 A 
ATOM     19  C   UNL     1       0.024  -0.745   1.250  0.00  0.00    +0.075 A 
ATOM     20  C   UNL     1       0.029  -0.257   2.597  0.00  0.00    +0.260 A 
ATOM     21  O   UNL     1       0.014   0.942   2.821  0.00  0.00    -0.267 OA
ATOM     22  N   UNL     1       0.051  -1.142   3.611  0.00  0.00    -0.310 N 
ATOM     23  H   UNL     1       0.054  -0.817   4.525  0.00  0.00    +0.170 HD
ATOM     24  C   UNL     1       0.067  -2.480   3.380  0.00  0.00    +0.121 A 
ATOM     25  N   UNL     1       0.053  -2.956   2.163  0.00  0.00    -0.226 NA
ATOM     26  C   UNL     1      -0.009  -0.122  -2.561  0.00  0.00    +0.052 C 
ENDBRANCH  13  24
ENDBRANCH  12  13
ENDBRANCH   1  12
BRANCH  11  27
ATOM     27  C   UNL     1       0.147  -8.085   3.941  0.00  0.00    +0.162 C 
BRANCH  27  28
ATOM     28  C   UNL     1       1.567  -8.274   3.471  0.00  0.00    -0.027 A 
ATOM     29  C   UNL     1       2.199  -7.269   2.764  0.00  0.00    +0.009 A 
ATOM     30  C   UNL     1       3.500  -7.440   2.331  0.00  0.00    +0.046 A 
ATOM     31  C   UNL     1       4.172  -8.621   2.608  0.00  0.00    +0.120 A 
ATOM     32  C   UNL     1       3.535  -9.629   3.318  0.00  0.00    +0.046 A 
ATOM     33  C   UNL     1       2.236  -9.451   3.753  0.00  0.00    +0.009 A 
BRANCH  31  34
ATOM     34  O   UNL     1       5.451  -8.792   2.183  0.00  0.00    -0.495 OA
ATOM     35  C   UNL     1       6.081 -10.034   2.503  0.00  0.00    +0.277 C 
ENDBRANCH  31  34
ENDBRANCH  27  28
ENDBRANCH  11  27
TORSDOF 6
