REMARK  Name = ZINC05182085
REMARK  9 active torsions:
REMARK  status: ('A' for Active; 'I' for Inactive)
REMARK    1  A    between atoms: C_1  and  O_2
REMARK    2  A    between atoms: O_2  and  C_3
REMARK    3  A    between atoms: C_7  and  C_9
REMARK    4  A    between atoms: C_16  and  N_31
REMARK    5  A    between atoms: C_17  and  C_29
REMARK    6  A    between atoms: C_18  and  C_20
REMARK    7  A    between atoms: C_23  and  O_27
REMARK    8  A    between atoms: C_24  and  O_26
REMARK    9  A    between atoms: O_27  and  C_28
REMARK                            x       y       z     vdW  Elec       q    Type
REMARK                         _______ _______ _______ _____ _____    ______ ____
ROOT
ATOM      1  C   UNL     1       1.510  -4.457  -2.318  0.00  0.00    +0.100 A 
ATOM      2  C   UNL     1       1.219  -5.049  -3.551  0.00  0.00    +0.054 A 
ATOM      3  C   UNL     1       1.275  -6.403  -3.394  0.00  0.00    +0.223 A 
ATOM      4  N   UNL     1       1.592  -6.654  -2.107  0.00  0.00    -0.246 N 
ATOM      5  H   UNL     1       1.702  -7.531  -1.707  0.00  0.00    +0.192 HD
ATOM      6  N   UNL     1       1.740  -5.423  -1.449  0.00  0.00    -0.171 NA
ATOM      7  O   UNL     1       1.037  -7.269  -4.411  0.00  0.00    -0.423 OA
ATOM      8  C   UNL     1       0.471  -6.776  -5.531  0.00  0.00    +0.200 C 
ATOM      9  C   UNL     1       0.369  -5.457  -5.804  0.00  0.00    +0.098 C 
ATOM     10  C   UNL     1       0.891  -4.395  -4.869  0.00  0.00    +0.102 C 
ENDROOT
BRANCH   1  15
ATOM     11  C   UNL     1       0.635  -0.797  -2.303  0.00  0.00    +0.121 A 
ATOM     12  C   UNL     1       1.651  -0.281  -1.511  0.00  0.00    +0.045 A 
ATOM     13  C   UNL     1       2.616  -1.119  -0.984  0.00  0.00    +0.004 A 
ATOM     14  C   UNL     1       2.574  -2.475  -1.244  0.00  0.00    +0.010 A 
ATOM     15  C   UNL     1       1.557  -3.001  -2.038  0.00  0.00    +0.006 A 
ATOM     16  C   UNL     1       0.582  -2.157  -2.563  0.00  0.00    +0.055 A 
BRANCH  11  18
ATOM     17  C   UNL     1      -0.196   1.421  -2.509  0.00  0.00    +0.277 C 
ATOM     18  O   UNL     1      -0.312   0.030  -2.818  0.00  0.00    -0.495 OA
ENDBRANCH  11  18
ENDBRANCH   1  15
BRANCH  10  19
ATOM     19  C   UNL     1       2.134  -3.772  -5.450  0.00  0.00    -0.031 A 
ATOM     20  C   UNL     1       3.260  -4.545  -5.660  0.00  0.00    +0.008 A 
ATOM     21  C   UNL     1       4.403  -3.978  -6.193  0.00  0.00    +0.050 A 
ATOM     22  C   UNL     1       4.421  -2.632  -6.519  0.00  0.00    +0.161 A 
ATOM     23  C   UNL     1       3.287  -1.853  -6.308  0.00  0.00    +0.159 A 
ATOM     24  C   UNL     1       2.143  -2.429  -5.777  0.00  0.00    +0.053 A 
BRANCH  23  25
ATOM     25  O   UNL     1       3.300  -0.530  -6.625  0.00  0.00    -0.503 OA
ATOM     26  H   UNL     1       3.019  -0.341  -7.531  0.00  0.00    +0.292 HD
ENDBRANCH  23  25
BRANCH  22  27
ATOM     27  O   UNL     1       5.544  -2.072  -7.043  0.00  0.00    -0.491 OA
ATOM     28  C   UNL     1       6.670  -2.932  -7.231  0.00  0.00    +0.277 C 
ENDBRANCH  22  27
ENDBRANCH  10  19
BRANCH   8  29
ATOM     29  N   UNL     1      -0.030  -7.667  -6.448  0.00  0.00    -0.328 N 
ATOM     30  H   UNL     1       0.029  -8.620  -6.280  0.00  0.00    +0.145 HD
ATOM     31  H   UNL     1      -0.443  -7.343  -7.263  0.00  0.00    +0.145 HD
ENDBRANCH   8  29
BRANCH   9  32
ATOM     32  C   UNL     1      -0.257  -5.052  -7.027  0.00  0.00    +0.101 C 
ATOM     33  N   UNL     1      -0.754  -4.730  -7.996  0.00  0.00    -0.191 NA
ENDBRANCH   9  32
TORSDOF 7
