REMARK  Name = ZINC16688422
REMARK  11 active torsions:
REMARK  status: ('A' for Active; 'I' for Inactive)
REMARK    1  A    between atoms: C_1  and  C_2
REMARK    2  A    between atoms: C_2  and  O_3
REMARK    3  A    between atoms: O_3  and  C_4
REMARK    4  A    between atoms: C_6  and  C_20
REMARK    5  A    between atoms: C_9  and  O_10
REMARK    6  A    between atoms: O_10  and  C_11
REMARK    7  A    between atoms: C_11  and  C_12
REMARK    8  A    between atoms: C_20  and  N_67
REMARK    9  A    between atoms: C_21  and  N_67
REMARK   10  A    between atoms: C_25  and  C_32
REMARK   11  A    between atoms: C_28  and  C_31
REMARK                            x       y       z     vdW  Elec       q    Type
REMARK                         _______ _______ _______ _____ _____    ______ ____
ROOT
ATOM      1  C   UNL     1      -1.498  -1.849   0.006  0.00  0.00    +0.163 A 
ATOM      2  C   UNL     1      -0.389  -2.680  -0.014  0.00  0.00    +0.051 A 
ATOM      3  C   UNL     1      -0.553  -4.052  -0.014  0.00  0.00    -0.060 A 
ATOM      4  C   UNL     1      -1.822  -4.600  -0.005  0.00  0.00    +0.021 A 
ATOM      5  C   UNL     1      -2.934  -3.777   0.010  0.00  0.00    +0.063 A 
ATOM      6  C   UNL     1      -2.776  -2.400   0.016  0.00  0.00    +0.176 A 
ATOM      7 BR   UNL     1      -4.668  -4.531   0.022  0.00  0.00    -0.046 Br
ENDROOT
BRANCH   1   8
ATOM      8  O   UNL     1      -1.339  -0.499   0.012  0.00  0.00    -0.489 OA
BRANCH   8  10
ATOM      9  C   UNL     1      -0.019   1.526   0.010  0.00  0.00    +0.048 C 
ATOM     10  C   UNL     1       0.002  -0.004   0.002  0.00  0.00    +0.226 C 
ENDBRANCH   8  10
ENDBRANCH   1   8
BRANCH   6  11
ATOM     11  O   UNL     1      -3.868  -1.589   0.030  0.00  0.00    -0.483 OA
BRANCH  11  12
ATOM     12  C   UNL     1      -4.400  -1.196  -1.236  0.00  0.00    +0.264 C 
BRANCH  12  13
ATOM     13  C   UNL     1      -5.598  -0.306  -1.023  0.00  0.00    -0.010 A 
ATOM     14  C   UNL     1      -6.861  -0.859  -0.929  0.00  0.00    +0.008 A 
ATOM     15  C   UNL     1      -7.959  -0.043  -0.728  0.00  0.00    +0.020 A 
ATOM     16  C   UNL     1      -7.795   1.327  -0.632  0.00  0.00    +0.041 A 
ATOM     17  C   UNL     1      -6.531   1.880  -0.732  0.00  0.00    +0.020 A 
ATOM     18  C   UNL     1      -5.433   1.063  -0.927  0.00  0.00    +0.008 A 
ATOM     19 CL   UNL     1      -9.174   2.352  -0.386  0.00  0.00    -0.084 Cl
ENDBRANCH  12  13
ENDBRANCH  11  12
ENDBRANCH   6  11
BRANCH   3  20
ATOM     20  C   UNL     1       0.655  -4.953  -0.030  0.00  0.00    -0.046 C 
BRANCH  20  21
ATOM     21  N   UNL     1       1.030  -5.235  -1.428  0.00  0.00    +0.385 N 
ATOM     22  H   UNL     1       1.247  -4.352  -1.905  0.00  0.00    -0.085 HD
ATOM     23  H   UNL     1       0.244  -5.696  -1.903  0.00  0.00    -0.085 HD
BRANCH  21  24
ATOM     24  C   UNL     1       2.211  -6.117  -1.474  0.00  0.00    -0.067 C 
ATOM     25  C   UNL     1       1.895  -7.438  -0.771  0.00  0.00    -0.009 C 
ATOM     26  C   UNL     1       3.120  -8.352  -0.828  0.00  0.00    -0.011 C 
ATOM     27  C   UNL     1       4.298  -7.671  -0.128  0.00  0.00    +0.010 C 
ATOM     28  C   UNL     1       4.614  -6.350  -0.831  0.00  0.00    -0.033 C 
ATOM     29  C   UNL     1       3.389  -5.436  -0.774  0.00  0.00    -0.006 C 
ATOM     30  C   UNL     1       4.979  -6.624  -2.291  0.00  0.00    +0.013 C 
ATOM     31  C   UNL     1       3.801  -7.305  -2.992  0.00  0.00    -0.033 C 
ATOM     32  C   UNL     1       3.485  -8.627  -2.288  0.00  0.00    +0.010 C 
ATOM     33  C   UNL     1       2.576  -6.391  -2.935  0.00  0.00    -0.006 C 
ATOM     34  C   UNL     1       4.165  -7.580  -4.452  0.00  0.00    +0.011 C 
ATOM     35  C   UNL     1       5.792  -5.669  -0.131  0.00  0.00    +0.011 C 
ENDBRANCH  21  24
ENDBRANCH  20  21
ENDBRANCH   3  20
TORSDOF 8
