REMARK  Name = ZINC03301246
REMARK  7 active torsions:
REMARK  status: ('A' for Active; 'I' for Inactive)
REMARK    1  A    between atoms: C_1  and  C_2
REMARK    2  A    between atoms: C_2  and  C_4
REMARK    3  A    between atoms: C_2  and  O_18
REMARK    4  A    between atoms: C_9  and  C_12
REMARK    5  A    between atoms: O_18  and  C_19
REMARK    6  A    between atoms: C_19  and  C_21
REMARK    7  A    between atoms: C_26  and  O_27
REMARK                            x       y       z     vdW  Elec       q    Type
REMARK                         _______ _______ _______ _____ _____    ______ ____
ROOT
ATOM      1  C   UNL     1      -2.241   5.289   0.052  0.00  0.00    +0.259 C 
ATOM      2  O   UNL     1      -3.036   4.373   0.054  0.00  0.00    -0.271 OA
ATOM      3  N   UNL     1      -0.918   5.032   0.039  0.00  0.00    -0.262 N 
ATOM      4  C   UNL     1      -0.465   3.719   0.026  0.00  0.00    +0.165 A 
ATOM      5  N   UNL     1       0.774   3.263   0.012  0.00  0.00    -0.225 NA
ATOM      6  C   UNL     1       1.028   1.963   0.003  0.00  0.00    +0.080 A 
ATOM      7  C   UNL     1      -0.013   1.076   0.008  0.00  0.00    +0.076 A 
ATOM      8  S   UNL     1      -1.404   2.198   0.019  0.00  0.00    -0.060 S 
ATOM      9  H   UNL     1      -0.282   5.765   0.037  0.00  0.00    +0.157 HD
ENDROOT
BRANCH   6  10
ATOM     10  C   UNL     1       2.428   1.474  -0.013  0.00  0.00    +0.001 A 
ATOM     11  C   UNL     1       2.691   0.105  -0.016  0.00  0.00    +0.010 A 
ATOM     12  C   UNL     1       3.996  -0.344  -0.036  0.00  0.00    +0.001 A 
ATOM     13  C   UNL     1       5.042   0.561  -0.041  0.00  0.00    +0.000 A 
ATOM     14  C   UNL     1       4.787   1.921  -0.032  0.00  0.00    +0.001 A 
ATOM     15  C   UNL     1       3.486   2.381  -0.018  0.00  0.00    +0.010 A 
ENDBRANCH   6  10
BRANCH   1  17
ATOM     16  C   UNL     1      -2.334   7.402  -1.242  0.00  0.00    +0.062 C 
ATOM     17  C   UNL     1      -2.732   6.713   0.066  0.00  0.00    +0.259 C 
BRANCH  17  18
ATOM     18  O   UNL     1      -4.178   6.725   0.198  0.00  0.00    -0.449 OA
BRANCH  18  19
ATOM     19  C   UNL     1      -4.726   7.783   0.828  0.00  0.00    +0.343 C 
ATOM     20  O   UNL     1      -4.015   8.672   1.254  0.00  0.00    -0.245 OA
BRANCH  19  21
ATOM     21  C   UNL     1      -6.188   7.863   1.000  0.00  0.00    +0.100 A 
ATOM     22  C   UNL     1      -7.010   6.847   0.506  0.00  0.00    +0.018 A 
ATOM     23  C   UNL     1      -8.375   6.925   0.674  0.00  0.00    +0.001 A 
ATOM     24  C   UNL     1      -8.938   8.013   1.322  0.00  0.00    +0.004 A 
ATOM     25  C   UNL     1      -8.139   9.027   1.810  0.00  0.00    +0.046 A 
ATOM     26  C   UNL     1      -6.762   8.962   1.654  0.00  0.00    +0.131 A 
BRANCH  26  27
ATOM     27  O   UNL     1      -5.975   9.958   2.132  0.00  0.00    -0.506 OA
ATOM     28  H   UNL     1      -5.814  10.671   1.499  0.00  0.00    +0.292 HD
ENDBRANCH  26  27
ENDBRANCH  19  21
ENDBRANCH  18  19
ENDBRANCH  17  18
ENDBRANCH   1  17
TORSDOF 6
