REMARK  Name = ZINC38971269
REMARK  4 active torsions:
REMARK  status: ('A' for Active; 'I' for Inactive)
REMARK    1  A    between atoms: N_7  and  S_8
REMARK    2  A    between atoms: S_8  and  C_11
REMARK    3  A    between atoms: C_16  and  N_21
REMARK    4  A    between atoms: N_21  and  C_22
REMARK                            x       y       z     vdW  Elec       q    Type
REMARK                         _______ _______ _______ _____ _____    ______ ____
ROOT
ATOM      1  C   UNL     1      -0.321   1.090   0.249  0.00  0.00    +0.002 A 
ATOM      2  C   UNL     1       0.787   1.947   0.143  0.00  0.00    +0.002 A 
ATOM      3  C   UNL     1       2.053   1.492   0.024  0.00  0.00    +0.028 A 
ATOM      4  C   UNL     1       2.315   0.099  -0.000  0.00  0.00    +0.064 A 
ATOM      5  N   UNL     1       3.551  -0.339  -0.116  0.00  0.00    -0.338 N 
ATOM      6  C   UNL     1       3.834  -1.651  -0.143  0.00  0.00    +0.170 C 
ATOM      7  N   UNL     1       5.064  -2.059  -0.258  0.00  0.00    -0.111 NA
ATOM      8  C   UNL     1       2.702  -2.648  -0.035  0.00  0.00    +0.235 C 
ATOM      9  N   UNL     1       1.334  -2.122   0.094  0.00  0.00    -0.359 N 
ATOM     10  C   UNL     1       1.163  -0.830   0.110  0.00  0.00    +0.061 A 
ATOM     11  C   UNL     1      -0.184  -0.254   0.237  0.00  0.00    +0.027 A 
ATOM     12  H   UNL     1       0.576  -2.724   0.166  0.00  0.00    +0.162 HD
ATOM     13  H   UNL     1       4.276   0.302  -0.185  0.00  0.00    +0.167 HD
ENDROOT
BRANCH   7  14
ATOM     14  S   UNL     1       6.294  -0.957  -0.374  0.00  0.00    +0.107 S 
ATOM     15  O   UNL     1       6.114  -0.276  -1.609  0.00  0.00    -0.146 OA
ATOM     16  O   UNL     1       6.348  -0.276   0.871  0.00  0.00    -0.146 OA
BRANCH  14  17
ATOM     17  C   UNL     1       7.796  -1.867  -0.516  0.00  0.00    +0.150 A 
ATOM     18  C   UNL     1       8.428  -2.303  -1.633  0.00  0.00    +0.037 A 
ATOM     19  C   UNL     1       9.611  -3.006  -1.502  0.00  0.00    +0.010 A 
ATOM     20  C   UNL     1      10.104  -3.239  -0.261  0.00  0.00    +0.047 A 
ATOM     21  S   UNL     1       8.886  -2.446   0.775  0.00  0.00    -0.076 S 
ENDBRANCH  14  17
ENDBRANCH   7  14
BRANCH   8  22
ATOM     22  N   UNL     1       2.742  -3.500  -1.226  0.00  0.00    -0.317 N 
ATOM     23  H   UNL     1       2.888  -3.106  -2.100  0.00  0.00    +0.148 HD
BRANCH  22  24
ATOM     24  C   UNL     1       2.571  -4.882  -1.103  0.00  0.00    +0.048 A 
ATOM     25  C   UNL     1       2.236  -5.435   0.127  0.00  0.00    +0.026 A 
ATOM     26  C   UNL     1       2.066  -6.801   0.246  0.00  0.00    +0.022 A 
ATOM     27  C   UNL     1       2.230  -7.619  -0.858  0.00  0.00    +0.042 A 
ATOM     28  C   UNL     1       2.564  -7.072  -2.085  0.00  0.00    +0.041 A 
ATOM     29  C   UNL     1       2.729  -5.705  -2.211  0.00  0.00    +0.063 A 
ATOM     30 CL   UNL     1       3.140  -5.019  -3.752  0.00  0.00    -0.082 Cl
ATOM     31 CL   UNL     1       2.017  -9.335  -0.704  0.00  0.00    -0.083 Cl
ENDBRANCH  22  24
ENDBRANCH   8  22
TORSDOF 4
