REMARK  Name = ZINC63884028
REMARK  4 active torsions:
REMARK  status: ('A' for Active; 'I' for Inactive)
REMARK    1  A    between atoms: C_4  and  C_7
REMARK    2  A    between atoms: C_11  and  C_13
REMARK    3  A    between atoms: N_22  and  C_23
REMARK    4  A    between atoms: C_23  and  C_24
REMARK                            x       y       z     vdW  Elec       q    Type
REMARK                         _______ _______ _______ _____ _____    ______ ____
ROOT
ATOM      1  C   UNL     1       3.410  -3.201   0.901  0.00  0.00    +0.189 C 
ATOM      2  N   UNL     1       1.927  -3.076   0.995  0.00  0.00    -0.270 NA
ATOM      3  C   UNL     1       1.602  -4.257   1.803  0.00  0.00    +0.211 C 
ATOM      4  C   UNL     1       2.655  -5.283   1.389  0.00  0.00    +0.093 C 
ATOM      5  N   UNL     1       3.681  -4.647   0.934  0.00  0.00    -0.264 NA
ATOM      6  C   UNL     1       1.947  -6.550   1.571  0.00  0.00    +0.156 C 
ATOM      7  N   UNL     1       0.664  -6.321   1.620  0.00  0.00    -0.189 NA
ATOM      8  N   UNL     1       0.359  -4.942   1.446  0.00  0.00    -0.228 N 
ATOM      9  H   UNL     1       1.665  -2.228   1.473  0.00  0.00    +0.126 HD
ENDROOT
BRANCH   1  14
ATOM     10  C   UNL     1       5.408  -2.792  -0.553  0.00  0.00    +0.082 C 
ATOM     11  N   UNL     1       5.571  -3.523  -1.621  0.00  0.00    -0.153 NA
ATOM     12  N   UNL     1       4.361  -3.845  -2.227  0.00  0.00    -0.161 NA
ATOM     13  C   UNL     1       3.345  -3.349  -1.599  0.00  0.00    +0.121 C 
ATOM     14  C   UNL     1       3.911  -2.596  -0.411  0.00  0.00    +0.122 C 
BRANCH  10  18
ATOM     15  C   UNL     1       8.439  -1.289   2.006  0.00  0.00    +0.000 A 
ATOM     16  C   UNL     1       8.770  -2.165   0.987  0.00  0.00    +0.001 A 
ATOM     17  C   UNL     1       7.790  -2.659   0.151  0.00  0.00    +0.010 A 
ATOM     18  C   UNL     1       6.459  -2.271   0.335  0.00  0.00    -0.001 A 
ATOM     19  C   UNL     1       6.133  -1.385   1.367  0.00  0.00    +0.010 A 
ATOM     20  C   UNL     1       7.124  -0.900   2.194  0.00  0.00    +0.001 A 
ENDBRANCH  10  18
ENDBRANCH   1  14
BRANCH   8  21
ATOM     21  C   UNL     1      -0.900  -4.339   1.002  0.00  0.00    +0.163 C 
BRANCH  21  22
ATOM     22  C   UNL     1      -0.882  -4.184  -0.497  0.00  0.00    -0.026 A 
ATOM     23  C   UNL     1      -0.495  -2.984  -1.063  0.00  0.00    +0.005 A 
ATOM     24  C   UNL     1      -0.478  -2.841  -2.438  0.00  0.00    +0.003 A 
ATOM     25  C   UNL     1      -0.849  -3.898  -3.248  0.00  0.00    +0.038 A 
ATOM     26  C   UNL     1      -1.236  -5.100  -2.682  0.00  0.00    +0.124 A 
ATOM     27  C   UNL     1      -1.247  -5.244  -1.305  0.00  0.00    +0.043 A 
ATOM     28  F   UNL     1      -1.599  -6.134  -3.473  0.00  0.00    -0.205 F 
ENDBRANCH  21  22
ENDBRANCH   8  21
TORSDOF 4
