REMARK  Name = ZINC53204814
REMARK  8 active torsions:
REMARK  status: ('A' for Active; 'I' for Inactive)
REMARK    1  A    between atoms: C_1  and  C_2
REMARK    2  A    between atoms: C_2  and  C_3
REMARK    3  A    between atoms: C_2  and  N_4
REMARK    4  A    between atoms: N_4  and  S_5
REMARK    5  A    between atoms: S_5  and  C_8
REMARK    6  A    between atoms: C_11  and  N_14
REMARK    7  A    between atoms: C_18  and  N_21
REMARK    8  A    between atoms: N_21  and  C_22
REMARK                            x       y       z     vdW  Elec       q    Type
REMARK                         _______ _______ _______ _____ _____    ______ ____
ROOT
ATOM      1  C   UNL     1      -1.137  -2.294   2.137  0.00  0.00    +0.105 A 
ATOM      2  C   UNL     1      -2.408  -2.104   1.624  0.00  0.00    +0.030 A 
ATOM      3  C   UNL     1      -3.193  -3.193   1.300  0.00  0.00    +0.025 A 
ATOM      4  C   UNL     1      -2.706  -4.480   1.490  0.00  0.00    +0.030 A 
ATOM      5  C   UNL     1      -1.429  -4.667   2.006  0.00  0.00    +0.025 A 
ATOM      6  C   UNL     1      -0.647  -3.574   2.322  0.00  0.00    +0.030 A 
ENDROOT
BRANCH   4   7
ATOM      7  N   UNL     1      -3.498  -5.584   1.164  0.00  0.00    -0.331 N 
ATOM      8  C   UNL     1      -2.953  -6.946   1.246  0.00  0.00    +0.105 C 
ATOM      9  C   UNL     1      -3.173  -7.646  -0.098  0.00  0.00    +0.017 C 
ATOM     10  C   UNL     1      -4.658  -7.584  -0.465  0.00  0.00    -0.013 C 
ATOM     11  C   UNL     1      -5.089  -6.122  -0.605  0.00  0.00    -0.055 C 
ATOM     12  C   UNL     1      -4.892  -5.405   0.739  0.00  0.00    +0.089 C 
BRANCH  11  13
ATOM     13  N   UNL     1      -6.506  -6.063  -0.988  0.00  0.00    +0.380 N 
ATOM     14  C   UNL     1      -6.676  -6.649  -2.325  0.00  0.00    -0.100 C 
ATOM     15  H   UNL     1      -7.057  -6.583  -0.321  0.00  0.00    -0.086 HD
ATOM     16  H   UNL     1      -6.812  -5.102  -1.001  0.00  0.00    -0.086 HD
ENDBRANCH  11  13
ENDBRANCH   4   7
BRANCH   1  17
ATOM     17  S   UNL     1      -0.139  -0.902   2.549  0.00  0.00    +0.059 S 
ATOM     18  O   UNL     1       0.802  -1.349   3.515  0.00  0.00    -0.153 OA
ATOM     19  O   UNL     1      -1.029   0.178   2.796  0.00  0.00    -0.153 OA
BRANCH  17  20
ATOM     20  N   UNL     1       0.727  -0.503   1.195  0.00  0.00    -0.187 NA
ATOM     21  H   UNL     1       1.693  -0.585   1.195  0.00  0.00    +0.148 HD
BRANCH  20  23
ATOM     22  C   UNL     1       0.017   1.506  -0.007  0.00  0.00    +0.025 C 
ATOM     23  C   UNL     1       0.033  -0.024  -0.003  0.00  0.00    +0.070 C 
ATOM     24  C   UNL     1       0.761  -0.530  -1.250  0.00  0.00    +0.025 C 
ENDBRANCH  20  23
ENDBRANCH  17  20
ENDBRANCH   1  17
TORSDOF 5
