REMARK  Name = ZINC24765952
REMARK  8 active torsions:
REMARK  status: ('A' for Active; 'I' for Inactive)
REMARK    1  A    between atoms: C_1  and  C_2
REMARK    2  A    between atoms: C_2  and  C_3
REMARK    3  A    between atoms: C_2  and  C_4
REMARK    4  A    between atoms: C_2  and  C_5
REMARK    5  A    between atoms: C_8  and  C_11
REMARK    6  A    between atoms: C_12  and  C_13
REMARK    7  A    between atoms: N_15  and  N_16
REMARK    8  A    between atoms: C_17  and  C_19
REMARK                            x       y       z     vdW  Elec       q    Type
REMARK                         _______ _______ _______ _____ _____    ______ ____
ROOT
ATOM      1  C   UNL     1      -0.014   1.213   0.009  0.00  0.00    +0.253 C 
ATOM      2  O   UNL     1       0.002  -0.004   0.002  0.00  0.00    -0.269 OA
ATOM      3  N   UNL     1       1.143   1.903   0.001  0.00  0.00    -0.231 N 
ATOM      4  H   UNL     1       1.129   3.002   0.007  0.00  0.00    +0.173 HD
ENDROOT
BRANCH   3   5
ATOM      5  N   UNL     1       2.366   1.219  -0.014  0.00  0.00    -0.231 N 
ATOM      6  C   UNL     1       3.524   1.908  -0.021  0.00  0.00    +0.273 C 
ATOM      7  O   UNL     1       3.508   3.121  -0.015  0.00  0.00    -0.270 OA
ATOM      8  H   UNL     1       2.381   0.119  -0.020  0.00  0.00    +0.173 HD
BRANCH   6   9
ATOM      9  C   UNL     1       4.839   1.173  -0.038  0.00  0.00    +0.297 C 
ATOM     10  C   UNL     1       4.987   0.406  -1.359  0.00  0.00    +0.283 C 
ATOM     11  O   UNL     1       6.249  -0.269  -1.347  0.00  0.00    -0.484 OA
ATOM     12  C   UNL     1       7.327   0.456  -0.940  0.00  0.00    +0.162 A 
ATOM     13  C   UNL     1       8.604   0.001  -1.234  0.00  0.00    +0.049 A 
ATOM     14  C   UNL     1       9.708   0.724  -0.825  0.00  0.00    +0.004 A 
ATOM     15  C   UNL     1       9.543   1.903  -0.122  0.00  0.00    +0.004 A 
ATOM     16  C   UNL     1       8.274   2.363   0.173  0.00  0.00    +0.049 A 
ATOM     17  C   UNL     1       7.162   1.642  -0.236  0.00  0.00    +0.163 A 
ATOM     18  O   UNL     1       5.918   2.109   0.060  0.00  0.00    -0.472 OA
ENDBRANCH   6   9
ENDBRANCH   3   5
BRANCH   1  20
ATOM     19  C   UNL     1      -2.450   1.238   0.020  0.00  0.00    +0.013 C 
ATOM     20  C   UNL     1      -1.292   1.928   0.019  0.00  0.00    +0.069 C 
BRANCH  19  24
ATOM     21  C   UNL     1      -6.153   3.309   0.050  0.00  0.00    -0.042 A 
ATOM     22  C   UNL     1      -6.138   1.925   0.042  0.00  0.00    +0.005 A 
ATOM     23  C   UNL     1      -4.939   1.244   0.032  0.00  0.00    +0.008 A 
ATOM     24  C   UNL     1      -3.735   1.956   0.030  0.00  0.00    -0.025 A 
ATOM     25  C   UNL     1      -3.758   3.354   0.044  0.00  0.00    +0.008 A 
ATOM     26  C   UNL     1      -4.966   4.020   0.048  0.00  0.00    +0.005 A 
BRANCH  21  28
ATOM     27  C   UNL     1      -8.259   3.657   1.311  0.00  0.00    +0.015 C 
ATOM     28  C   UNL     1      -7.468   4.044   0.060  0.00  0.00    -0.013 C 
ATOM     29  C   UNL     1      -7.209   5.552   0.068  0.00  0.00    +0.015 C 
ATOM     30  C   UNL     1      -8.271   3.671  -1.187  0.00  0.00    +0.015 C 
ENDBRANCH  21  28
ENDBRANCH  19  24
ENDBRANCH   1  20
TORSDOF 5
