REMARK  Name = ZINC39232745
REMARK  7 active torsions:
REMARK  status: ('A' for Active; 'I' for Inactive)
REMARK    1  A    between atoms: C_1  and  C_2
REMARK    2  A    between atoms: C_4  and  C_25
REMARK    3  A    between atoms: N_10  and  C_11
REMARK    4  A    between atoms: C_11  and  C_12
REMARK    5  A    between atoms: C_12  and  C_13
REMARK    6  A    between atoms: C_16  and  O_22
REMARK    7  A    between atoms: O_22  and  C_23
REMARK                            x       y       z     vdW  Elec       q    Type
REMARK                         _______ _______ _______ _____ _____    ______ ____
ROOT
ATOM      1  C   UNL     1       0.200   1.498  -0.375  0.00  0.00    +0.027 C 
ATOM      2  C   UNL     1       0.116  -0.027  -0.286  0.00  0.00    +0.070 C 
ATOM      3  C   UNL     1      -1.348  -0.468  -0.371  0.00  0.00    +0.128 C 
ATOM      4  C   UNL     1      -1.459  -1.922   0.005  0.00  0.00    +0.257 C 
ATOM      5  O   UNL     1      -2.563  -2.611  -0.348  0.00  0.00    -0.270 OA
ATOM      6  N   UNL     1      -0.518  -2.526   0.659  0.00  0.00    -0.199 NA
ATOM      7  C   UNL     1       0.620  -1.878   1.035  0.00  0.00    +0.102 C 
ATOM      8  N   UNL     1       0.671  -0.479   1.002  0.00  0.00    -0.377 NA
ATOM      9  C   UNL     1       1.682  -2.571   1.431  0.00  0.00    +0.054 C 
ATOM     10  H   UNL     1       0.120  -0.104   1.760  0.00  0.00    +0.128 HD
ENDROOT
BRANCH   3  11
ATOM     11  C   UNL     1      -1.850  -0.275  -1.779  0.00  0.00    -0.034 A 
ATOM     12  C   UNL     1      -1.243  -0.942  -2.827  0.00  0.00    +0.004 A 
ATOM     13  C   UNL     1      -1.703  -0.764  -4.118  0.00  0.00    +0.000 A 
ATOM     14  C   UNL     1      -2.770   0.080  -4.362  0.00  0.00    +0.000 A 
ATOM     15  C   UNL     1      -3.377   0.747  -3.314  0.00  0.00    +0.000 A 
ATOM     16  C   UNL     1      -2.920   0.566  -2.022  0.00  0.00    +0.004 A 
ENDBRANCH   3  11
BRANCH   8  17
ATOM     17  C   UNL     1       2.063  -0.026   1.128  0.00  0.00    +0.091 C 
BRANCH  17  18
ATOM     18  C   UNL     1       2.861  -0.487  -0.093  0.00  0.00    +0.054 C 
BRANCH  18  19
ATOM     19  C   UNL     1       4.294  -0.043   0.047  0.00  0.00    -0.021 A 
ATOM     20  C   UNL     1       5.359  -0.747   0.766  0.00  0.00    +0.006 A 
ATOM     21  C   UNL     1       5.413  -1.940   1.491  0.00  0.00    +0.056 A 
ATOM     22  C   UNL     1       6.606  -2.337   2.062  0.00  0.00    +0.121 A 
ATOM     23  C   UNL     1       7.748  -1.553   1.919  0.00  0.00    +0.047 A 
ATOM     24  C   UNL     1       7.705  -0.375   1.207  0.00  0.00    +0.030 A 
ATOM     25  C   UNL     1       6.514   0.042   0.623  0.00  0.00    +0.047 A 
ATOM     26  N   UNL     1       6.163   1.142  -0.130  0.00  0.00    -0.360 N 
ATOM     27  C   UNL     1       4.839   1.071  -0.468  0.00  0.00    +0.087 A 
ATOM     28  H   UNL     1       6.765   1.858  -0.386  0.00  0.00    +0.165 HD
BRANCH  22  29
ATOM     29  O   UNL     1       6.665  -3.497   2.769  0.00  0.00    -0.495 OA
ATOM     30  C   UNL     1       7.930  -3.848   3.334  0.00  0.00    +0.277 C 
ENDBRANCH  22  29
ENDBRANCH  18  19
ENDBRANCH  17  18
ENDBRANCH   8  17
TORSDOF 5
