REMARK  Name = ZINC06494820
REMARK  1 active torsions:
REMARK  status: ('A' for Active; 'I' for Inactive)
REMARK    1  A    between atoms: C_6  and  C_11
REMARK                            x       y       z     vdW  Elec       q    Type
REMARK                         _______ _______ _______ _____ _____    ______ ____
ROOT
ATOM      1  C   UNL     1       1.137   1.666   0.000  0.00  0.00    +0.146 A 
ATOM      2  C   UNL     1       1.127   3.048   0.008  0.00  0.00    +0.166 A 
ATOM      3  N   UNL     1       0.002   3.737   0.022  0.00  0.00    -0.210 NA
ATOM      4  C   UNL     1      -1.166   3.111   0.030  0.00  0.00    +0.199 A 
ATOM      5  N   UNL     1      -2.455   3.492   0.045  0.00  0.00    -0.204 NA
ATOM      6  C   UNL     1      -3.209   2.413   0.046  0.00  0.00    +0.202 A 
ATOM      7  N   UNL     1      -2.476   1.308   0.033  0.00  0.00    -0.206 NA
ATOM      8  C   UNL     1      -1.193   1.643   0.017  0.00  0.00    +0.179 A 
ATOM      9  N   UNL     1      -0.011   0.966   0.007  0.00  0.00    -0.325 N 
ATOM     10  H   UNL     1       0.002  -0.004   0.002  0.00  0.00    +0.168 HD
ATOM     11 CL   UNL     1       2.639   3.902  -0.002  0.00  0.00    -0.059 Cl
ATOM     12 CL   UNL     1       2.654   0.822  -0.019  0.00  0.00    -0.061 Cl
ENDROOT
BRANCH   6  13
ATOM     13  C   UNL     1      -4.716   2.432   0.061  0.00  0.00    +0.317 C 
ATOM     14  F   UNL     1      -5.170   3.713  -0.269  0.00  0.00    -0.198 F 
ATOM     15 CL   UNL     1      -5.343   1.244  -1.142  0.00  0.00    -0.057 Cl
ATOM     16 CL   UNL     1      -5.307   1.990   1.706  0.00  0.00    -0.057 Cl
ENDBRANCH   6  13
TORSDOF 1
