REMARK  Name = ZINC08600029
REMARK  7 active torsions:
REMARK  status: ('A' for Active; 'I' for Inactive)
REMARK    1  A    between atoms: C_1  and  C_2
REMARK    2  A    between atoms: C_2  and  O_3
REMARK    3  A    between atoms: O_3  and  C_4
REMARK    4  A    between atoms: C_8  and  C_10
REMARK    5  A    between atoms: C_25  and  C_27
REMARK    6  A    between atoms: C_27  and  C_28
REMARK    7  A    between atoms: C_28  and  C_29
REMARK                            x       y       z     vdW  Elec       q    Type
REMARK                         _______ _______ _______ _____ _____    ______ ____
ROOT
ATOM      1  C   UNL     1       2.222  -4.257  -3.827  0.00  0.00    +0.153 C 
ATOM      2  C   UNL     1       1.203  -4.822  -4.790  0.00  0.00    +0.046 A 
ATOM      3  C   UNL     1       1.030  -6.144  -5.001  0.00  0.00    -0.015 A 
ATOM      4  C   UNL     1      -0.030  -6.282  -5.980  0.00  0.00    +0.003 A 
ATOM      5  C   UNL     1      -0.633  -7.394  -6.574  0.00  0.00    +0.010 A 
ATOM      6  C   UNL     1      -1.631  -7.147  -7.484  0.00  0.00    +0.001 A 
ATOM      7  C   UNL     1      -2.031  -5.860  -7.806  0.00  0.00    +0.002 A 
ATOM      8  C   UNL     1      -1.452  -4.741  -7.233  0.00  0.00    +0.026 A 
ATOM      9  C   UNL     1      -0.436  -4.962  -6.306  0.00  0.00    +0.047 A 
ATOM     10  N   UNL     1       0.331  -4.107  -5.568  0.00  0.00    -0.356 N 
ATOM     11  H   UNL     1       0.268  -3.139  -5.591  0.00  0.00    +0.166 HD
ATOM     12  C   UNL     1       1.822  -7.234  -4.324  0.00  0.00    +0.056 C 
ATOM     13  C   UNL     1       2.503  -6.654  -3.078  0.00  0.00    +0.113 C 
ATOM     14  N   UNL     1       3.113  -5.359  -3.425  0.00  0.00    -0.289 N 
ATOM     15  C   UNL     1       4.448  -5.187  -3.378  0.00  0.00    +0.216 C 
ATOM     16  O   UNL     1       4.932  -4.113  -3.668  0.00  0.00    -0.276 OA
ENDROOT
BRANCH   1  21
ATOM     17  C   UNL     1       1.117  -1.873  -1.111  0.00  0.00    +0.121 A 
ATOM     18  C   UNL     1       0.240  -2.669  -0.388  0.00  0.00    +0.045 A 
ATOM     19  C   UNL     1       0.010  -3.973  -0.779  0.00  0.00    +0.004 A 
ATOM     20  C   UNL     1       0.651  -4.485  -1.892  0.00  0.00    +0.006 A 
ATOM     21  C   UNL     1       1.525  -3.695  -2.615  0.00  0.00    -0.018 A 
ATOM     22  C   UNL     1       1.755  -2.388  -2.230  0.00  0.00    +0.051 A 
BRANCH  17  23
ATOM     23  O   UNL     1       1.345  -0.589  -0.728  0.00  0.00    -0.492 OA
BRANCH  23  25
ATOM     24  C   UNL     1       1.035   1.330   0.708  0.00  0.00    +0.048 C 
ATOM     25  C   UNL     1       0.654  -0.126   0.434  0.00  0.00    +0.225 C 
ENDBRANCH  23  25
ENDBRANCH  17  23
ENDBRANCH   1  21
BRANCH  15  26
ATOM     26  C   UNL     1       5.341  -6.328  -2.964  0.00  0.00    +0.096 C 
BRANCH  26  27
ATOM     27  C   UNL     1       6.801  -5.870  -2.994  0.00  0.00    +0.013 C 
BRANCH  27  28
ATOM     28  C   UNL     1       7.707  -7.029  -2.574  0.00  0.00    -0.011 C 
ATOM     29  C   UNL     1       7.486  -7.360  -1.084  0.00  0.00    +0.003 C 
ATOM     30  C   UNL     1       8.898  -7.723  -0.561  0.00  0.00    +0.000 C 
ATOM     31  C   UNL     1       9.809  -6.720  -1.312  0.00  0.00    +0.000 C 
ATOM     32  C   UNL     1       9.184  -6.622  -2.719  0.00  0.00    +0.003 C 
ENDBRANCH  27  28
ENDBRANCH  26  27
ENDBRANCH  15  26
TORSDOF 6
