REMARK  Name = ZINC33012197
REMARK  7 active torsions:
REMARK  status: ('A' for Active; 'I' for Inactive)
REMARK    1  A    between atoms: C_1  and  C_2
REMARK    2  A    between atoms: C_3  and  C_28
REMARK    3  A    between atoms: C_7  and  N_18
REMARK    4  A    between atoms: C_9  and  C_11
REMARK    5  A    between atoms: C_11  and  N_12
REMARK    6  A    between atoms: C_20  and  C_27
REMARK    7  A    between atoms: C_23  and  C_26
REMARK                            x       y       z     vdW  Elec       q    Type
REMARK                         _______ _______ _______ _____ _____    ______ ____
ROOT
ATOM      1  C   UNL     1      -2.741   2.766  -2.840  0.00  0.00    +0.045 C 
ATOM      2  C   UNL     1      -1.959   2.074  -3.927  0.00  0.00    -0.028 A 
ATOM      3  C   UNL     1      -2.336   2.185  -5.209  0.00  0.00    -0.008 A 
ATOM      4  S   UNL     1      -1.125   1.213  -6.085  0.00  0.00    -0.074 S 
ATOM      5  C   UNL     1      -0.145   0.684  -4.705  0.00  0.00    +0.114 A 
ATOM      6  C   UNL     1      -0.792   1.275  -3.598  0.00  0.00    +0.051 A 
ATOM      7  C   UNL     1      -0.196   1.014  -2.333  0.00  0.00    +0.133 A 
ATOM      8  N   UNL     1       0.884   0.251  -2.275  0.00  0.00    -0.215 NA
ATOM      9  C   UNL     1       1.434  -0.274  -3.354  0.00  0.00    +0.146 A 
ATOM     10  N   UNL     1       0.930  -0.064  -4.555  0.00  0.00    -0.223 NA
ATOM     11  C   UNL     1      -3.506   2.949  -5.775  0.00  0.00    +0.052 C 
ENDROOT
BRANCH   7  12
ATOM     12  N   UNL     1      -0.741   1.546  -1.179  0.00  0.00    -0.314 N 
ATOM     13  C   UNL     1      -1.186   0.483  -0.269  0.00  0.00    +0.109 C 
ATOM     14  C   UNL     1      -1.913   1.105   0.926  0.00  0.00    +0.004 C 
ATOM     15  C   UNL     1      -0.963   2.060   1.654  0.00  0.00    +0.009 C 
ATOM     16  C   UNL     1      -0.476   3.129   0.672  0.00  0.00    +0.004 C 
ATOM     17  C   UNL     1       0.209   2.449  -0.516  0.00  0.00    +0.109 C 
ATOM     18  C   UNL     1       0.520   4.053   1.375  0.00  0.00    +0.009 C 
ATOM     19  C   UNL     1      -3.137   1.878   0.434  0.00  0.00    +0.009 C 
ENDBRANCH   7  12
BRANCH   9  20
ATOM     20  C   UNL     1       2.663  -1.134  -3.212  0.00  0.00    +0.160 C 
BRANCH  20  21
ATOM     21  N   UNL     1       2.263  -2.535  -3.026  0.00  0.00    -0.291 NA
ATOM     22  C   UNL     1       1.565  -2.718  -1.745  0.00  0.00    +0.113 C 
ATOM     23  C   UNL     1       1.115  -4.176  -1.619  0.00  0.00    +0.175 C 
ATOM     24  O   UNL     1       2.252  -5.034  -1.744  0.00  0.00    -0.377 OA
ATOM     25  C   UNL     1       2.954  -4.882  -2.981  0.00  0.00    +0.175 C 
ATOM     26  C   UNL     1       3.424  -3.432  -3.120  0.00  0.00    +0.113 C 
ENDBRANCH  20  21
ENDBRANCH   9  20
TORSDOF 3
