REMARK  Name = ZINC08849501
REMARK  7 active torsions:
REMARK  status: ('A' for Active; 'I' for Inactive)
REMARK    1  A    between atoms: C_4  and  C_7
REMARK    2  A    between atoms: C_10  and  S_22
REMARK    3  A    between atoms: N_11  and  C_12
REMARK    4  A    between atoms: C_12  and  C_13
REMARK    5  A    between atoms: S_22  and  C_23
REMARK    6  A    between atoms: C_23  and  C_24
REMARK    7  A    between atoms: N_26  and  C_27
REMARK                            x       y       z     vdW  Elec       q    Type
REMARK                         _______ _______ _______ _____ _____    ______ ____
ROOT
ATOM      1  C   UNL     1       0.127  -3.109  -2.141  0.00  0.00    +0.165 A 
ATOM      2  N   UNL     1       0.608  -3.683  -3.219  0.00  0.00    -0.128 NA
ATOM      3  N   UNL     1       1.873  -3.473  -3.301  0.00  0.00    -0.122 NA
ATOM      4  C   UNL     1       2.276  -2.746  -2.283  0.00  0.00    +0.193 A 
ATOM      5  N   UNL     1       1.180  -2.485  -1.512  0.00  0.00    -0.298 N 
ENDROOT
BRANCH   1   9
ATOM      6  C   UNL     1      -3.918  -3.155  -0.845  0.00  0.00    +0.000 A 
ATOM      7  C   UNL     1      -3.628  -3.129  -2.197  0.00  0.00    +0.001 A 
ATOM      8  C   UNL     1      -2.317  -3.113  -2.625  0.00  0.00    +0.011 A 
ATOM      9  C   UNL     1      -1.281  -3.125  -1.690  0.00  0.00    +0.019 A 
ATOM     10  C   UNL     1      -1.580  -3.157  -0.327  0.00  0.00    +0.011 A 
ATOM     11  C   UNL     1      -2.896  -3.166   0.088  0.00  0.00    +0.001 A 
ENDBRANCH   1   9
BRANCH   5  12
ATOM     12  C   UNL     1       1.135  -1.709  -0.270  0.00  0.00    +0.161 C 
BRANCH  12  13
ATOM     13  C   UNL     1       0.920  -0.254  -0.595  0.00  0.00    -0.024 A 
ATOM     14  C   UNL     1       2.007   0.575  -0.802  0.00  0.00    +0.009 A 
ATOM     15  C   UNL     1       1.815   1.911  -1.101  0.00  0.00    +0.050 A 
ATOM     16  C   UNL     1       0.531   2.423  -1.193  0.00  0.00    +0.166 A 
ATOM     17  C   UNL     1      -0.564   1.589  -0.983  0.00  0.00    +0.167 A 
ATOM     18  C   UNL     1      -0.364   0.251  -0.684  0.00  0.00    +0.055 A 
ATOM     19  O   UNL     1      -1.706   2.321  -1.133  0.00  0.00    -0.453 OA
ATOM     20  C   UNL     1      -1.294   3.698  -1.024  0.00  0.00    +0.466 C 
ATOM     21  O   UNL     1       0.076   3.680  -1.468  0.00  0.00    -0.453 OA
ENDBRANCH  12  13
ENDBRANCH   5  12
BRANCH   4  22
ATOM     22  S   UNL     1       3.925  -2.208  -1.972  0.00  0.00    -0.077 S 
BRANCH  22  23
ATOM     23  C   UNL     1       4.768  -2.935  -3.399  0.00  0.00    +0.173 C 
BRANCH  23  24
ATOM     24  C   UNL     1       6.235  -2.595  -3.343  0.00  0.00    +0.227 C 
ATOM     25  O   UNL     1       6.668  -1.927  -2.428  0.00  0.00    -0.275 OA
ATOM     26  N   UNL     1       7.066  -3.034  -4.309  0.00  0.00    -0.285 N 
ATOM     27  H   UNL     1       6.709  -3.505  -5.078  0.00  0.00    +0.155 HD
BRANCH  26  28
ATOM     28  C   UNL     1       8.444  -2.809  -4.203  0.00  0.00    +0.036 A 
ATOM     29  C   UNL     1       9.202  -2.587  -5.345  0.00  0.00    +0.026 A 
ATOM     30  C   UNL     1      10.560  -2.360  -5.239  0.00  0.00    +0.043 A 
ATOM     31  C   UNL     1      11.169  -2.365  -3.996  0.00  0.00    +0.159 A 
ATOM     32  C   UNL     1      10.416  -2.592  -2.854  0.00  0.00    +0.160 A 
ATOM     33  C   UNL     1       9.054  -2.814  -2.956  0.00  0.00    +0.064 A 
ATOM     34  F   UNL     1      11.011  -2.596  -1.641  0.00  0.00    -0.202 F 
ATOM     35  F   UNL     1      12.499  -2.148  -3.895  0.00  0.00    -0.202 F 
ENDBRANCH  26  28
ENDBRANCH  23  24
ENDBRANCH  22  23
ENDBRANCH   4  22
TORSDOF 7
