REMARK  Name = ZINC15969446
REMARK  6 active torsions:
REMARK  status: ('A' for Active; 'I' for Inactive)
REMARK    1  A    between atoms: C_1  and  C_2
REMARK    2  A    between atoms: C_13  and  C_16
REMARK    3  A    between atoms: C_16  and  C_17
REMARK    4  A    between atoms: N_22  and  C_25
REMARK    5  A    between atoms: C_25  and  C_26
REMARK    6  A    between atoms: C_26  and  C_27
REMARK                            x       y       z     vdW  Elec       q    Type
REMARK                         _______ _______ _______ _____ _____    ______ ____
ROOT
ATOM      1  C   UNL     1      -0.018   1.503   0.010  0.00  0.00    +0.044 C 
ATOM      2  C   UNL     1       0.002  -0.004   0.002  0.00  0.00    -0.050 A 
ATOM      3  C   UNL     1       0.006  -0.691  -1.199  0.00  0.00    +0.005 A 
ATOM      4  C   UNL     1       0.025  -2.070  -1.212  0.00  0.00    +0.024 A 
ATOM      5  C   UNL     1       0.042  -2.782  -0.015  0.00  0.00    +0.039 A 
ATOM      6  C   UNL     1       0.035  -2.081   1.187  0.00  0.00    +0.004 A 
ATOM      7  C   UNL     1       0.023  -0.704   1.195  0.00  0.00    +0.011 A 
ATOM      8  C   UNL     1       0.049  -3.122   2.270  0.00  0.00    +0.136 C 
ATOM      9  C   UNL     1       1.267  -2.968   3.188  0.00  0.00    +0.122 C 
ATOM     10  C   UNL     1       0.745  -3.357   4.599  0.00  0.00    +0.107 C 
ATOM     11  C   UNL     1      -0.743  -3.709   4.388  0.00  0.00    +0.076 C 
ATOM     12  N   UNL     1      -1.134  -3.008   3.143  0.00  0.00    -0.295 NA
ATOM     13  C   UNL     1       1.525  -4.610   4.926  0.00  0.00    +0.227 C 
ATOM     14  O   UNL     1       1.424  -5.251   5.950  0.00  0.00    -0.275 OA
ATOM     15  N   UNL     1       2.342  -4.903   3.908  0.00  0.00    -0.241 N 
ATOM     16  C   UNL     1       2.286  -4.038   2.870  0.00  0.00    +0.228 C 
ATOM     17  O   UNL     1       2.938  -4.104   1.850  0.00  0.00    -0.275 OA
ATOM     18  C   UNL     1       0.069  -4.440   1.545  0.00  0.00    +0.243 C 
ATOM     19  O   UNL     1       0.087  -5.543   2.048  0.00  0.00    -0.273 OA
ATOM     20  N   UNL     1       0.064  -4.157   0.228  0.00  0.00    -0.283 N 
ATOM     21  H   UNL     1      -1.349  -2.042   3.337  0.00  0.00    +0.124 HD
ATOM     22  H   UNL     1       0.074  -4.830  -0.470  0.00  0.00    +0.155 HD
ENDROOT
BRANCH  11  23
ATOM     23  C   UNL     1      -1.579  -3.229   5.576  0.00  0.00    +0.115 C 
BRANCH  23  24
ATOM     24  C   UNL     1      -3.003  -3.690   5.407  0.00  0.00    +0.212 C 
ATOM     25  O   UNL     1      -3.320  -4.339   4.433  0.00  0.00    -0.276 OA
ATOM     26  N   UNL     1      -3.926  -3.381   6.340  0.00  0.00    -0.329 N 
ATOM     27  H   UNL     1      -3.674  -2.862   7.119  0.00  0.00    +0.145 HD
ATOM     28  H   UNL     1      -4.843  -3.678   6.231  0.00  0.00    +0.145 HD
ENDBRANCH  23  24
ENDBRANCH  11  23
BRANCH  15  29
ATOM     29  C   UNL     1       3.234  -6.066   3.917  0.00  0.00    +0.121 C 
BRANCH  29  30
ATOM     30  C   UNL     1       2.507  -7.271   3.317  0.00  0.00    +0.054 C 
BRANCH  30  31
ATOM     31  C   UNL     1       3.424  -8.466   3.327  0.00  0.00    -0.046 A 
ATOM     32  C   UNL     1       4.250  -8.713   2.246  0.00  0.00    +0.004 A 
ATOM     33  C   UNL     1       5.092  -9.809   2.255  0.00  0.00    +0.000 A 
ATOM     34  C   UNL     1       5.107 -10.660   3.345  0.00  0.00    +0.000 A 
ATOM     35  C   UNL     1       4.282 -10.413   4.426  0.00  0.00    +0.000 A 
ATOM     36  C   UNL     1       3.443  -9.314   4.419  0.00  0.00    +0.004 A 
ENDBRANCH  30  31
ENDBRANCH  29  30
ENDBRANCH  15  29
TORSDOF 5
