REMARK  Name = ZINC20506932
REMARK  8 active torsions:
REMARK  status: ('A' for Active; 'I' for Inactive)
REMARK    1  A    between atoms: C_1  and  C_2
REMARK    2  A    between atoms: C_2  and  O_3
REMARK    3  A    between atoms: O_3  and  C_4
REMARK    4  A    between atoms: C_9  and  O_10
REMARK    5  A    between atoms: O_10  and  C_11
REMARK    6  A    between atoms: C_11  and  C_12
REMARK    7  A    between atoms: C_13  and  C_18
REMARK    8  A    between atoms: C_21  and  C_24
REMARK                            x       y       z     vdW  Elec       q    Type
REMARK                         _______ _______ _______ _____ _____    ______ ____
ROOT
ATOM      1  C   UNL     1      -1.986   2.464  -3.533  0.00  0.00    +0.162 A 
ATOM      2  C   UNL     1      -2.655   2.486  -2.322  0.00  0.00    +0.053 A 
ATOM      3  C   UNL     1      -2.028   2.046  -1.166  0.00  0.00    -0.037 A 
ATOM      4  C   UNL     1      -0.732   1.580  -1.220  0.00  0.00    -0.019 A 
ATOM      5  C   UNL     1      -0.056   1.558  -2.432  0.00  0.00    +0.055 A 
ATOM      6  C   UNL     1      -0.676   1.998  -3.588  0.00  0.00    +0.162 A 
ATOM      7  C   UNL     1      -0.013   1.086   0.008  0.00  0.00    +0.115 C 
ATOM      8  N   UNL     1      -0.689   1.554   1.222  0.00  0.00    -0.305 NA
ATOM      9  C   UNL     1      -2.119   1.209   1.174  0.00  0.00    +0.086 C 
ATOM     10  C   UNL     1      -2.796   2.097   0.130  0.00  0.00    +0.050 C 
ATOM     11  H   UNL     1      -0.234   1.077   2.102  0.00  0.00    +0.123 HD
ENDROOT
BRANCH   7  12
ATOM     12  C   UNL     1       1.403   1.602  -0.003  0.00  0.00    -0.026 A 
ATOM     13  C   UNL     1       1.667   2.897   0.406  0.00  0.00    +0.006 A 
ATOM     14  C   UNL     1       2.962   3.374   0.403  0.00  0.00    +0.009 A 
ATOM     15  C   UNL     1       4.003   2.551  -0.023  0.00  0.00    -0.018 A 
ATOM     16  C   UNL     1       3.731   1.250  -0.440  0.00  0.00    +0.009 A 
ATOM     17  C   UNL     1       2.433   0.782  -0.427  0.00  0.00    +0.006 A 
BRANCH  15  18
ATOM     18  C   UNL     1       5.397   3.061  -0.035  0.00  0.00    -0.018 A 
ATOM     19  C   UNL     1       6.439   2.237  -0.456  0.00  0.00    +0.008 A 
ATOM     20  C   UNL     1       7.733   2.717  -0.470  0.00  0.00    +0.001 A 
ATOM     21  C   UNL     1       7.998   4.010  -0.055  0.00  0.00    +0.000 A 
ATOM     22  C   UNL     1       6.968   4.830   0.369  0.00  0.00    +0.001 A 
ATOM     23  C   UNL     1       5.670   4.362   0.381  0.00  0.00    +0.008 A 
ENDBRANCH  15  18
ENDBRANCH   7  12
BRANCH   1  24
ATOM     24  O   UNL     1      -2.606   2.897  -4.663  0.00  0.00    -0.489 OA
BRANCH  24  26
ATOM     25  C   UNL     1      -4.476   3.804  -5.897  0.00  0.00    +0.048 C 
ATOM     26  C   UNL     1      -3.950   3.362  -4.529  0.00  0.00    +0.226 C 
ENDBRANCH  24  26
ENDBRANCH   1  24
BRANCH   6  27
ATOM     27  O   UNL     1      -0.009   1.975  -4.772  0.00  0.00    -0.489 OA
BRANCH  27  28
ATOM     28  C   UNL     1       1.333   1.483  -4.752  0.00  0.00    +0.226 C 
ATOM     29  C   UNL     1       1.916   1.532  -6.165  0.00  0.00    +0.048 C 
ENDBRANCH  27  28
ENDBRANCH   6  27
TORSDOF 6
