REMARK  Name = ZINC24037986
REMARK  5 active torsions:
REMARK  status: ('A' for Active; 'I' for Inactive)
REMARK    1  A    between atoms: C_1  and  C_2
REMARK    2  A    between atoms: C_3  and  C_25
REMARK    3  A    between atoms: N_9  and  N_12
REMARK    4  A    between atoms: C_13  and  C_14
REMARK    5  A    between atoms: C_15  and  C_24
REMARK                            x       y       z     vdW  Elec       q    Type
REMARK                         _______ _______ _______ _____ _____    ______ ____
ROOT
ATOM      1  N   UNL     1       2.904   4.070  -0.003  0.00  0.00    -0.170 NA
ATOM      2  C   UNL     1       1.614   4.236   0.003  0.00  0.00    +0.143 C 
ENDROOT
BRANCH   1  11
ATOM      3  C   UNL     1       8.194   4.910  -0.503  0.00  0.00    +0.045 C 
ATOM      4  C   UNL     1       7.384   6.180  -0.465  0.00  0.00    -0.026 A 
ATOM      5  C   UNL     1       7.989   7.375  -0.553  0.00  0.00    -0.008 A 
ATOM      6  S   UNL     1       6.636   8.532  -0.463  0.00  0.00    -0.073 S 
ATOM      7  C   UNL     1       5.297   7.378  -0.310  0.00  0.00    +0.116 A 
ATOM      8  C   UNL     1       5.939   6.126  -0.333  0.00  0.00    +0.077 A 
ATOM      9  C   UNL     1       5.079   4.986  -0.224  0.00  0.00    +0.283 A 
ATOM     10  O   UNL     1       5.542   3.858  -0.235  0.00  0.00    -0.265 OA
ATOM     11  N   UNL     1       3.752   5.179  -0.110  0.00  0.00    -0.185 N 
ATOM     12  C   UNL     1       3.219   6.429  -0.102  0.00  0.00    +0.227 A 
ATOM     13  N   UNL     1       3.978   7.489  -0.194  0.00  0.00    -0.228 NA
ATOM     14  C   UNL     1       9.461   7.668  -0.695  0.00  0.00    +0.052 C 
ENDBRANCH   1  11
BRANCH   2  15
ATOM     15  C   UNL     1       0.722   3.067   0.004  0.00  0.00    +0.023 A 
ATOM     16  C   UNL     1       1.096   1.758  -0.002  0.00  0.00    +0.023 A 
ATOM     17  N   UNL     1      -0.010   0.965   0.001  0.00  0.00    -0.358 N 
ATOM     18  H   UNL     1       0.099  -0.130   0.002  0.00  0.00    +0.166 HD
ATOM     19  C   UNL     1      -1.153   1.736   0.003  0.00  0.00    +0.047 A 
ATOM     20  C   UNL     1      -0.752   3.083   0.011  0.00  0.00    +0.009 A 
ATOM     21  C   UNL     1      -1.708   4.096   0.018  0.00  0.00    +0.010 A 
ATOM     22  C   UNL     1      -3.046   3.770   0.006  0.00  0.00    +0.001 A 
ATOM     23  C   UNL     1      -3.444   2.441   0.002  0.00  0.00    +0.002 A 
ATOM     24  C   UNL     1      -2.509   1.429   0.000  0.00  0.00    +0.026 A 
ATOM     25  C   UNL     1       2.519   1.262  -0.009  0.00  0.00    +0.064 C 
ENDBRANCH   2  15
TORSDOF 2
