REMARK  Name = ZINC35423512
REMARK  7 active torsions:
REMARK  status: ('A' for Active; 'I' for Inactive)
REMARK    1  A    between atoms: C_1  and  C_2
REMARK    2  A    between atoms: N_14  and  C_17
REMARK    3  A    between atoms: C_17  and  C_18
REMARK    4  A    between atoms: N_20  and  C_21
REMARK    5  A    between atoms: C_21  and  C_22
REMARK    6  A    between atoms: N_25  and  C_28
REMARK    7  A    between atoms: C_28  and  C_29
REMARK                            x       y       z     vdW  Elec       q    Type
REMARK                         _______ _______ _______ _____ _____    ______ ____
ROOT
ATOM      1  C   UNL     1       1.540  -6.943   4.885  0.00  0.00    +0.233 C 
ATOM      2  O   UNL     1       2.451  -6.291   4.420  0.00  0.00    -0.274 OA
ATOM      3  N   UNL     1       1.804  -8.015   5.658  0.00  0.00    -0.314 N 
ATOM      4  H   UNL     1       1.075  -8.536   6.030  0.00  0.00    +0.149 HD
ENDROOT
BRANCH   1   5
ATOM      5  C   UNL     1       0.112  -6.553   4.598  0.00  0.00    +0.222 C 
BRANCH   5  19
ATOM      6  C   UNL     1      -0.018   1.503   0.010  0.00  0.00    +0.044 C 
ATOM      7  C   UNL     1       0.002  -0.004   0.002  0.00  0.00    -0.050 A 
ATOM      8  C   UNL     1       0.006  -0.686  -1.207  0.00  0.00    +0.005 A 
ATOM      9  C   UNL     1       0.024  -2.063  -1.235  0.00  0.00    +0.026 A 
ATOM     10  C   UNL     1       0.040  -2.781  -0.041  0.00  0.00    +0.049 A 
ATOM     11  C   UNL     1       0.037  -2.084   1.180  0.00  0.00    +0.026 A 
ATOM     12  C   UNL     1       0.023  -0.689   1.184  0.00  0.00    +0.015 A 
ATOM     13  C   UNL     1       0.055  -3.101   2.240  0.00  0.00    +0.103 A 
ATOM     14  C   UNL     1       0.069  -4.338   1.600  0.00  0.00    +0.131 A 
ATOM     15  N   UNL     1       0.059  -4.132   0.234  0.00  0.00    -0.349 N 
ATOM     16  H   UNL     1       0.066  -4.835  -0.434  0.00  0.00    +0.166 HD
ATOM     17  C   UNL     1       0.088  -5.505   2.399  0.00  0.00    +0.278 A 
ATOM     18  O   UNL     1       0.101  -6.612   1.887  0.00  0.00    -0.265 OA
ATOM     19  N   UNL     1       0.093  -5.365   3.742  0.00  0.00    -0.289 N 
ATOM     20  C   UNL     1       0.079  -4.130   4.304  0.00  0.00    +0.203 A 
ATOM     21  N   UNL     1       0.061  -3.045   3.583  0.00  0.00    -0.235 NA
ENDBRANCH   5  19
ENDBRANCH   1   5
BRANCH   3  22
ATOM     22  C   UNL     1       3.191  -8.393   5.936  0.00  0.00    +0.107 C 
BRANCH  22  23
ATOM     23  C   UNL     1       3.211  -9.635   6.830  0.00  0.00    +0.003 C 
ATOM     24  C   UNL     1       2.613  -9.291   8.197  0.00  0.00    -0.014 C 
ATOM     25  C   UNL     1       2.709 -10.514   9.112  0.00  0.00    -0.078 C 
ATOM     26  N   UNL     1       4.116 -10.899   9.275  0.00  0.00    +0.382 N 
ATOM     27  C   UNL     1       4.677 -11.298   7.979  0.00  0.00    -0.078 C 
ATOM     28  C   UNL     1       4.656 -10.105   7.021  0.00  0.00    -0.014 C 
ATOM     29  H   UNL     1       4.637 -10.115   9.639  0.00  0.00    -0.081 HD
BRANCH  26  30
ATOM     30  C   UNL     1       4.209 -12.024  10.215  0.00  0.00    -0.040 C 
BRANCH  30  31
ATOM     31  C   UNL     1       5.659 -12.340  10.478  0.00  0.00    -0.029 A 
ATOM     32  C   UNL     1       6.268 -13.390   9.818  0.00  0.00    +0.004 A 
ATOM     33  C   UNL     1       7.598 -13.680  10.059  0.00  0.00    +0.000 A 
ATOM     34  C   UNL     1       8.320 -12.920  10.961  0.00  0.00    +0.003 A 
ATOM     35  C   UNL     1       7.713 -11.870  11.622  0.00  0.00    +0.038 A 
ATOM     36  C   UNL     1       6.382 -11.575  11.377  0.00  0.00    +0.125 A 
ATOM     37  F   UNL     1       5.789 -10.544  12.019  0.00  0.00    -0.205 F 
ENDBRANCH  30  31
ENDBRANCH  26  30
ENDBRANCH  22  23
ENDBRANCH   3  22
TORSDOF 6
