REMARK  Name = ZINC20111542
REMARK  4 active torsions:
REMARK  status: ('A' for Active; 'I' for Inactive)
REMARK    1  A    between atoms: C_11  and  C_16
REMARK    2  A    between atoms: C_21  and  O_22
REMARK    3  A    between atoms: O_22  and  C_23
REMARK    4  A    between atoms: C_23  and  C_24
REMARK                            x       y       z     vdW  Elec       q    Type
REMARK                         _______ _______ _______ _____ _____    ______ ____
ROOT
ATOM      1  C   UNL     1       6.178  -1.596   5.412  0.00  0.00    +0.001 A 
ATOM      2  C   UNL     1       5.851  -0.263   5.596  0.00  0.00    +0.002 A 
ATOM      3  C   UNL     1       5.227   0.487   4.613  0.00  0.00    +0.026 A 
ATOM      4  C   UNL     1       4.938  -0.160   3.413  0.00  0.00    +0.047 A 
ATOM      5  C   UNL     1       5.277  -1.526   3.230  0.00  0.00    +0.003 A 
ATOM      6  C   UNL     1       5.906  -2.260   4.241  0.00  0.00    +0.010 A 
ATOM      7  C   UNL     1       4.841  -1.868   1.895  0.00  0.00    -0.016 A 
ATOM      8  C   UNL     1       4.287  -0.756   1.358  0.00  0.00    +0.042 A 
ATOM      9  N   UNL     1       4.342   0.270   2.262  0.00  0.00    -0.356 N 
ATOM     10  H   UNL     1       3.994   1.310   2.178  0.00  0.00    +0.166 HD
ATOM     11  C   UNL     1       3.711  -0.715  -0.037  0.00  0.00    +0.135 C 
ATOM     12  N   UNL     1       3.495  -2.098  -0.494  0.00  0.00    -0.304 NA
ATOM     13  C   UNL     1       4.708  -2.912  -0.330  0.00  0.00    +0.086 C 
ATOM     14  C   UNL     1       4.945  -3.182   1.162  0.00  0.00    +0.052 C 
ATOM     15  H   UNL     1       2.686  -2.556   0.094  0.00  0.00    +0.123 HD
ENDROOT
BRANCH  11  16
ATOM     16  C   UNL     1       2.397   0.023  -0.020  0.00  0.00    +0.018 A 
ATOM     17  C   UNL     1       1.214  -0.674   0.131  0.00  0.00    +0.024 A 
ATOM     18  C   UNL     1       0.008   0.003   0.146  0.00  0.00    +0.018 A 
ATOM     19  C   UNL     1      -0.017   1.379   0.010  0.00  0.00    +0.019 A 
ATOM     20  C   UNL     1       1.164   2.080  -0.142  0.00  0.00    +0.047 A 
ATOM     21  C   UNL     1       2.374   1.403  -0.158  0.00  0.00    +0.126 A 
ATOM     22 BR   UNL     1      -1.610  -0.954   0.353  0.00  0.00    -0.050 Br
BRANCH  21  23
ATOM     23  O   UNL     1       3.537   2.091  -0.306  0.00  0.00    -0.486 OA
BRANCH  23  24
ATOM     24  C   UNL     1       3.439   3.510  -0.442  0.00  0.00    +0.284 C 
BRANCH  24  25
ATOM     25  C   UNL     1       4.818   4.097  -0.596  0.00  0.00    +0.078 A 
ATOM     26  C   UNL     1       5.920   3.263  -0.587  0.00  0.00    +0.027 A 
ATOM     27  C   UNL     1       7.185   3.813  -0.730  0.00  0.00    +0.003 A 
ATOM     28  C   UNL     1       7.294   5.188  -0.876  0.00  0.00    +0.020 A 
ATOM     29  C   UNL     1       6.147   5.958  -0.875  0.00  0.00    +0.111 A 
ATOM     30  N   UNL     1       4.959   5.400  -0.742  0.00  0.00    -0.256 NA
ENDBRANCH  24  25
ENDBRANCH  23  24
ENDBRANCH  21  23
ENDBRANCH  11  16
TORSDOF 4
