REMARK  Name = ZINC19770774
REMARK  5 active torsions:
REMARK  status: ('A' for Active; 'I' for Inactive)
REMARK    1  A    between atoms: C_1  and  C_2
REMARK    2  A    between atoms: C_2  and  O_3
REMARK    3  A    between atoms: O_3  and  C_4
REMARK    4  A    between atoms: C_9  and  C_10
REMARK    5  A    between atoms: N_19  and  C_22
REMARK                            x       y       z     vdW  Elec       q    Type
REMARK                         _______ _______ _______ _____ _____    ______ ____
ROOT
ATOM      1  C   UNL     1      -2.513   0.979   0.019  0.00  0.00    +0.194 C 
ATOM      2  N   UNL     1      -2.276  -0.365  -0.539  0.00  0.00    -0.316 N 
ATOM      3  C   UNL     1      -2.279  -0.473  -1.906  0.00  0.00    +0.080 A 
ATOM      4  C   UNL     1      -2.941   0.440  -2.742  0.00  0.00    +0.068 A 
ATOM      5  C   UNL     1      -2.856   0.168  -4.166  0.00  0.00    -0.027 A 
ATOM      6  C   UNL     1      -2.140  -0.927  -4.512  0.00  0.00    -0.021 A 
ATOM      7  S   UNL     1      -1.579  -1.611  -2.977  0.00  0.00    -0.080 S 
ATOM      8  C   UNL     1      -1.896  -1.428  -5.901  0.00  0.00    -0.036 C 
ATOM      9  N   UNL     1      -2.845  -0.755  -6.808  0.00  0.00    +0.381 N 
ATOM     10  C   UNL     1      -2.838   0.697  -6.584  0.00  0.00    -0.074 C 
ATOM     11  C   UNL     1      -3.506   1.026  -5.246  0.00  0.00    +0.018 C 
ATOM     12  C   UNL     1      -2.548  -1.073  -8.211  0.00  0.00    -0.096 C 
ATOM     13  C   UNL     1      -3.657   1.564  -2.096  0.00  0.00    +0.248 C 
ATOM     14  O   UNL     1      -4.354   2.325  -2.741  0.00  0.00    -0.270 OA
ATOM     15  N   UNL     1      -3.506   1.709  -0.763  0.00  0.00    -0.289 N 
ATOM     16  H   UNL     1      -2.108  -1.219   0.134  0.00  0.00    +0.149 HD
ATOM     17  H   UNL     1      -4.181   2.422  -0.267  0.00  0.00    +0.151 HD
ATOM     18  H   UNL     1      -3.857  -1.128  -6.589  0.00  0.00    -0.082 HD
ENDROOT
BRANCH   1  24
ATOM     19  C   UNL     1      -1.237   3.137   0.031  0.00  0.00    +0.127 A 
ATOM     20  C   UNL     1      -0.043   3.844   0.023  0.00  0.00    +0.046 A 
ATOM     21  C   UNL     1       1.160   3.166   0.007  0.00  0.00    +0.004 A 
ATOM     22  C   UNL     1       1.175   1.783   0.000  0.00  0.00    +0.001 A 
ATOM     23  C   UNL     1      -0.013   1.076   0.008  0.00  0.00    +0.011 A 
ATOM     24  C   UNL     1      -1.219   1.750   0.017  0.00  0.00    +0.032 A 
BRANCH  19  25
ATOM     25  O   UNL     1      -2.422   3.802   0.047  0.00  0.00    -0.492 OA
BRANCH  25  27
ATOM     26  C   UNL     1      -3.785   5.797   0.072  0.00  0.00    +0.048 C 
ATOM     27  C   UNL     1      -2.364   5.230   0.054  0.00  0.00    +0.225 C 
ENDBRANCH  25  27
ENDBRANCH  19  25
ENDBRANCH   1  24
TORSDOF 3
