REMARK  Name = ZINC36206418
REMARK  11 active torsions:
REMARK  status: ('A' for Active; 'I' for Inactive)
REMARK    1  A    between atoms: C_1  and  C_2
REMARK    2  A    between atoms: C_2  and  O_3
REMARK    3  A    between atoms: O_3  and  C_4
REMARK    4  A    between atoms: C_4  and  C_5
REMARK    5  A    between atoms: C_5  and  C_7
REMARK    6  A    between atoms: C_5  and  O_34
REMARK    7  A    between atoms: C_7  and  N_8
REMARK    8  A    between atoms: N_8  and  C_9
REMARK    9  A    between atoms: N_8  and  C_28
REMARK   10  A    between atoms: C_9  and  C_10
REMARK   11  A    between atoms: C_16  and  C_21
REMARK                            x       y       z     vdW  Elec       q    Type
REMARK                         _______ _______ _______ _____ _____    ______ ____
ROOT
ATOM      1  C   UNL     1      -6.014  -6.096   0.098  0.00  0.00    +0.094 A 
ATOM      2  N   UNL     1      -6.385  -7.397   0.210  0.00  0.00    -0.312 N 
ATOM      3  H   UNL     1      -5.715  -8.065   0.427  0.00  0.00    +0.170 HD
ATOM      4  C   UNL     1      -7.662  -7.779   0.026  0.00  0.00    +0.260 A 
ATOM      5  O   UNL     1      -7.979  -8.951   0.130  0.00  0.00    -0.267 OA
ATOM      6  C   UNL     1      -8.643  -6.787  -0.294  0.00  0.00    +0.080 A 
ATOM      7  C   UNL     1     -10.072  -6.947  -0.537  0.00  0.00    +0.004 A 
ATOM      8  C   UNL     1     -10.811  -5.849  -0.826  0.00  0.00    +0.056 A 
ATOM      9  S   UNL     1      -9.616  -4.526  -0.788  0.00  0.00    -0.076 S 
ATOM     10  C   UNL     1      -8.167  -5.469  -0.389  0.00  0.00    +0.116 A 
ATOM     11  N   UNL     1      -6.887  -5.167  -0.188  0.00  0.00    -0.229 NA
ENDROOT
BRANCH   7  12
ATOM     12  C   UNL     1     -10.704  -8.286  -0.469  0.00  0.00    -0.015 A 
ATOM     13  C   UNL     1     -10.145  -9.360  -1.161  0.00  0.00    +0.008 A 
ATOM     14  C   UNL     1     -10.738 -10.604  -1.095  0.00  0.00    +0.002 A 
ATOM     15  C   UNL     1     -11.884 -10.788  -0.343  0.00  0.00    +0.020 A 
ATOM     16  C   UNL     1     -12.444  -9.726   0.347  0.00  0.00    +0.042 A 
ATOM     17  C   UNL     1     -11.856  -8.478   0.292  0.00  0.00    +0.028 A 
ATOM     18 CL   UNL     1     -13.883  -9.966   1.287  0.00  0.00    -0.084 Cl
ENDBRANCH   7  12
BRANCH   1  19
ATOM     19  C   UNL     1      -4.572  -5.715   0.313  0.00  0.00    -0.003 C 
BRANCH  19  20
ATOM     20  N   UNL     1      -4.448  -4.251   0.324  0.00  0.00    +0.388 N 
ATOM     21  H   UNL     1      -5.062  -3.857  -0.372  0.00  0.00    -0.081 HD
BRANCH  20  22
ATOM     22  C   UNL     1      -4.818  -3.739   1.650  0.00  0.00    -0.068 C 
ATOM     23  C   UNL     1      -6.279  -4.086   1.942  0.00  0.00    -0.015 C 
ATOM     24  C   UNL     1      -6.665  -3.553   3.323  0.00  0.00    -0.002 C 
ATOM     25  C   UNL     1      -5.767  -4.191   4.385  0.00  0.00    -0.000 C 
ATOM     26  C   UNL     1      -4.306  -3.843   4.093  0.00  0.00    -0.002 C 
ATOM     27  C   UNL     1      -3.920  -4.377   2.712  0.00  0.00    -0.015 C 
ENDBRANCH  20  22
BRANCH  20  28
ATOM     28  C   UNL     1      -3.061  -3.875   0.024  0.00  0.00    -0.044 C 
BRANCH  28  29
ATOM     29  C   UNL     1      -2.961  -2.353  -0.102  0.00  0.00    +0.124 C 
BRANCH  29  30
ATOM     30  O   UNL     1      -3.739  -1.915  -1.218  0.00  0.00    -0.391 OA
ATOM     31  H   UNL     1      -3.460  -2.291  -2.064  0.00  0.00    +0.210 HD
ENDBRANCH  29  30
BRANCH  29  32
ATOM     32  C   UNL     1      -1.499  -1.954  -0.312  0.00  0.00    +0.189 C 
BRANCH  32  33
ATOM     33  O   UNL     1      -1.390  -0.529  -0.314  0.00  0.00    -0.378 OA
BRANCH  33  35
ATOM     34  C   UNL     1      -0.061   1.482  -0.487  0.00  0.00    +0.034 C 
ATOM     35  C   UNL     1      -0.058  -0.048  -0.504  0.00  0.00    +0.156 C 
ENDBRANCH  33  35
ENDBRANCH  32  33
ENDBRANCH  29  32
ENDBRANCH  28  29
ENDBRANCH  20  28
ENDBRANCH  19  20
ENDBRANCH   1  19
TORSDOF 10
