REMARK  Name = ZINC01784820
REMARK  6 active torsions:
REMARK  status: ('A' for Active; 'I' for Inactive)
REMARK    1  A    between atoms: C_1  and  C_2
REMARK    2  A    between atoms: N_13  and  C_16
REMARK    3  A    between atoms: C_16  and  C_17
REMARK    4  A    between atoms: N_19  and  C_20
REMARK    5  A    between atoms: C_21  and  C_31
REMARK    6  A    between atoms: C_23  and  C_25
REMARK                            x       y       z     vdW  Elec       q    Type
REMARK                         _______ _______ _______ _____ _____    ______ ____
ROOT
ATOM      1  C   UNL     1      -5.200   3.340   0.046  0.00  0.00    +0.239 C 
ATOM      2  O   UNL     1      -6.122   2.552   0.045  0.00  0.00    -0.273 OA
ATOM      3  N   UNL     1      -3.929   2.890   0.037  0.00  0.00    -0.278 N 
ATOM      4  H   UNL     1      -3.192   3.520   0.038  0.00  0.00    +0.155 HD
ENDROOT
BRANCH   3   5
ATOM      5  C   UNL     1      -3.677   1.528   0.028  0.00  0.00    +0.084 A 
ATOM      6  C   UNL     1      -2.448   0.873   0.018  0.00  0.00    +0.066 A 
ATOM      7  C   UNL     1      -2.457  -0.522   0.005  0.00  0.00    +0.031 A 
ATOM      8  C   UNL     1      -3.667  -1.146   0.012  0.00  0.00    +0.022 A 
ATOM      9  S   UNL     1      -4.813   0.219   0.025  0.00  0.00    -0.073 S 
BRANCH   8  10
ATOM     10  C   UNL     1      -3.957  -2.595   0.005  0.00  0.00    -0.011 A 
ATOM     11  C   UNL     1      -2.912  -3.519  -0.010  0.00  0.00    +0.009 A 
ATOM     12  C   UNL     1      -3.190  -4.871  -0.011  0.00  0.00    +0.001 A 
ATOM     13  C   UNL     1      -4.502  -5.310  -0.009  0.00  0.00    +0.000 A 
ATOM     14  C   UNL     1      -5.543  -4.399   0.001  0.00  0.00    +0.001 A 
ATOM     15  C   UNL     1      -5.279  -3.045   0.008  0.00  0.00    +0.009 A 
ENDBRANCH   8  10
BRANCH   6  16
ATOM     16  C   UNL     1      -1.187   1.624   0.017  0.00  0.00    +0.244 C 
ATOM     17  O   UNL     1      -1.204   2.841   0.023  0.00  0.00    -0.270 OA
ATOM     18  N   UNL     1      -0.011   0.966   0.007  0.00  0.00    -0.325 N 
ATOM     19  H   UNL     1       0.002  -0.004   0.002  0.00  0.00    +0.145 HD
ATOM     20  H   UNL     1       0.822   1.462   0.002  0.00  0.00    +0.145 HD
ENDBRANCH   6  16
ENDBRANCH   3   5
BRANCH   1  21
ATOM     21  C   UNL     1      -5.474   4.822   0.056  0.00  0.00    +0.245 C 
BRANCH  21  33
ATOM     22  C   UNL     1     -12.790   6.025   5.531  0.00  0.00    +0.008 C 
ATOM     23  C   UNL     1     -11.708   6.156   4.458  0.00  0.00    -0.009 C 
ATOM     24  C   UNL     1     -10.599   5.132   4.718  0.00  0.00    +0.008 C 
ATOM     25  C   UNL     1      -9.404   5.417   3.807  0.00  0.00    +0.037 C 
ATOM     26  C   UNL     1      -9.895   5.504   2.365  0.00  0.00    -0.023 A 
ATOM     27  C   UNL     1     -11.201   5.712   2.091  0.00  0.00    -0.004 A 
ATOM     28  S   UNL     1     -11.301   5.739   0.322  0.00  0.00    -0.071 S 
ATOM     29  C   UNL     1      -9.584   5.470  -0.045  0.00  0.00    +0.138 A 
ATOM     30  C   UNL     1      -8.992   5.370   1.224  0.00  0.00    +0.079 A 
ATOM     31  C   UNL     1      -7.575   5.141   1.238  0.00  0.00    +0.279 A 
ATOM     32  O   UNL     1      -6.974   5.036   2.293  0.00  0.00    -0.265 OA
ATOM     33  N   UNL     1      -6.921   5.050   0.064  0.00  0.00    -0.201 N 
ATOM     34  N   UNL     1      -7.610   5.166  -1.148  0.00  0.00    -0.061 NA
ATOM     35  N   UNL     1      -8.883   5.367  -1.169  0.00  0.00    -0.123 NA
ATOM     36  C   UNL     1     -12.318   5.882   3.075  0.00  0.00    +0.046 C 
ENDBRANCH  21  33
ENDBRANCH   1  21
TORSDOF 5
