REMARK  Name = ZINC58915255
REMARK  13 active torsions:
REMARK  status: ('A' for Active; 'I' for Inactive)
REMARK    1  A    between atoms: C_1  and  C_2
REMARK    2  A    between atoms: C_5  and  N_8
REMARK    3  A    between atoms: N_8  and  C_9
REMARK    4  A    between atoms: N_8  and  S_30
REMARK    5  A    between atoms: C_9  and  C_10
REMARK    6  A    between atoms: N_12  and  N_13
REMARK    7  A    between atoms: C_14  and  C_15
REMARK    8  A    between atoms: C_17  and  C_29
REMARK    9  A    between atoms: N_18  and  C_21
REMARK   10  A    between atoms: C_19  and  C_20
REMARK   11  A    between atoms: C_24  and  C_28
REMARK   12  A    between atoms: C_26  and  C_27
REMARK   13  A    between atoms: S_30  and  C_33
REMARK                            x       y       z     vdW  Elec       q    Type
REMARK                         _______ _______ _______ _____ _____    ______ ____
ROOT
ATOM      1  C   UNL     1       2.117  -4.883  -1.088  0.00  0.00    +0.251 C 
ATOM      2  O   UNL     1       2.672  -4.342  -0.155  0.00  0.00    -0.272 OA
ATOM      3  N   UNL     1       2.846  -5.487  -2.048  0.00  0.00    -0.206 N 
ATOM      4  H   UNL     1       2.402  -5.919  -2.794  0.00  0.00    +0.177 HD
ENDROOT
BRANCH   3   5
ATOM      5  N   UNL     1       4.244  -5.489  -1.968  0.00  0.00    -0.188 NA
ATOM      6  C   UNL     1       4.947  -6.070  -2.892  0.00  0.00    +0.140 C 
BRANCH   6   7
ATOM      7  C   UNL     1       6.418  -6.072  -2.808  0.00  0.00    +0.016 A 
ATOM      8  C   UNL     1       7.353  -6.673  -3.764  0.00  0.00    +0.032 A 
ATOM      9  C   UNL     1       8.591  -6.436  -3.292  0.00  0.00    +0.022 A 
ATOM     10  N   UNL     1       8.492  -5.738  -2.123  0.00  0.00    -0.317 N 
ATOM     11  C   UNL     1       7.183  -5.510  -1.826  0.00  0.00    +0.030 A 
ATOM     12  C   UNL     1       6.668  -4.766  -0.621  0.00  0.00    +0.064 C 
ATOM     13  C   UNL     1       9.876  -6.871  -3.947  0.00  0.00    +0.064 C 
BRANCH  10  14
ATOM     14  C   UNL     1       9.578  -5.313  -1.346  0.00  0.00    +0.049 A 
ATOM     15  C   UNL     1      10.149  -4.068  -1.569  0.00  0.00    +0.026 A 
ATOM     16  C   UNL     1      11.219  -3.652  -0.802  0.00  0.00    +0.005 A 
ATOM     17  C   UNL     1      11.722  -4.476   0.189  0.00  0.00    -0.050 A 
ATOM     18  C   UNL     1      11.156  -5.717   0.414  0.00  0.00    +0.008 A 
ATOM     19  C   UNL     1      10.081  -6.135  -0.346  0.00  0.00    -0.026 A 
ATOM     20  C   UNL     1       9.460  -7.485  -0.096  0.00  0.00    +0.046 C 
ATOM     21  C   UNL     1      12.890  -4.020   1.025  0.00  0.00    +0.044 C 
ENDBRANCH  10  14
ENDBRANCH   6   7
ENDBRANCH   3   5
BRANCH   1  22
ATOM     22  C   UNL     1       0.612  -4.881  -1.174  0.00  0.00    +0.228 C 
BRANCH  22  23
ATOM     23  N   UNL     1       0.058  -4.167  -0.021  0.00  0.00    -0.199 N 
BRANCH  23  28
ATOM     24  C   UNL     1      -0.469   1.477  -0.163  0.00  0.00    +0.044 C 
ATOM     25  C   UNL     1      -0.329  -0.023  -0.125  0.00  0.00    -0.050 A 
ATOM     26  C   UNL     1      -1.035  -0.804  -1.022  0.00  0.00    +0.005 A 
ATOM     27  C   UNL     1      -0.908  -2.179  -0.990  0.00  0.00    +0.025 A 
ATOM     28  C   UNL     1      -0.071  -2.777  -0.056  0.00  0.00    +0.051 A 
ATOM     29  C   UNL     1       0.636  -1.989   0.843  0.00  0.00    +0.025 A 
ATOM     30  C   UNL     1       0.510  -0.614   0.801  0.00  0.00    +0.005 A 
ENDBRANCH  23  28
BRANCH  23  31
ATOM     31  S   UNL     1      -0.415  -5.009   1.325  0.00  0.00    +0.043 S 
ATOM     32  O   UNL     1       0.426  -6.154   1.350  0.00  0.00    -0.155 OA
ATOM     33  O   UNL     1      -0.376  -4.058   2.380  0.00  0.00    -0.155 OA
ATOM     34  C   UNL     1      -2.128  -5.500   0.989  0.00  0.00    +0.218 C 
ENDBRANCH  23  31
ENDBRANCH  22  23
ENDBRANCH   1  22
TORSDOF 7
