REMARK  Name = ZINC56308242
REMARK  6 active torsions:
REMARK  status: ('A' for Active; 'I' for Inactive)
REMARK    1  A    between atoms: C_1  and  C_2
REMARK    2  A    between atoms: C_2  and  C_4
REMARK    3  A    between atoms: C_2  and  N_16
REMARK    4  A    between atoms: N_6  and  C_7
REMARK    5  A    between atoms: N_6  and  C_8
REMARK    6  A    between atoms: N_16  and  C_17
REMARK                            x       y       z     vdW  Elec       q    Type
REMARK                         _______ _______ _______ _____ _____    ______ ____
ROOT
ATOM      1  N   UNL     1      -1.372  -0.511   0.012  0.00  0.00    -0.333 N 
ATOM      2  H   UNL     1      -1.794  -0.752   0.852  0.00  0.00    +0.147 HD
ENDROOT
BRANCH   1   3
ATOM      3  C   UNL     1      -2.077  -0.648  -1.189  0.00  0.00    +0.031 A 
ATOM      4  C   UNL     1      -1.471  -0.308  -2.392  0.00  0.00    +0.027 A 
ATOM      5  C   UNL     1      -2.166  -0.442  -3.579  0.00  0.00    +0.051 A 
ATOM      6  C   UNL     1      -3.467  -0.917  -3.573  0.00  0.00    +0.167 A 
ATOM      7  C   UNL     1      -4.077  -1.259  -2.368  0.00  0.00    +0.169 A 
ATOM      8  C   UNL     1      -3.379  -1.128  -1.179  0.00  0.00    +0.072 A 
ATOM      9  O   UNL     1      -5.345  -1.696  -2.629  0.00  0.00    -0.447 OA
ATOM     10  C   UNL     1      -5.637  -1.246  -3.960  0.00  0.00    +0.254 C 
ATOM     11  O   UNL     1      -4.353  -1.140  -4.590  0.00  0.00    -0.448 OA
ATOM     12  C   UNL     1      -6.327   0.113  -3.921  0.00  0.00    +0.093 C 
ATOM     13  C   UNL     1      -7.677  -0.018  -3.212  0.00  0.00    +0.008 C 
ATOM     14  C   UNL     1      -8.548  -1.030  -3.960  0.00  0.00    +0.000 C 
ATOM     15  C   UNL     1      -7.854  -2.393  -3.976  0.00  0.00    +0.008 C 
ATOM     16  C   UNL     1      -6.504  -2.269  -4.687  0.00  0.00    +0.093 C 
ENDBRANCH   1   3
BRANCH   1  18
ATOM     17  C   UNL     1      -0.019   1.526   0.010  0.00  0.00    +0.038 C 
ATOM     18  C   UNL     1       0.002  -0.004   0.002  0.00  0.00    +0.154 C 
BRANCH  18  19
ATOM     19  C   UNL     1       0.731  -0.503   1.223  0.00  0.00    +0.236 C 
ATOM     20  O   UNL     1       0.159  -1.213   2.023  0.00  0.00    -0.274 OA
ATOM     21  N   UNL     1       2.019  -0.161   1.426  0.00  0.00    -0.298 N 
ATOM     22  C   UNL     1       2.710   0.696   0.459  0.00  0.00    +0.132 C 
BRANCH  21  23
ATOM     23  C   UNL     1       2.727  -0.647   2.613  0.00  0.00    +0.098 C 
ATOM     24  C   UNL     1       3.949  -1.471   2.176  0.00  0.00    +0.046 C 
ATOM     25  C   UNL     1       4.847  -1.705   3.424  0.00  0.00    +0.168 C 
ATOM     26  S   UNL     1       4.742  -0.051   4.229  0.00  0.00    -0.029 S 
ATOM     27  O   UNL     1       4.537  -0.228   5.624  0.00  0.00    -0.174 OA
ATOM     28  O   UNL     1       5.824   0.753   3.778  0.00  0.00    -0.174 OA
ATOM     29  C   UNL     1       3.185   0.560   3.467  0.00  0.00    +0.188 C 
ENDBRANCH  21  23
ENDBRANCH  18  19
ENDBRANCH   1  18
TORSDOF 4
