REMARK  Name = ZINC39631615
REMARK  14 active torsions:
REMARK  status: ('A' for Active; 'I' for Inactive)
REMARK    1  A    between atoms: C_1  and  C_2
REMARK    2  A    between atoms: C_2  and  O_3
REMARK    3  A    between atoms: O_3  and  C_4
REMARK    4  A    between atoms: C_9  and  C_10
REMARK    5  A    between atoms: C_14  and  C_23
REMARK    6  A    between atoms: N_25  and  C_26
REMARK    7  A    between atoms: C_26  and  C_28
REMARK    8  A    between atoms: C_26  and  C_29
REMARK    9  A    between atoms: C_29  and  C_30
REMARK   10  A    between atoms: C_30  and  C_31
REMARK   11  A    between atoms: C_31  and  C_32
REMARK   12  A    between atoms: C_32  and  C_33
REMARK   13  A    between atoms: C_32  and  C_34
REMARK   14  A    between atoms: C_32  and  O_35
REMARK                            x       y       z     vdW  Elec       q    Type
REMARK                         _______ _______ _______ _____ _____    ______ ____
ROOT
ATOM      1  C   UNL     1      -3.840  -1.696   0.110  0.00  0.00    +0.250 C 
ATOM      2  O   UNL     1      -3.661  -0.494   0.136  0.00  0.00    -0.270 OA
ATOM      3  N   UNL     1      -5.087  -2.188  -0.037  0.00  0.00    -0.296 N 
ATOM      4  C   UNL     1      -5.515  -3.606   0.015  0.00  0.00    +0.121 C 
ATOM      5  C   UNL     1      -6.862  -3.579   0.772  0.00  0.00    +0.100 C 
ATOM      6  C   UNL     1      -7.397  -2.152   0.570  0.00  0.00    -0.004 C 
ATOM      7  C   UNL     1      -6.339  -1.433  -0.279  0.00  0.00    +0.115 C 
ATOM      8  C   UNL     1      -8.732  -2.188  -0.168  0.00  0.00    -0.010 C 
ATOM      9  C   UNL     1      -9.273  -0.762  -0.306  0.00  0.00    -0.082 C 
ATOM     10  N   UNL     1      -9.444  -0.170   1.026  0.00  0.00    +0.379 N 
ATOM     11  C   UNL     1      -8.141  -0.053   1.692  0.00  0.00    -0.082 C 
ATOM     12  C   UNL     1      -7.553  -1.449   1.915  0.00  0.00    -0.010 C 
ATOM     13  H   UNL     1      -9.857   0.746   0.935  0.00  0.00    -0.086 HD
ATOM     14  H   UNL     1     -10.051  -0.757   1.578  0.00  0.00    -0.086 HD
ENDROOT
BRANCH   1  20
ATOM     15  C   UNL     1      -1.602  -2.273   1.047  0.00  0.00    +0.133 A 
ATOM     16  C   UNL     1      -0.533  -3.148   1.165  0.00  0.00    +0.046 A 
ATOM     17  C   UNL     1      -0.543  -4.349   0.484  0.00  0.00    +0.004 A 
ATOM     18  C   UNL     1      -1.618  -4.689  -0.322  0.00  0.00    +0.001 A 
ATOM     19  C   UNL     1      -2.689  -3.832  -0.450  0.00  0.00    +0.017 A 
ATOM     20  C   UNL     1      -2.694  -2.616   0.238  0.00  0.00    +0.078 A 
BRANCH  15  21
ATOM     21  O   UNL     1      -1.594  -1.093   1.715  0.00  0.00    -0.491 OA
BRANCH  21  23
ATOM     22  C   UNL     1      -0.617   0.553   3.191  0.00  0.00    +0.048 C 
ATOM     23  C   UNL     1      -0.447  -0.811   2.520  0.00  0.00    +0.226 C 
ENDBRANCH  21  23
ENDBRANCH  15  21
ENDBRANCH   1  20
BRANCH   5  24
ATOM     24  C   UNL     1      -7.814  -4.588   0.185  0.00  0.00    +0.218 C 
ATOM     25  O   UNL     1      -7.758  -4.859  -0.996  0.00  0.00    -0.275 OA
ATOM     26  N   UNL     1      -8.729  -5.189   0.971  0.00  0.00    -0.312 N 
ATOM     27  H   UNL     1      -8.773  -4.973   1.916  0.00  0.00    +0.149 HD
BRANCH  26  28
ATOM     28  C   UNL     1      -9.655  -6.170   0.400  0.00  0.00    +0.070 C 
ATOM     29  C   UNL     1     -10.862  -5.445  -0.197  0.00  0.00    +0.028 C 
BRANCH  28  30
ATOM     30  C   UNL     1     -10.126  -7.126   1.498  0.00  0.00    +0.022 C 
BRANCH  30  31
ATOM     31  C   UNL     1      -8.937  -7.942   2.009  0.00  0.00    +0.005 C 
BRANCH  31  32
ATOM     32  C   UNL     1      -9.409  -8.898   3.107  0.00  0.00    +0.034 C 
BRANCH  32  33
ATOM     33  C   UNL     1      -8.220  -9.713   3.619  0.00  0.00    +0.061 C 
ATOM     34  C   UNL     1      -7.159  -8.768   4.186  0.00  0.00    +0.041 C 
ATOM     35  C   UNL     1      -8.691 -10.669   4.716  0.00  0.00    +0.041 C 
BRANCH  33  36
ATOM     36  O   UNL     1      -7.659 -10.466   2.541  0.00  0.00    -0.389 OA
ATOM     37  H   UNL     1      -8.277 -11.087   2.132  0.00  0.00    +0.210 HD
ENDBRANCH  33  36
ENDBRANCH  32  33
ENDBRANCH  31  32
ENDBRANCH  30  31
ENDBRANCH  28  30
ENDBRANCH  26  28
ENDBRANCH   5  24
TORSDOF 10
