REMARK  Name = ZINC36618854
REMARK  9 active torsions:
REMARK  status: ('A' for Active; 'I' for Inactive)
REMARK    1  A    between atoms: C_1  and  C_2
REMARK    2  A    between atoms: C_5  and  C_9
REMARK    3  A    between atoms: C_6  and  C_8
REMARK    4  A    between atoms: C_15  and  C_23
REMARK    5  A    between atoms: C_17  and  C_21
REMARK    6  A    between atoms: C_18  and  N_20
REMARK    7  A    between atoms: C_26  and  C_29
REMARK    8  A    between atoms: C_29  and  O_31
REMARK    9  A    between atoms: O_31  and  C_32
REMARK                            x       y       z     vdW  Elec       q    Type
REMARK                         _______ _______ _______ _____ _____    ______ ____
ROOT
ATOM      1  C   UNL     1       0.060  -4.246  -0.021  0.00  0.00    +0.084 C 
ATOM      2  N   UNL     1       0.162  -5.035   1.014  0.00  0.00    -0.150 NA
ATOM      3  N   UNL     1       0.114  -6.383   0.657  0.00  0.00    -0.115 NA
ATOM      4  C   UNL     1      -0.077  -6.541  -0.604  0.00  0.00    +0.227 C 
ATOM      5  C   UNL     1      -0.039  -5.149  -1.229  0.00  0.00    +0.140 C 
ATOM      6  C   UNL     1      -1.387  -4.970  -1.937  0.00  0.00    +0.082 C 
ATOM      7  C   UNL     1      -1.742  -6.249  -2.647  0.00  0.00    +0.095 C 
ATOM      8  C   UNL     1      -1.227  -7.457  -2.341  0.00  0.00    +0.200 C 
ATOM      9  O   UNL     1      -0.303  -7.638  -1.358  0.00  0.00    -0.425 OA
ENDROOT
BRANCH   1  14
ATOM     10  C   UNL     1      -0.017   1.503   0.011  0.00  0.00    +0.044 C 
ATOM     11  C   UNL     1       0.004  -0.004   0.003  0.00  0.00    -0.050 A 
ATOM     12  C   UNL     1      -1.032  -0.710   0.590  0.00  0.00    +0.004 A 
ATOM     13  C   UNL     1      -1.021  -2.089   0.586  0.00  0.00    +0.010 A 
ATOM     14  C   UNL     1       0.041  -2.774  -0.013  0.00  0.00    +0.002 A 
ATOM     15  C   UNL     1       1.083  -2.054  -0.604  0.00  0.00    -0.041 A 
ATOM     16  C   UNL     1       1.055  -0.675  -0.597  0.00  0.00    +0.007 A 
ATOM     17  C   UNL     1       2.232  -2.782  -1.252  0.00  0.00    +0.044 C 
ENDBRANCH   1  14
BRANCH   6  18
ATOM     18  C   UNL     1      -1.285  -3.847  -2.938  0.00  0.00    -0.038 A 
ATOM     19  C   UNL     1      -0.374  -3.931  -3.976  0.00  0.00    +0.005 A 
ATOM     20  C   UNL     1      -0.276  -2.907  -4.896  0.00  0.00    +0.015 A 
ATOM     21  C   UNL     1      -1.098  -1.785  -4.776  0.00  0.00    +0.059 A 
ATOM     22  C   UNL     1      -2.014  -1.707  -3.726  0.00  0.00    +0.015 A 
ATOM     23  C   UNL     1      -2.106  -2.741  -2.817  0.00  0.00    +0.005 A 
BRANCH  21  24
ATOM     24  C   UNL     1      -0.998  -0.684  -5.757  0.00  0.00    +0.339 C 
ATOM     25  O   UNL     1      -0.199  -0.755  -6.669  0.00  0.00    -0.245 OA
BRANCH  24  26
ATOM     26  O   UNL     1      -1.792   0.397  -5.639  0.00  0.00    -0.464 OA
ATOM     27  C   UNL     1      -1.642   1.423  -6.622  0.00  0.00    +0.280 C 
ENDBRANCH  24  26
ENDBRANCH  21  24
ENDBRANCH   6  18
BRANCH   8  28
ATOM     28  N   UNL     1      -1.649  -8.551  -3.055  0.00  0.00    -0.328 N 
ATOM     29  H   UNL     1      -2.305  -8.445  -3.762  0.00  0.00    +0.145 HD
ATOM     30  H   UNL     1      -1.293  -9.430  -2.852  0.00  0.00    +0.145 HD
ENDBRANCH   8  28
BRANCH   7  31
ATOM     31  C   UNL     1      -2.691  -6.178  -3.718  0.00  0.00    +0.100 C 
ATOM     32  N   UNL     1      -3.443  -6.121  -4.567  0.00  0.00    -0.191 NA
ENDBRANCH   7  31
TORSDOF 6
