REMARK  Name = ZINC09552329
REMARK  7 active torsions:
REMARK  status: ('A' for Active; 'I' for Inactive)
REMARK    1  A    between atoms: C_1  and  C_2
REMARK    2  A    between atoms: C_3  and  C_30
REMARK    3  A    between atoms: C_9  and  C_12
REMARK    4  A    between atoms: C_12  and  O_14
REMARK    5  A    between atoms: O_14  and  C_15
REMARK    6  A    between atoms: C_15  and  C_17
REMARK    7  A    between atoms: C_15  and  C_18
REMARK                            x       y       z     vdW  Elec       q    Type
REMARK                         _______ _______ _______ _____ _____    ______ ____
ROOT
ATOM      1  O   UNL     1       2.666   0.327  -1.344  0.00  0.00    -0.450 OA
ENDROOT
BRANCH   1   2
ATOM      2  C   UNL     1       3.347  -0.833  -1.424  0.00  0.00    +0.340 C 
ATOM      3  O   UNL     1       3.748  -1.373  -0.412  0.00  0.00    -0.245 OA
BRANCH   2  12
ATOM      4  C   UNL     1       5.909  -5.455  -3.647  0.00  0.00    +0.046 C 
ATOM      5  C   UNL     1       5.231  -4.431  -4.520  0.00  0.00    -0.022 A 
ATOM      6  C   UNL     1       5.139  -4.457  -5.859  0.00  0.00    +0.017 A 
ATOM      7  N   UNL     1       4.453  -3.359  -6.302  0.00  0.00    -0.358 N 
ATOM      8  H   UNL     1       4.261  -3.160  -7.232  0.00  0.00    +0.166 HD
ATOM      9  C   UNL     1       4.076  -2.579  -5.235  0.00  0.00    +0.047 A 
ATOM     10  C   UNL     1       4.547  -3.215  -4.069  0.00  0.00    +0.004 A 
ATOM     11  C   UNL     1       4.310  -2.646  -2.821  0.00  0.00    +0.025 A 
ATOM     12  C   UNL     1       3.606  -1.447  -2.740  0.00  0.00    +0.060 A 
ATOM     13  C   UNL     1       3.138  -0.827  -3.907  0.00  0.00    +0.017 A 
ATOM     14  C   UNL     1       3.373  -1.380  -5.130  0.00  0.00    +0.027 A 
ATOM     15  C   UNL     1       5.708  -5.536  -6.744  0.00  0.00    +0.063 C 
ENDBRANCH   2  12
ENDBRANCH   1   2
BRANCH   1  16
ATOM     16  C   UNL     1       2.449   0.874  -0.017  0.00  0.00    +0.239 C 
ATOM     17  C   UNL     1       3.610   1.800   0.351  0.00  0.00    +0.060 C 
BRANCH  16  18
ATOM     18  C   UNL     1       1.160   1.655  -0.000  0.00  0.00    +0.151 A 
ATOM     19  N   UNL     1      -0.011   0.966   0.007  0.00  0.00    -0.307 N 
ATOM     20  H   UNL     1       0.002  -0.004   0.002  0.00  0.00    +0.170 HD
ATOM     21  C   UNL     1      -1.196   1.620   0.017  0.00  0.00    +0.259 A 
ATOM     22  O   UNL     1      -2.252   1.016   0.018  0.00  0.00    -0.267 OA
ATOM     23  C   UNL     1      -1.157   3.090   0.030  0.00  0.00    +0.065 A 
ATOM     24  C   UNL     1      -2.319   3.858   0.044  0.00  0.00    +0.015 A 
ATOM     25  C   UNL     1      -2.225   5.233   0.051  0.00  0.00    +0.001 A 
ATOM     26  C   UNL     1      -0.983   5.855   0.043  0.00  0.00    +0.002 A 
ATOM     27  C   UNL     1       0.177   5.115   0.028  0.00  0.00    +0.028 A 
ATOM     28  C   UNL     1       0.107   3.720   0.021  0.00  0.00    +0.078 A 
ATOM     29  N   UNL     1       1.225   2.952   0.007  0.00  0.00    -0.230 NA
ENDBRANCH  16  18
ENDBRANCH   1  16
TORSDOF 4
