REMARK  Name = ZINC65358854
REMARK  6 active torsions:
REMARK  status: ('A' for Active; 'I' for Inactive)
REMARK    1  A    between atoms: C_1  and  C_2
REMARK    2  A    between atoms: N_5  and  C_8
REMARK    3  A    between atoms: C_8  and  C_9
REMARK    4  A    between atoms: C_8  and  C_10
REMARK    5  A    between atoms: C_10  and  N_11
REMARK    6  A    between atoms: C_18  and  C_20
REMARK                            x       y       z     vdW  Elec       q    Type
REMARK                         _______ _______ _______ _____ _____    ______ ____
ROOT
ATOM      1  N   UNL     1       1.651  -3.736  -2.468  0.00  0.00    -0.301 N 
ATOM      2  C   UNL     1       1.989  -4.060  -3.732  0.00  0.00    +0.305 C 
ATOM      3  O   UNL     1       2.881  -4.860  -3.937  0.00  0.00    -0.252 OA
ATOM      4  N   UNL     1       1.338  -3.496  -4.769  0.00  0.00    -0.247 N 
ATOM      5  C   UNL     1       1.687  -3.830  -6.074  0.00  0.00    +0.189 A 
ATOM      6  N   UNL     1       2.610  -4.670  -6.498  0.00  0.00    -0.125 NA
ATOM      7  N   UNL     1       2.813  -4.872  -7.729  0.00  0.00    -0.136 NA
ATOM      8  C   UNL     1       2.082  -4.226  -8.614  0.00  0.00    +0.206 A 
ATOM      9  S   UNL     1       1.035  -3.272  -7.525  0.00  0.00    -0.027 S 
ATOM     10  H   UNL     1       0.939  -3.098  -2.305  0.00  0.00    +0.150 HD
ATOM     11  H   UNL     1       0.626  -2.857  -4.606  0.00  0.00    +0.158 HD
ENDROOT
BRANCH   8  12
ATOM     12  C   UNL     1       2.117  -4.279 -10.120  0.00  0.00    +0.443 C 
ATOM     13  F   UNL     1       3.025  -5.260 -10.531  0.00  0.00    -0.164 F 
ATOM     14  F   UNL     1       0.842  -4.591 -10.605  0.00  0.00    -0.164 F 
ATOM     15  F   UNL     1       2.515  -3.035 -10.621  0.00  0.00    -0.164 F 
ENDBRANCH   8  12
BRANCH   1  16
ATOM     16  C   UNL     1       2.358  -4.349  -1.341  0.00  0.00    +0.090 C 
BRANCH  16  17
ATOM     17  C   UNL     1       1.709  -3.904  -0.029  0.00  0.00    -0.054 C 
ATOM     18  C   UNL     1       2.499  -4.475   1.150  0.00  0.00    -0.012 C 
BRANCH  17  23
ATOM     19  C   UNL     1       2.260   1.619   1.282  0.00  0.00    +0.007 C 
ATOM     20  C   UNL     1       2.320   0.091   1.323  0.00  0.00    -0.018 C 
ATOM     21  C   UNL     1       0.899  -0.479   1.276  0.00  0.00    -0.016 C 
ATOM     22  C   UNL     1       0.970  -2.007   1.237  0.00  0.00    -0.078 C 
ATOM     23  N   UNL     1       1.711  -2.437   0.045  0.00  0.00    +0.382 N 
ATOM     24  C   UNL     1       3.095  -1.954   0.119  0.00  0.00    -0.078 C 
ATOM     25  C   UNL     1       3.107  -0.424   0.114  0.00  0.00    -0.016 C 
ATOM     26  H   UNL     1       1.268  -2.060  -0.779  0.00  0.00    -0.081 HD
ENDBRANCH  17  23
ENDBRANCH  16  17
ENDBRANCH   1  16
TORSDOF 4
