REMARK  Name = ZINC03447616
REMARK  5 active torsions:
REMARK  status: ('A' for Active; 'I' for Inactive)
REMARK    1  A    between atoms: C_1  and  N_2
REMARK    2  A    between atoms: C_6  and  C_26
REMARK    3  A    between atoms: C_11  and  S_12
REMARK    4  A    between atoms: S_12  and  C_13
REMARK    5  A    between atoms: C_13  and  C_14
REMARK                            x       y       z     vdW  Elec       q    Type
REMARK                         _______ _______ _______ _____ _____    ______ ____
ROOT
ATOM      1  C   UNL     1       7.037   6.399  -2.038  0.00  0.00    +0.154 C 
ATOM      2  N   UNL     1       5.659   6.889  -1.953  0.00  0.00    -0.290 N 
ATOM      3  C   UNL     1       5.391   8.168  -2.275  0.00  0.00    +0.263 A 
ATOM      4  O   UNL     1       6.287   8.913  -2.634  0.00  0.00    -0.267 OA
ATOM      5  C   UNL     1       4.046   8.641  -2.190  0.00  0.00    +0.080 A 
ATOM      6  C   UNL     1       3.516   9.969  -2.482  0.00  0.00    +0.004 A 
ATOM      7  C   UNL     1       2.189  10.190  -2.328  0.00  0.00    +0.056 A 
ATOM      8  S   UNL     1       1.569   8.613  -1.775  0.00  0.00    -0.076 S 
ATOM      9  C   UNL     1       3.091   7.701  -1.764  0.00  0.00    +0.117 A 
ATOM     10  N   UNL     1       3.420   6.449  -1.466  0.00  0.00    -0.216 NA
ATOM     11  C   UNL     1       4.670   6.040  -1.548  0.00  0.00    +0.173 A 
ENDROOT
BRANCH   6  12
ATOM     12  C   UNL     1       4.414  11.056  -2.940  0.00  0.00    -0.017 A 
ATOM     13  C   UNL     1       5.583  11.341  -2.236  0.00  0.00    +0.008 A 
ATOM     14  C   UNL     1       6.418  12.350  -2.670  0.00  0.00    +0.001 A 
ATOM     15  C   UNL     1       6.091  13.086  -3.794  0.00  0.00    +0.000 A 
ATOM     16  C   UNL     1       4.929  12.813  -4.493  0.00  0.00    +0.001 A 
ATOM     17  C   UNL     1       4.089  11.802  -4.072  0.00  0.00    +0.008 A 
ENDBRANCH   6  12
BRANCH  11  18
ATOM     18  S   UNL     1       5.068   4.373  -1.138  0.00  0.00    -0.078 S 
BRANCH  18  19
ATOM     19  C   UNL     1       3.425   3.758  -0.693  0.00  0.00    +0.173 C 
BRANCH  19  20
ATOM     20  C   UNL     1       3.522   2.308  -0.296  0.00  0.00    +0.230 C 
ATOM     21  O   UNL     1       4.607   1.773  -0.214  0.00  0.00    -0.274 OA
ATOM     22  N   UNL     1       2.403   1.605  -0.030  0.00  0.00    -0.270 N 
ATOM     23  C   UNL     1       1.093   2.271   0.005  0.00  0.00    +0.114 C 
ATOM     24  C   UNL     1       0.342   1.760   1.241  0.00  0.00    +0.024 C 
ATOM     25  C   UNL     1       0.100   0.259   1.087  0.00  0.00    +0.038 C 
ATOM     26  C   UNL     1       1.385  -0.451   0.754  0.00  0.00    -0.026 A 
ATOM     27  C   UNL     1       2.468   0.226   0.215  0.00  0.00    +0.039 A 
ATOM     28  C   UNL     1       3.639  -0.460  -0.086  0.00  0.00    +0.024 A 
ATOM     29  C   UNL     1       3.725  -1.817   0.154  0.00  0.00    +0.002 A 
ATOM     30  C   UNL     1       2.646  -2.492   0.694  0.00  0.00    +0.000 A 
ATOM     31  C   UNL     1       1.479  -1.813   0.988  0.00  0.00    +0.005 A 
ENDBRANCH  19  20
ENDBRANCH  18  19
ENDBRANCH  11  18
TORSDOF 4
