REMARK  Name = ZINC12688389
REMARK  9 active torsions:
REMARK  status: ('A' for Active; 'I' for Inactive)
REMARK    1  A    between atoms: C_1  and  C_2
REMARK    2  A    between atoms: C_4  and  C_14
REMARK    3  A    between atoms: C_5  and  C_13
REMARK    4  A    between atoms: N_6  and  C_7
REMARK    5  A    between atoms: C_7  and  C_8
REMARK    6  A    between atoms: C_15  and  C_16
REMARK    7  A    between atoms: N_21  and  S_24
REMARK    8  A    between atoms: S_24  and  C_27
REMARK    9  A    between atoms: C_32  and  C_33
REMARK                            x       y       z     vdW  Elec       q    Type
REMARK                         _______ _______ _______ _____ _____    ______ ____
ROOT
ATOM      1  C   UNL     1       1.493   5.521   0.016  0.00  0.00    +0.240 C 
ATOM      2  O   UNL     1       2.689   5.737   0.102  0.00  0.00    -0.271 OA
ATOM      3  N   UNL     1       0.627   6.550  -0.072  0.00  0.00    -0.295 N 
ATOM      4  C   UNL     1      -0.822   6.310  -0.067  0.00  0.00    +0.125 C 
ATOM      5  C   UNL     1      -1.448   7.142   1.065  0.00  0.00    +0.128 C 
ATOM      6  N   UNL     1      -0.959   8.524   0.956  0.00  0.00    -0.174 NA
ATOM      7  C   UNL     1       0.491   8.763   0.945  0.00  0.00    +0.128 C 
ATOM      8  C   UNL     1       1.116   7.931  -0.182  0.00  0.00    +0.125 C 
ENDROOT
BRANCH   6   9
ATOM      9  S   UNL     1      -2.023   9.788   0.846  0.00  0.00    +0.062 S 
ATOM     10  O   UNL     1      -3.242   9.345   1.428  0.00  0.00    -0.153 OA
ATOM     11  O   UNL     1      -1.333  10.941   1.309  0.00  0.00    -0.153 OA
BRANCH   9  12
ATOM     12  C   UNL     1      -2.348  10.049  -0.866  0.00  0.00    +0.123 A 
ATOM     13  C   UNL     1      -3.614   9.832  -1.370  0.00  0.00    +0.030 A 
ATOM     14  C   UNL     1      -3.872  10.041  -2.713  0.00  0.00    +0.002 A 
ATOM     15  C   UNL     1      -2.861  10.458  -3.562  0.00  0.00    +0.001 A 
ATOM     16  C   UNL     1      -1.590  10.673  -3.072  0.00  0.00    +0.021 A 
ATOM     17  C   UNL     1      -1.324  10.469  -1.716  0.00  0.00    +0.078 A 
BRANCH  17  18
ATOM     18  C   UNL     1      -0.006  10.690  -1.201  0.00  0.00    +0.101 C 
ATOM     19  N   UNL     1       1.039  10.865  -0.792  0.00  0.00    -0.191 NA
ENDBRANCH  17  18
ENDBRANCH   9  12
ENDBRANCH   6   9
BRANCH   1  21
ATOM     20  C   UNL     1       1.885   3.155  -0.005  0.00  0.00    +0.015 C 
ATOM     21  C   UNL     1       1.013   4.188   0.008  0.00  0.00    +0.068 C 
BRANCH  20  25
ATOM     22  C   UNL     1      -1.212  -0.895  -0.019  0.00  0.00    +0.063 C 
ATOM     23  C   UNL     1       0.004  -0.004  -0.019  0.00  0.00    +0.017 A 
ATOM     24  C   UNL     1      -0.015   1.340  -0.008  0.00  0.00    +0.030 A 
ATOM     25  C   UNL     1       1.387   1.774  -0.013  0.00  0.00    -0.004 A 
ATOM     26  C   UNL     1       2.142   0.618  -0.026  0.00  0.00    +0.023 A 
ATOM     27  N   UNL     1       1.299  -0.434  -0.030  0.00  0.00    -0.340 N 
ATOM     28  C   UNL     1       3.647   0.545  -0.036  0.00  0.00    +0.064 C 
BRANCH  27  29
ATOM     29  C   UNL     1       1.714  -1.839  -0.044  0.00  0.00    +0.196 C 
BRANCH  29  30
ATOM     30  C   UNL     1       1.849  -2.309  -1.469  0.00  0.00    +0.124 A 
ATOM     31  C   UNL     1       2.963  -2.240  -2.218  0.00  0.00    +0.046 A 
ATOM     32  C   UNL     1       2.644  -2.792  -3.480  0.00  0.00    +0.041 A 
ATOM     33  C   UNL     1       1.350  -3.158  -3.429  0.00  0.00    +0.195 A 
ATOM     34  O   UNL     1       0.874  -2.863  -2.208  0.00  0.00    -0.466 OA
ENDBRANCH  29  30
ENDBRANCH  27  29
ENDBRANCH  20  25
ENDBRANCH   1  21
TORSDOF 7
