REMARK  Name = ZINC08861302
REMARK  8 active torsions:
REMARK  status: ('A' for Active; 'I' for Inactive)
REMARK    1  A    between atoms: C_1  and  C_2
REMARK    2  A    between atoms: C_2  and  C_20
REMARK    3  A    between atoms: N_3  and  N_4
REMARK    4  A    between atoms: C_5  and  C_7
REMARK    5  A    between atoms: C_7  and  C_8
REMARK    6  A    between atoms: C_7  and  C_14
REMARK    7  A    between atoms: C_23  and  N_26
REMARK    8  A    between atoms: C_27  and  C_29
REMARK                            x       y       z     vdW  Elec       q    Type
REMARK                         _______ _______ _______ _____ _____    ______ ____
ROOT
ATOM      1  C   UNL     1       3.198   0.056  -0.977  0.00  0.00    +0.068 C 
ATOM      2  C   UNL     1       2.124   1.108  -1.087  0.00  0.00    +0.063 C 
ATOM      3  N   UNL     1       0.881   0.789  -0.894  0.00  0.00    -0.185 NA
ENDROOT
BRANCH   2   4
ATOM      4  C   UNL     1       2.486   2.499  -1.414  0.00  0.00    -0.002 A 
ATOM      5  C   UNL     1       3.825   2.845  -1.617  0.00  0.00    +0.011 A 
ATOM      6  C   UNL     1       4.159   4.145  -1.927  0.00  0.00    +0.024 A 
ATOM      7  C   UNL     1       3.167   5.115  -2.029  0.00  0.00    +0.034 A 
ATOM      8  C   UNL     1       1.834   4.775  -1.823  0.00  0.00    +0.024 A 
ATOM      9  C   UNL     1       1.492   3.476  -1.517  0.00  0.00    +0.011 A 
BRANCH   7  10
ATOM     10  N   UNL     1       3.510   6.432  -2.339  0.00  0.00    -0.279 N 
ATOM     11  C   UNL     1       2.820   7.454  -1.795  0.00  0.00    +0.284 C 
ATOM     12  O   UNL     1       1.850   7.229  -1.095  0.00  0.00    -0.266 OA
ATOM     13  H   UNL     1       4.245   6.612  -2.946  0.00  0.00    +0.155 HD
BRANCH  11  14
ATOM     14  C   UNL     1       3.236   8.836  -2.047  0.00  0.00    +0.191 A 
ATOM     15  C   UNL     1       2.626   9.959  -1.564  0.00  0.00    +0.056 A 
ATOM     16  C   UNL     1       3.355  11.055  -2.048  0.00  0.00    +0.058 A 
ATOM     17  C   UNL     1       4.363  10.560  -2.804  0.00  0.00    +0.171 A 
ATOM     18  O   UNL     1       4.287   9.223  -2.800  0.00  0.00    -0.444 OA
ATOM     19 BR   UNL     1       5.663  11.587  -3.715  0.00  0.00    -0.008 Br
ENDBRANCH  11  14
ENDBRANCH   7  10
ENDBRANCH   2   4
BRANCH   3  20
ATOM     20  N   UNL     1       0.537  -0.532  -0.583  0.00  0.00    -0.206 N 
ATOM     21  C   UNL     1      -0.754  -0.864  -0.383  0.00  0.00    +0.244 C 
ATOM     22  O   UNL     1      -1.618  -0.017  -0.471  0.00  0.00    -0.273 OA
ATOM     23  H   UNL     1       1.228  -1.210  -0.512  0.00  0.00    +0.177 HD
BRANCH  21  24
ATOM     24  C   UNL     1      -1.124  -2.286  -0.048  0.00  0.00    +0.136 C 
BRANCH  24  25
ATOM     25  C   UNL     1      -0.440  -2.695   1.231  0.00  0.00    -0.031 A 
ATOM     26  C   UNL     1      -0.484  -1.864   2.335  0.00  0.00    +0.005 A 
ATOM     27  C   UNL     1       0.139  -2.241   3.510  0.00  0.00    +0.000 A 
ATOM     28  C   UNL     1       0.814  -3.446   3.578  0.00  0.00    +0.000 A 
ATOM     29  C   UNL     1       0.863  -4.274   2.472  0.00  0.00    +0.000 A 
ATOM     30  C   UNL     1       0.235  -3.899   1.299  0.00  0.00    +0.005 A 
ENDBRANCH  24  25
BRANCH  24  31
ATOM     31  C   UNL     1      -2.617  -2.389   0.126  0.00  0.00    -0.031 A 
ATOM     32  C   UNL     1      -3.250  -1.658   1.114  0.00  0.00    +0.005 A 
ATOM     33  C   UNL     1      -4.621  -1.748   1.270  0.00  0.00    +0.000 A 
ATOM     34  C   UNL     1      -5.357  -2.578   0.444  0.00  0.00    +0.000 A 
ATOM     35  C   UNL     1      -4.723  -3.313  -0.540  0.00  0.00    +0.000 A 
ATOM     36  C   UNL     1      -3.354  -3.218  -0.700  0.00  0.00    +0.005 A 
ENDBRANCH  24  31
ENDBRANCH  21  24
ENDBRANCH   3  20
TORSDOF 7
