REMARK  Name = ZINC39443467
REMARK  6 active torsions:
REMARK  status: ('A' for Active; 'I' for Inactive)
REMARK    1  A    between atoms: C_1  and  C_2
REMARK    2  A    between atoms: C_2  and  C_4
REMARK    3  A    between atoms: C_2  and  N_17
REMARK    4  A    between atoms: N_20  and  C_23
REMARK    5  A    between atoms: C_23  and  C_24
REMARK    6  A    between atoms: C_23  and  C_31
REMARK                            x       y       z     vdW  Elec       q    Type
REMARK                         _______ _______ _______ _____ _____    ______ ____
ROOT
ATOM      1  N   UNL     1       0.199  -1.535  -0.929  0.00  0.00    +0.389 N 
ATOM      2  C   UNL     1      -0.381  -1.092  -2.204  0.00  0.00    -0.062 C 
ATOM      3  C   UNL     1      -0.361  -2.250  -3.204  0.00  0.00    +0.067 C 
ATOM      4  N   UNL     1      -1.133  -3.376  -2.659  0.00  0.00    -0.295 NA
ATOM      5  C   UNL     1      -0.579  -3.814  -1.371  0.00  0.00    +0.067 C 
ATOM      6  C   UNL     1      -0.597  -2.643  -0.386  0.00  0.00    -0.062 C 
ATOM      7  H   UNL     1       1.147  -1.845  -1.081  0.00  0.00    -0.081 HD
ENDROOT
BRANCH   1   9
ATOM      8  C   UNL     1       1.034   0.734  -0.536  0.00  0.00    -0.004 C 
ATOM      9  C   UNL     1       0.196  -0.417   0.024  0.00  0.00    +0.017 C 
BRANCH   9  10
ATOM     10  C   UNL     1       0.783  -0.874   1.335  0.00  0.00    +0.203 C 
ATOM     11  O   UNL     1       1.634  -1.738   1.350  0.00  0.00    -0.277 OA
ATOM     12  N   UNL     1       0.362  -0.322   2.491  0.00  0.00    -0.287 N 
ATOM     13  C   UNL     1       1.236   0.207   3.325  0.00  0.00    +0.035 C 
ATOM     14  C   UNL     1       2.648   0.318   2.937  0.00  0.00    +0.025 C 
ATOM     15  C   UNL     1       3.546   0.858   3.784  0.00  0.00    +0.032 C 
ATOM     16  C   UNL     1       3.118   1.339   5.101  0.00  0.00    +0.095 C 
ATOM     17  N   UNL     1       3.738   1.897   6.123  0.00  0.00    -0.190 NA
ATOM     18  C   UNL     1       2.850   2.142   7.101  0.00  0.00    +0.369 C 
ATOM     19  O   UNL     1       3.162   2.712   8.289  0.00  0.00    -0.243 OA
ATOM     20  N   UNL     1       1.641   1.759   6.760  0.00  0.00    -0.190 NA
ATOM     21  C   UNL     1       1.702   1.232   5.502  0.00  0.00    +0.097 C 
ATOM     22  C   UNL     1       0.793   0.694   4.649  0.00  0.00    +0.053 C 
ATOM     23  H   UNL     1      -0.583  -0.313   2.708  0.00  0.00    +0.155 HD
ENDBRANCH   9  10
ENDBRANCH   1   9
BRANCH   4  24
ATOM     24  C   UNL     1      -1.185  -4.490  -3.616  0.00  0.00    +0.117 C 
BRANCH  24  25
ATOM     25  C   UNL     1      -1.984  -5.623  -3.025  0.00  0.00    -0.026 A 
ATOM     26  C   UNL     1      -3.132  -5.356  -2.304  0.00  0.00    +0.008 A 
ATOM     27  C   UNL     1      -3.865  -6.395  -1.761  0.00  0.00    +0.038 A 
ATOM     28  C   UNL     1      -3.449  -7.703  -1.940  0.00  0.00    +0.123 A 
ATOM     29  C   UNL     1      -2.298  -7.969  -2.663  0.00  0.00    +0.038 A 
ATOM     30  C   UNL     1      -1.569  -6.929  -3.209  0.00  0.00    +0.008 A 
ATOM     31  F   UNL     1      -4.164  -8.719  -1.410  0.00  0.00    -0.205 F 
ENDBRANCH  24  25
BRANCH  24  32
ATOM     32  C   UNL     1      -1.841  -4.026  -4.892  0.00  0.00    -0.026 A 
ATOM     33  C   UNL     1      -2.931  -3.178  -4.839  0.00  0.00    +0.008 A 
ATOM     34  C   UNL     1      -3.533  -2.752  -6.008  0.00  0.00    +0.038 A 
ATOM     35  C   UNL     1      -3.042  -3.174  -7.232  0.00  0.00    +0.123 A 
ATOM     36  C   UNL     1      -1.950  -4.023  -7.284  0.00  0.00    +0.038 A 
ATOM     37  C   UNL     1      -1.347  -4.444  -6.113  0.00  0.00    +0.008 A 
ATOM     38  F   UNL     1      -3.630  -2.758  -8.376  0.00  0.00    -0.205 F 
ENDBRANCH  24  32
ENDBRANCH   4  24
TORSDOF 5
