REMARK  Name = ZINC46645076
REMARK  7 active torsions:
REMARK  status: ('A' for Active; 'I' for Inactive)
REMARK    1  A    between atoms: C_1  and  C_2
REMARK    2  A    between atoms: C_2  and  C_4
REMARK    3  A    between atoms: C_2  and  N_26
REMARK    4  A    between atoms: C_4  and  N_5
REMARK    5  A    between atoms: C_6  and  C_8
REMARK    6  A    between atoms: C_12  and  S_14
REMARK    7  A    between atoms: S_14  and  N_17
REMARK                            x       y       z     vdW  Elec       q    Type
REMARK                         _______ _______ _______ _____ _____    ______ ____
ROOT
ATOM      1  C   UNL     1       2.168  -3.673  -2.350  0.00  0.00    +0.039 A 
ATOM      2  C   UNL     1       1.790  -4.505  -1.295  0.00  0.00    +0.013 A 
ATOM      3  C   UNL     1       2.153  -5.836  -1.306  0.00  0.00    +0.003 A 
ATOM      4  C   UNL     1       2.892  -6.346  -2.360  0.00  0.00    +0.029 A 
ATOM      5  C   UNL     1       3.270  -5.526  -3.408  0.00  0.00    +0.109 A 
ATOM      6  C   UNL     1       2.908  -4.195  -3.412  0.00  0.00    +0.041 A 
ENDROOT
BRANCH   1   8
ATOM      7  N   UNL     1       1.067  -1.745  -1.318  0.00  0.00    -0.313 N 
ATOM      8  C   UNL     1       1.782  -2.246  -2.345  0.00  0.00    +0.244 C 
ATOM      9  O   UNL     1       2.108  -1.524  -3.268  0.00  0.00    -0.270 OA
ATOM     10  H   UNL     1       0.807  -2.320  -0.582  0.00  0.00    +0.149 HD
BRANCH   7  11
ATOM     11  C   UNL     1       0.685  -0.331  -1.313  0.00  0.00    +0.089 C 
BRANCH  11  13
ATOM     12  C   UNL     1      -0.311   1.506   0.058  0.00  0.00    -0.012 C 
ATOM     13  C   UNL     1       0.005   0.009   0.015  0.00  0.00    -0.054 C 
BRANCH  13  14
ATOM     14  N   UNL     1       0.902  -0.334   1.126  0.00  0.00    +0.385 N 
ATOM     15  C   UNL     1       0.204  -0.107   2.399  0.00  0.00    -0.073 C 
ATOM     16  C   UNL     1       1.007  -0.770   3.531  0.00  0.00    +0.024 C 
ATOM     17  C   UNL     1       2.438  -0.378   3.358  0.00  0.00    -0.011 A 
ATOM     18  C   UNL     1       2.991   0.199   2.254  0.00  0.00    -0.054 A 
ATOM     19  C   UNL     1       4.353   0.484   2.318  0.00  0.00    +0.009 A 
ATOM     20  C   UNL     1       5.055   0.185   3.436  0.00  0.00    +0.045 A 
ATOM     21  S   UNL     1       3.796  -0.533   4.482  0.00  0.00    -0.101 S 
ATOM     22  C   UNL     1       2.114   0.490   1.041  0.00  0.00    -0.042 C 
ATOM     23  H   UNL     1       1.157  -1.308   1.058  0.00  0.00    -0.081 HD
ENDBRANCH  13  14
ENDBRANCH  11  13
ENDBRANCH   7  11
ENDBRANCH   1   8
BRANCH   5  24
ATOM     24  S   UNL     1       4.210  -6.186  -4.744  0.00  0.00    +0.075 S 
ATOM     25  O   UNL     1       4.903  -5.093  -5.332  0.00  0.00    -0.150 OA
ATOM     26  O   UNL     1       4.883  -7.332  -4.241  0.00  0.00    -0.150 OA
BRANCH  24  27
ATOM     27  N   UNL     1       3.134  -6.729  -5.879  0.00  0.00    -0.202 N 
ATOM     28  C   UNL     1       2.574  -8.083  -5.925  0.00  0.00    +0.136 C 
ATOM     29  C   UNL     1       1.639  -8.091  -7.146  0.00  0.00    +0.058 C 
ATOM     30  C   UNL     1       1.747  -6.694  -7.716  0.00  0.00    -0.023 A 
ATOM     31  C   UNL     1       2.623  -5.963  -6.928  0.00  0.00    +0.054 A 
ATOM     32  C   UNL     1       2.879  -4.631  -7.258  0.00  0.00    +0.025 A 
ATOM     33  C   UNL     1       2.264  -4.053  -8.348  0.00  0.00    +0.002 A 
ATOM     34  C   UNL     1       1.389  -4.790  -9.125  0.00  0.00    +0.000 A 
ATOM     35  C   UNL     1       1.137  -6.113  -8.810  0.00  0.00    +0.005 A 
ENDBRANCH  24  27
ENDBRANCH   5  24
TORSDOF 6
