REMARK  Name = ZINC43773486
REMARK  10 active torsions:
REMARK  status: ('A' for Active; 'I' for Inactive)
REMARK    1  A    between atoms: C_1  and  C_2
REMARK    2  A    between atoms: C_6  and  C_38
REMARK    3  A    between atoms: C_7  and  N_8
REMARK    4  A    between atoms: N_8  and  S_9
REMARK    5  A    between atoms: S_9  and  C_12
REMARK    6  A    between atoms: C_25  and  C_28
REMARK    7  A    between atoms: C_32  and  O_36
REMARK    8  A    between atoms: C_33  and  O_34
REMARK    9  A    between atoms: O_34  and  C_35
REMARK   10  A    between atoms: O_36  and  C_37
REMARK                            x       y       z     vdW  Elec       q    Type
REMARK                         _______ _______ _______ _____ _____    ______ ____
ROOT
ATOM      1  C   UNL     1       2.106  -2.002   4.262  0.00  0.00    +0.109 A 
ATOM      2  C   UNL     1       2.523  -3.254   3.846  0.00  0.00    +0.030 A 
ATOM      3  C   UNL     1       3.853  -3.605   3.956  0.00  0.00    +0.025 A 
ATOM      4  C   UNL     1       4.773  -2.702   4.482  0.00  0.00    +0.031 A 
ATOM      5  C   UNL     1       4.358  -1.447   4.888  0.00  0.00    -0.018 A 
ATOM      6  C   UNL     1       3.018  -1.103   4.775  0.00  0.00    +0.034 A 
ATOM      7  C   UNL     1       5.314  -0.421   5.430  0.00  0.00    +0.049 C 
ATOM      8  C   UNL     1       5.093   0.872   4.661  0.00  0.00    -0.023 C 
ATOM      9  C   UNL     1       6.023   1.036   3.758  0.00  0.00    -0.030 C 
ATOM     10  C   UNL     1       7.014  -0.109   3.787  0.00  0.00    +0.033 C 
ATOM     11  C   UNL     1       6.777  -0.774   5.179  0.00  0.00    +0.029 C 
ATOM     12  C   UNL     1       7.115  -2.235   5.197  0.00  0.00    +0.109 C 
ATOM     13  N   UNL     1       6.105  -3.085   4.597  0.00  0.00    -0.336 N 
ATOM     14  H   UNL     1       6.364  -3.966   4.284  0.00  0.00    +0.147 HD
ENDROOT
BRANCH  12  15
ATOM     15  C   UNL     1       7.344  -2.655   6.626  0.00  0.00    +0.018 A 
ATOM     16  C   UNL     1       6.929  -1.838   7.661  0.00  0.00    +0.009 A 
ATOM     17  C   UNL     1       7.138  -2.220   8.973  0.00  0.00    +0.004 A 
ATOM     18  C   UNL     1       7.764  -3.420   9.256  0.00  0.00    +0.049 A 
ATOM     19  C   UNL     1       8.182  -4.243   8.223  0.00  0.00    +0.162 A 
ATOM     20  C   UNL     1       7.966  -3.861   6.902  0.00  0.00    +0.166 A 
BRANCH  20  21
ATOM     21  O   UNL     1       8.370  -4.668   5.885  0.00  0.00    -0.491 OA
ATOM     22  C   UNL     1       9.730  -4.549   5.463  0.00  0.00    +0.277 C 
ENDBRANCH  20  21
BRANCH  19  23
ATOM     23  O   UNL     1       8.798  -5.424   8.499  0.00  0.00    -0.491 OA
ATOM     24  C   UNL     1       8.981  -5.753   9.878  0.00  0.00    +0.277 C 
ENDBRANCH  19  23
ENDBRANCH  12  15
BRANCH   1  25
ATOM     25  S   UNL     1       0.407  -1.553   4.131  0.00  0.00    +0.072 S 
ATOM     26  O   UNL     1       0.154  -0.613   5.166  0.00  0.00    -0.150 OA
ATOM     27  O   UNL     1      -0.325  -2.765   4.007  0.00  0.00    -0.150 OA
BRANCH  25  28
ATOM     28  N   UNL     1       0.224  -0.742   2.699  0.00  0.00    -0.216 N 
ATOM     29  H   UNL     1      -0.017   0.198   2.701  0.00  0.00    +0.174 HD
BRANCH  28  36
ATOM     30  C   UNL     1       2.491  -0.044   1.128  0.00  0.00    +0.046 C 
ATOM     31  C   UNL     1       1.511  -1.101   0.689  0.00  0.00    -0.028 A 
ATOM     32  C   UNL     1       1.701  -1.768  -0.505  0.00  0.00    +0.005 A 
ATOM     33  C   UNL     1       0.802  -2.738  -0.909  0.00  0.00    +0.001 A 
ATOM     34  C   UNL     1      -0.290  -3.044  -0.118  0.00  0.00    +0.005 A 
ATOM     35  C   UNL     1      -0.487  -2.382   1.077  0.00  0.00    -0.028 A 
ATOM     36  C   UNL     1       0.417  -1.410   1.488  0.00  0.00    +0.054 A 
ATOM     37  C   UNL     1      -1.678  -2.716   1.938  0.00  0.00    +0.046 C 
ENDBRANCH  28  36
ENDBRANCH  25  28
ENDBRANCH   1  25
TORSDOF 6
