REMARK  Name = ZINC63234615
REMARK  6 active torsions:
REMARK  status: ('A' for Active; 'I' for Inactive)
REMARK    1  A    between atoms: C_7  and  C_10
REMARK    2  A    between atoms: C_10  and  C_11
REMARK    3  A    between atoms: C_11  and  C_13
REMARK    4  A    between atoms: C_11  and  N_24
REMARK    5  A    between atoms: N_15  and  C_16
REMARK    6  A    between atoms: C_25  and  C_27
REMARK                            x       y       z     vdW  Elec       q    Type
REMARK                         _______ _______ _______ _____ _____    ______ ____
ROOT
ATOM      1  C   UNL     1       0.456  -3.652  -1.478  0.00  0.00    +0.163 C 
ENDROOT
BRANCH   1   2
ATOM      2  C   UNL     1      -0.578  -4.749  -1.475  0.00  0.00    +0.238 C 
ATOM      3  O   UNL     1      -0.231  -5.909  -1.546  0.00  0.00    -0.273 OA
ATOM      4  N   UNL     1      -1.887  -4.441  -1.394  0.00  0.00    -0.282 N 
ATOM      5  H   UNL     1      -2.162  -3.521  -1.257  0.00  0.00    +0.155 HD
BRANCH   4   6
ATOM      6  C   UNL     1      -2.853  -5.450  -1.508  0.00  0.00    +0.069 A 
ATOM      7  C   UNL     1      -2.556  -6.622  -2.191  0.00  0.00    +0.027 A 
ATOM      8  C   UNL     1      -3.510  -7.615  -2.302  0.00  0.00    +0.017 A 
ATOM      9  C   UNL     1      -4.760  -7.444  -1.734  0.00  0.00    +0.021 A 
ATOM     10  C   UNL     1      -5.059  -6.278  -1.053  0.00  0.00    +0.055 A 
ATOM     11  C   UNL     1      -4.107  -5.282  -0.933  0.00  0.00    +0.146 A 
ATOM     12  F   UNL     1      -4.398  -4.145  -0.263  0.00  0.00    -0.204 F 
ATOM     13 BR   UNL     1      -6.061  -8.807  -1.890  0.00  0.00    -0.050 Br
ENDBRANCH   4   6
ENDBRANCH   1   2
BRANCH   1  14
ATOM     14  N   UNL     1       1.709  -4.163  -2.039  0.00  0.00    -0.299 N 
ATOM     15  C   UNL     1       2.337  -5.200  -1.451  0.00  0.00    +0.251 C 
ATOM     16  O   UNL     1       1.863  -5.713  -0.454  0.00  0.00    -0.270 OA
ATOM     17  H   UNL     1       2.087  -3.754  -2.833  0.00  0.00    +0.150 HD
BRANCH  15  18
ATOM     18  C   UNL     1       3.591  -5.712  -2.012  0.00  0.00    +0.074 A 
ATOM     19  C   UNL     1       4.383  -6.760  -1.569  0.00  0.00    +0.021 A 
ATOM     20  C   UNL     1       5.514  -7.007  -2.310  0.00  0.00    +0.008 A 
ATOM     21  C   UNL     1       5.775  -6.234  -3.393  0.00  0.00    +0.046 A 
ATOM     22  S   UNL     1       4.491  -5.152  -3.446  0.00  0.00    -0.092 S 
ENDBRANCH  15  18
ENDBRANCH   1  14
BRANCH   1  23
ATOM     23  C   UNL     1       0.696  -3.174  -0.044  0.00  0.00    +0.065 C 
BRANCH  23  30
ATOM     24  C   UNL     1      -0.015   1.359  -0.038  0.00  0.00    +0.001 A 
ATOM     25  C   UNL     1       1.167   2.113  -0.056  0.00  0.00    +0.002 A 
ATOM     26  C   UNL     1       2.392   1.548  -0.072  0.00  0.00    +0.026 A 
ATOM     27  C   UNL     1       2.531   0.132  -0.073  0.00  0.00    +0.043 A 
ATOM     28  N   UNL     1       3.590  -0.641  -0.087  0.00  0.00    -0.380 N 
ATOM     29  C   UNL     1       3.147  -2.040  -0.080  0.00  0.00    +0.144 C 
ATOM     30  C   UNL     1       1.636  -1.996  -0.058  0.00  0.00    -0.039 C 
ATOM     31  C   UNL     1       1.298  -0.687  -0.054  0.00  0.00    -0.001 A 
ATOM     32  C   UNL     1       0.005   0.007  -0.036  0.00  0.00    +0.010 A 
ATOM     33  H   UNL     1       4.511  -0.339  -0.101  0.00  0.00    +0.160 HD
ENDBRANCH  23  30
ENDBRANCH   1  23
TORSDOF 6
