REMARK  Name = ZINC33810167
REMARK  10 active torsions:
REMARK  status: ('A' for Active; 'I' for Inactive)
REMARK    1  A    between atoms: C_1  and  C_2
REMARK    2  A    between atoms: C_2  and  C_3
REMARK    3  A    between atoms: C_3  and  S_4
REMARK    4  A    between atoms: S_4  and  C_5
REMARK    5  A    between atoms: C_12  and  C_22
REMARK    6  A    between atoms: C_25  and  N_28
REMARK    7  A    between atoms: N_28  and  C_29
REMARK    8  A    between atoms: N_28  and  C_31
REMARK    9  A    between atoms: C_29  and  C_30
REMARK   10  A    between atoms: C_31  and  C_32
REMARK                            x       y       z     vdW  Elec       q    Type
REMARK                         _______ _______ _______ _____ _____    ______ ____
ROOT
ATOM      1  C   UNL     1       3.753  -1.559   1.149  0.00  0.00    +0.171 A 
ATOM      2  N   UNL     1       3.658  -0.255   0.764  0.00  0.00    -0.208 NA
ATOM      3  C   UNL     1       2.447   0.265   0.392  0.00  0.00    +0.135 A 
ATOM      4  C   UNL     1       1.345  -0.533   0.410  0.00  0.00    +0.069 A 
ATOM      5  C   UNL     1       1.485  -1.877   0.818  0.00  0.00    +0.258 A 
ATOM      6  O   UNL     1       0.511  -2.615   0.848  0.00  0.00    -0.267 OA
ATOM      7  N   UNL     1       2.693  -2.341   1.172  0.00  0.00    -0.302 N 
ATOM      8  C   UNL     1       0.002  -0.004   0.002  0.00  0.00    +0.092 C 
ATOM      9  C   UNL     1      -0.018   1.503   0.010  0.00  0.00    +0.024 C 
ATOM     10  C   UNL     1       1.129   2.214   0.003  0.00  0.00    +0.017 C 
ATOM     11  N   UNL     1       2.342   1.581   0.003  0.00  0.00    -0.302 N 
ATOM     12  C   UNL     1       1.109   3.723  -0.011  0.00  0.00    +0.051 C 
ATOM     13  C   UNL     1      -0.132   4.228   0.727  0.00  0.00    +0.014 C 
ATOM     14  C   UNL     1      -1.373   3.647   0.042  0.00  0.00    +0.080 C 
ATOM     15  C   UNL     1      -1.268   2.147   0.032  0.00  0.00    +0.162 C 
ATOM     16  O   UNL     1      -2.283   1.478   0.037  0.00  0.00    -0.292 OA
ATOM     17  H   UNL     1       3.239   2.134  -0.312  0.00  0.00    +0.153 HD
ATOM     18  H   UNL     1       2.791  -3.390   1.486  0.00  0.00    +0.171 HD
ENDROOT
BRANCH   8  19
ATOM     19  C   UNL     1      -0.319  -0.494  -1.386  0.00  0.00    -0.035 A 
ATOM     20  C   UNL     1       0.487  -0.133  -2.450  0.00  0.00    +0.006 A 
ATOM     21  C   UNL     1       0.199  -0.585  -3.722  0.00  0.00    +0.023 A 
ATOM     22  C   UNL     1      -0.910  -1.395  -3.935  0.00  0.00    +0.030 A 
ATOM     23  C   UNL     1      -1.721  -1.751  -2.866  0.00  0.00    +0.023 A 
ATOM     24  C   UNL     1      -1.424  -1.300  -1.595  0.00  0.00    +0.006 A 
BRANCH  22  25
ATOM     25  N   UNL     1      -1.208  -1.849  -5.222  0.00  0.00    -0.330 N 
BRANCH  25  26
ATOM     26  C   UNL     1      -0.351  -1.471  -6.349  0.00  0.00    +0.102 C 
ATOM     27  C   UNL     1       0.759  -2.511  -6.516  0.00  0.00    +0.024 C 
ENDBRANCH  25  26
BRANCH  25  28
ATOM     28  C   UNL     1      -2.378  -2.702  -5.445  0.00  0.00    +0.102 C 
ATOM     29  C   UNL     1      -3.596  -1.828  -5.747  0.00  0.00    +0.024 C 
ENDBRANCH  25  28
ENDBRANCH  22  25
ENDBRANCH   8  19
BRANCH   1  30
ATOM     30  S   UNL     1       5.320  -2.210   1.621  0.00  0.00    -0.088 S 
BRANCH  30  31
ATOM     31  C   UNL     1       4.848  -3.913   2.013  0.00  0.00    +0.077 C 
BRANCH  31  33
ATOM     32  C   UNL     1       5.684  -6.134   2.793  0.00  0.00    +0.004 C 
ATOM     33  C   UNL     1       6.084  -4.695   2.462  0.00  0.00    +0.008 C 
ENDBRANCH  31  33
ENDBRANCH  30  31
ENDBRANCH   1  30
TORSDOF 7
