REMARK  Name = ZINC05541652
REMARK  6 active torsions:
REMARK  status: ('A' for Active; 'I' for Inactive)
REMARK    1  A    between atoms: C_1  and  C_2
REMARK    2  A    between atoms: C_11  and  C_15
REMARK    3  A    between atoms: C_11  and  C_20
REMARK    4  A    between atoms: C_12  and  O_14
REMARK    5  A    between atoms: C_15  and  N_53
REMARK    6  A    between atoms: C_20  and  N_55
REMARK                            x       y       z     vdW  Elec       q    Type
REMARK                         _______ _______ _______ _____ _____    ______ ____
ROOT
ATOM      1  C   UNL     1      -2.594   2.871   0.931  0.00  0.00    +0.044 C 
ATOM      2  C   UNL     1      -1.137   2.556   0.710  0.00  0.00    -0.049 A 
ATOM      3  C   UNL     1      -0.202   3.572   0.714  0.00  0.00    +0.013 A 
ATOM      4  C   UNL     1       1.139   3.290   0.512  0.00  0.00    +0.024 A 
ATOM      5  C   UNL     1       1.545   1.983   0.310  0.00  0.00    +0.140 A 
ATOM      6  C   UNL     1       0.600   0.961   0.305  0.00  0.00    +0.060 A 
ATOM      7  C   UNL     1      -0.736   1.249   0.500  0.00  0.00    +0.022 A 
ATOM      8 BR   UNL     1       1.147  -0.828   0.025  0.00  0.00    -0.046 Br
ATOM      9  O   UNL     1       2.851   1.660   0.120  0.00  0.00    -0.490 OA
ATOM     10  C   UNL     1       3.752   2.707  -0.240  0.00  0.00    +0.235 C 
ATOM     11  C   UNL     1       3.543   3.880   0.727  0.00  0.00    +0.006 C 
ATOM     12  C   UNL     1       2.129   4.428   0.518  0.00  0.00    +0.154 C 
ENDROOT
BRANCH  12  13
ATOM     13  O   UNL     1       2.066   5.119  -0.731  0.00  0.00    -0.387 OA
ATOM     14  H   UNL     1       1.181   5.431  -0.964  0.00  0.00    +0.210 HD
ENDBRANCH  12  13
BRANCH  11  15
ATOM     15  C   UNL     1       4.569   4.977   0.438  0.00  0.00    -0.068 C 
BRANCH  15  20
ATOM     16  C   UNL     1       6.375   3.348   0.554  0.00  0.00    -0.079 C 
ATOM     17  C   UNL     1       7.882   3.415   0.906  0.00  0.00    -0.020 C 
ATOM     18  C   UNL     1       8.225   4.905   0.674  0.00  0.00    -0.020 C 
ATOM     19  C   UNL     1       6.880   5.647   0.775  0.00  0.00    -0.079 C 
ATOM     20  N   UNL     1       5.873   4.628   1.077  0.00  0.00    +0.380 N 
ATOM     21  H   UNL     1       5.743   4.561   2.093  0.00  0.00    -0.082 HD
ENDBRANCH  15  20
ENDBRANCH  11  15
BRANCH  11  22
ATOM     22  C   UNL     1       3.700   3.394   2.170  0.00  0.00    -0.068 C 
BRANCH  22  27
ATOM     23  C   UNL     1       2.970   5.563   3.003  0.00  0.00    -0.079 C 
ATOM     24  C   UNL     1       3.218   6.371   4.301  0.00  0.00    -0.020 C 
ATOM     25  C   UNL     1       3.646   5.281   5.311  0.00  0.00    -0.020 C 
ATOM     26  C   UNL     1       4.149   4.109   4.448  0.00  0.00    -0.079 C 
ATOM     27  N   UNL     1       4.035   4.548   3.057  0.00  0.00    +0.380 N 
ATOM     28  H   UNL     1       4.924   4.962   2.750  0.00  0.00    -0.082 HD
ENDBRANCH  22  27
ENDBRANCH  11  22
TORSDOF 5
