REMARK  Name = ZINC00622501
REMARK  8 active torsions:
REMARK  status: ('A' for Active; 'I' for Inactive)
REMARK    1  A    between atoms: C_1  and  C_2
REMARK    2  A    between atoms: C_5  and  S_8
REMARK    3  A    between atoms: S_8  and  N_11
REMARK    4  A    between atoms: N_11  and  C_12
REMARK    5  A    between atoms: N_11  and  C_20
REMARK    6  A    between atoms: C_12  and  C_13
REMARK    7  A    between atoms: C_20  and  C_21
REMARK    8  A    between atoms: N_23  and  C_24
REMARK                            x       y       z     vdW  Elec       q    Type
REMARK                         _______ _______ _______ _____ _____    ______ ____
ROOT
ATOM      1  N   UNL     1       1.246   4.374   1.621  0.00  0.00    -0.163 NA
ENDROOT
BRANCH   1   2
ATOM      2  S   UNL     1       1.217   3.727   0.097  0.00  0.00    +0.062 S 
ATOM      3  O   UNL     1       2.452   4.073  -0.515  0.00  0.00    -0.153 OA
ATOM      4  O   UNL     1      -0.038   4.077  -0.470  0.00  0.00    -0.153 OA
BRANCH   2   9
ATOM      5  C   UNL     1       1.218  -2.276   0.704  0.00  0.00    +0.044 C 
ATOM      6  C   UNL     1       1.218  -0.777   0.553  0.00  0.00    -0.050 A 
ATOM      7  C   UNL     1       0.021  -0.087   0.505  0.00  0.00    +0.005 A 
ATOM      8  C   UNL     1       0.020   1.288   0.366  0.00  0.00    +0.029 A 
ATOM      9  C   UNL     1       1.217   1.974   0.275  0.00  0.00    +0.106 A 
ATOM     10  C   UNL     1       2.414   1.284   0.322  0.00  0.00    +0.029 A 
ATOM     11  C   UNL     1       2.414  -0.091   0.461  0.00  0.00    +0.005 A 
ENDBRANCH   2   9
ENDBRANCH   1   2
BRANCH   1  12
ATOM     12  C   UNL     1       2.527   4.658   2.272  0.00  0.00    +0.146 C 
BRANCH  12  13
ATOM     13  C   UNL     1       2.903   6.097   2.033  0.00  0.00    -0.013 A 
ATOM     14  C   UNL     1       2.026   6.942   1.379  0.00  0.00    +0.006 A 
ATOM     15  C   UNL     1       2.370   8.263   1.163  0.00  0.00    +0.000 A 
ATOM     16  C   UNL     1       3.595   8.739   1.594  0.00  0.00    +0.001 A 
ATOM     17  C   UNL     1       4.474   7.894   2.244  0.00  0.00    +0.020 A 
ATOM     18  C   UNL     1       4.129   6.572   2.464  0.00  0.00    +0.045 A 
ATOM     19 CL   UNL     1       5.234   5.510   3.280  0.00  0.00    -0.083 Cl
ENDBRANCH  12  13
ENDBRANCH   1  12
BRANCH   1  20
ATOM     20  C   UNL     1      -0.010   4.662   2.318  0.00  0.00    +0.205 C 
BRANCH  20  21
ATOM     21  C   UNL     1      -0.330   3.534   3.265  0.00  0.00    +0.233 C 
ATOM     22  O   UNL     1       0.418   2.583   3.349  0.00  0.00    -0.274 OA
ATOM     23  N   UNL     1      -1.446   3.582   4.018  0.00  0.00    -0.283 N 
ATOM     24  H   UNL     1      -2.005   4.375   4.007  0.00  0.00    +0.155 HD
BRANCH  23  25
ATOM     25  C   UNL     1      -1.799   2.488   4.817  0.00  0.00    +0.052 A 
ATOM     26  C   UNL     1      -0.812   1.706   5.402  0.00  0.00    +0.026 A 
ATOM     27  C   UNL     1      -1.163   0.627   6.190  0.00  0.00    +0.022 A 
ATOM     28  C   UNL     1      -2.498   0.325   6.397  0.00  0.00    +0.042 A 
ATOM     29  C   UNL     1      -3.484   1.101   5.816  0.00  0.00    +0.041 A 
ATOM     30  C   UNL     1      -3.139   2.185   5.030  0.00  0.00    +0.064 A 
ATOM     31 CL   UNL     1      -4.377   3.163   4.306  0.00  0.00    -0.082 Cl
ATOM     32 CL   UNL     1      -2.935  -1.032   7.388  0.00  0.00    -0.083 Cl
ENDBRANCH  23  25
ENDBRANCH  20  21
ENDBRANCH   1  20
TORSDOF 7
