REMARK  Name = ZINC40064024
REMARK  8 active torsions:
REMARK  status: ('A' for Active; 'I' for Inactive)
REMARK    1  A    between atoms: C_1  and  C_2
REMARK    2  A    between atoms: C_12  and  C_13
REMARK    3  A    between atoms: N_16  and  C_32
REMARK    4  A    between atoms: C_17  and  C_19
REMARK    5  A    between atoms: C_23  and  O_25
REMARK    6  A    between atoms: O_25  and  C_26
REMARK    7  A    between atoms: C_32  and  C_33
REMARK    8  A    between atoms: C_33  and  O_34
REMARK                            x       y       z     vdW  Elec       q    Type
REMARK                         _______ _______ _______ _____ _____    ______ ____
ROOT
ATOM      1  C   UNL     1      -2.060   0.363   2.550  0.00  0.00    +0.044 C 
ATOM      2  C   UNL     1      -1.743  -1.067   2.196  0.00  0.00    -0.044 A 
ATOM      3  C   UNL     1      -1.697  -1.449   0.863  0.00  0.00    +0.004 A 
ATOM      4  C   UNL     1      -1.414  -2.743   0.526  0.00  0.00    +0.015 A 
ATOM      5  C   UNL     1      -1.171  -3.681   1.530  0.00  0.00    +0.065 A 
ATOM      6  C   UNL     1      -0.876  -5.094   1.183  0.00  0.00    +0.199 A 
ATOM      7  O   UNL     1      -0.661  -5.471   0.045  0.00  0.00    -0.287 OA
ATOM      8  C   UNL     1      -0.866  -5.993   2.342  0.00  0.00    +0.072 A 
ATOM      9  C   UNL     1      -0.915  -5.501   3.616  0.00  0.00    +0.199 A 
ATOM     10  O   UNL     1      -0.967  -4.182   3.884  0.00  0.00    -0.449 OA
ATOM     11  C   UNL     1      -1.209  -3.305   2.883  0.00  0.00    +0.143 A 
ATOM     12  C   UNL     1      -1.497  -1.977   3.199  0.00  0.00    -0.005 A 
ATOM     13  C   UNL     1      -1.546  -1.541   4.641  0.00  0.00    +0.048 C 
ATOM     14  C   UNL     1      -0.900  -6.639   4.552  0.00  0.00    +0.283 C 
ATOM     15  O   UNL     1      -0.937  -6.545   5.762  0.00  0.00    -0.267 OA
ATOM     16  N   UNL     1      -0.838  -7.800   3.869  0.00  0.00    -0.281 N 
ATOM     17  C   UNL     1      -0.811  -7.483   2.431  0.00  0.00    +0.145 C 
ENDROOT
BRANCH  17  18
ATOM     18  C   UNL     1       0.464  -7.994   1.810  0.00  0.00    -0.019 A 
ATOM     19  C   UNL     1       1.651  -7.927   2.516  0.00  0.00    +0.006 A 
ATOM     20  C   UNL     1       2.822  -8.395   1.949  0.00  0.00    +0.004 A 
ATOM     21  C   UNL     1       2.809  -8.930   0.675  0.00  0.00    +0.046 A 
ATOM     22  C   UNL     1       1.619  -8.998  -0.035  0.00  0.00    +0.129 A 
ATOM     23  C   UNL     1       0.444  -8.532   0.539  0.00  0.00    +0.052 A 
BRANCH  22  24
ATOM     24  O   UNL     1       1.603  -9.523  -1.288  0.00  0.00    -0.456 OA
BRANCH  24  25
ATOM     25  C   UNL     1       0.416  -9.562  -1.948  0.00  0.00    +0.128 A 
ATOM     26  C   UNL     1       0.029  -8.494  -2.745  0.00  0.00    +0.046 A 
ATOM     27  C   UNL     1      -1.178  -8.537  -3.416  0.00  0.00    +0.004 A 
ATOM     28  C   UNL     1      -2.000  -9.642  -3.293  0.00  0.00    +0.000 A 
ATOM     29  C   UNL     1      -1.617 -10.707  -2.499  0.00  0.00    +0.004 A 
ATOM     30  C   UNL     1      -0.407 -10.673  -1.832  0.00  0.00    +0.046 A 
ENDBRANCH  24  25
ENDBRANCH  22  24
ENDBRANCH  17  18
BRANCH  16  31
ATOM     31  C   UNL     1      -0.803  -9.143   4.454  0.00  0.00    +0.137 C 
BRANCH  31  32
ATOM     32  C   UNL     1      -2.232  -9.664   4.619  0.00  0.00    +0.175 C 
BRANCH  32  33
ATOM     33  O   UNL     1      -2.830  -9.829   3.332  0.00  0.00    -0.393 OA
ATOM     34  H   UNL     1      -3.739 -10.158   3.360  0.00  0.00    +0.209 HD
ENDBRANCH  32  33
ENDBRANCH  31  32
ENDBRANCH  16  31
TORSDOF 6
