REMARK  Name = ZINC08999642
REMARK  7 active torsions:
REMARK  status: ('A' for Active; 'I' for Inactive)
REMARK    1  A    between atoms: C_1  and  C_2
REMARK    2  A    between atoms: N_7  and  S_9
REMARK    3  A    between atoms: S_9  and  C_12
REMARK    4  A    between atoms: C_15  and  C_18
REMARK    5  A    between atoms: C_18  and  N_20
REMARK    6  A    between atoms: N_22  and  C_31
REMARK    7  A    between atoms: C_31  and  C_32
REMARK                            x       y       z     vdW  Elec       q    Type
REMARK                         _______ _______ _______ _____ _____    ______ ____
ROOT
ATOM      1  C   UNL     1      -1.898   2.539   1.708  0.00  0.00    +0.106 A 
ATOM      2  C   UNL     1      -2.673   1.599   2.363  0.00  0.00    +0.029 A 
ATOM      3  C   UNL     1      -3.019   1.787   3.686  0.00  0.00    +0.015 A 
ATOM      4  C   UNL     1      -2.595   2.932   4.359  0.00  0.00    +0.039 A 
ATOM      5  C   UNL     1      -1.818   3.879   3.691  0.00  0.00    +0.015 A 
ATOM      6  C   UNL     1      -1.474   3.678   2.370  0.00  0.00    +0.029 A 
ENDROOT
BRANCH   1   7
ATOM      7  S   UNL     1      -1.454   2.289   0.021  0.00  0.00    +0.061 S 
ATOM      8  O   UNL     1      -1.189   3.575  -0.524  0.00  0.00    -0.153 OA
ATOM      9  O   UNL     1      -2.429   1.414  -0.530  0.00  0.00    -0.153 OA
BRANCH   7  15
ATOM     10  C   UNL     1       3.510   2.322   1.085  0.00  0.00    +0.009 C 
ATOM     11  C   UNL     1       2.125   1.677   1.158  0.00  0.00    +0.002 C 
ATOM     12  C   UNL     1       2.263   0.156   1.052  0.00  0.00    +0.006 C 
ATOM     13  C   UNL     1       0.880  -0.492   1.159  0.00  0.00    +0.017 C 
ATOM     14  C   UNL     1       0.002  -0.004   0.002  0.00  0.00    +0.109 C 
ATOM     15  N   UNL     1      -0.018   1.465   0.010  0.00  0.00    -0.176 NA
ATOM     16  C   UNL     1       1.261   2.189   0.002  0.00  0.00    +0.112 C 
ENDBRANCH   7  15
ENDBRANCH   1   7
BRANCH   4  17
ATOM     17  C   UNL     1      -2.967   3.142   5.777  0.00  0.00    +0.269 C 
ATOM     18  O   UNL     1      -2.595   4.144   6.363  0.00  0.00    -0.268 OA
BRANCH  17  19
ATOM     19  N   UNL     1      -3.712   2.233   6.414  0.00  0.00    -0.152 NA
ATOM     20  C   UNL     1      -4.046   2.421   7.686  0.00  0.00    +0.167 A 
ATOM     21  N   UNL     1      -4.789   1.616   8.492  0.00  0.00    -0.317 N 
ATOM     22  C   UNL     1      -5.034   1.981   9.803  0.00  0.00    +0.058 A 
ATOM     23  C   UNL     1      -5.772   1.290  10.776  0.00  0.00    +0.028 A 
ATOM     24  C   UNL     1      -5.918   1.802  12.043  0.00  0.00    +0.022 A 
ATOM     25  C   UNL     1      -5.344   3.012  12.399  0.00  0.00    +0.042 A 
ATOM     26  C   UNL     1      -4.611   3.715  11.458  0.00  0.00    +0.037 A 
ATOM     27  C   UNL     1      -4.465   3.203  10.191  0.00  0.00    +0.040 A 
ATOM     28  S   UNL     1      -3.632   3.750   8.722  0.00  0.00    -0.052 S 
ATOM     29 CL   UNL     1      -5.542   3.639  14.006  0.00  0.00    -0.084 Cl
BRANCH  21  30
ATOM     30  C   UNL     1      -5.332   0.359   7.969  0.00  0.00    +0.151 C 
BRANCH  30  31
ATOM     31  C   UNL     1      -5.593   0.500   6.492  0.00  0.00    -0.013 C 
ATOM     32  C   UNL     1      -5.060  -0.349   5.648  0.00  0.00    +0.005 C 
ENDBRANCH  30  31
ENDBRANCH  21  30
ENDBRANCH  17  19
ENDBRANCH   4  17
TORSDOF 6
