REMARK  Name = ZINC33937035
REMARK  11 active torsions:
REMARK  status: ('A' for Active; 'I' for Inactive)
REMARK    1  A    between atoms: C_1  and  C_2
REMARK    2  A    between atoms: C_2  and  C_3
REMARK    3  A    between atoms: C_3  and  C_5
REMARK    4  A    between atoms: C_3  and  N_17
REMARK    5  A    between atoms: N_9  and  C_10
REMARK    6  A    between atoms: C_10  and  C_11
REMARK    7  A    between atoms: N_17  and  C_18
REMARK    8  A    between atoms: N_17  and  C_33
REMARK    9  A    between atoms: C_18  and  C_19
REMARK   10  A    between atoms: C_23  and  C_32
REMARK   11  A    between atoms: C_24  and  C_31
REMARK                            x       y       z     vdW  Elec       q    Type
REMARK                         _______ _______ _______ _____ _____    ______ ____
ROOT
ATOM      1  N   UNL     1      -0.116  -0.184  -2.654  0.00  0.00    +0.391 N 
ATOM      2  H   UNL     1      -1.021  -0.565  -2.420  0.00  0.00    -0.080 HD
ENDROOT
BRANCH   1   3
ATOM      3  C   UNL     1      -0.262   1.229  -3.029  0.00  0.00    -0.067 C 
ATOM      4  C   UNL     1       1.088   1.773  -3.500  0.00  0.00    -0.015 C 
ATOM      5  C   UNL     1       0.937   3.245  -3.890  0.00  0.00    -0.002 C 
ATOM      6  C   UNL     1       0.459   4.047  -2.678  0.00  0.00    -0.000 C 
ATOM      7  C   UNL     1      -0.891   3.503  -2.207  0.00  0.00    -0.002 C 
ATOM      8  C   UNL     1      -0.740   2.031  -1.817  0.00  0.00    -0.015 C 
ENDBRANCH   1   3
BRANCH   1   9
ATOM      9  C   UNL     1       0.777  -0.293  -1.493  0.00  0.00    +0.003 C 
BRANCH   9  10
ATOM     10  C   UNL     1       2.190   0.019  -1.914  0.00  0.00    +0.138 A 
ATOM     11  N   UNL     1       2.801  -0.420  -2.987  0.00  0.00    -0.115 NA
ATOM     12  N   UNL     1       3.993   0.069  -2.993  0.00  0.00    -0.023 NA
ATOM     13  N   UNL     1       4.158   0.808  -1.952  0.00  0.00    -0.044 NA
ATOM     14  N   UNL     1       3.066   0.807  -1.265  0.00  0.00    -0.228 N 
BRANCH  14  15
ATOM     15  C   UNL     1       2.827   1.525  -0.011  0.00  0.00    +0.178 C 
BRANCH  15  16
ATOM     16  C   UNL     1       3.219   0.634   1.170  0.00  0.00    +0.140 C 
ATOM     17  C   UNL     1       3.059   1.408   2.503  0.00  0.00    +0.035 C 
ATOM     18  C   UNL     1       2.859   0.235   3.502  0.00  0.00    +0.031 C 
ATOM     19  C   UNL     1       2.079  -0.790   2.651  0.00  0.00    +0.160 C 
ATOM     20  O   UNL     1       2.320  -0.482   1.272  0.00  0.00    -0.375 OA
ENDBRANCH  15  16
ENDBRANCH  14  15
ENDBRANCH   9  10
BRANCH   9  22
ATOM     21  C   UNL     1      -0.701  -2.002  -0.426  0.00  0.00    +0.002 C 
ATOM     22  C   UNL     1       0.714  -1.716  -0.933  0.00  0.00    -0.011 C 
ENDBRANCH   9  22
ENDBRANCH   1   9
BRANCH   1  23
ATOM     23  C   UNL     1       0.454  -0.933  -3.782  0.00  0.00    -0.036 C 
BRANCH  23  24
ATOM     24  C   UNL     1      -0.549  -0.990  -4.905  0.00  0.00    +0.001 A 
ATOM     25  C   UNL     1      -0.473  -0.099  -5.925  0.00  0.00    +0.017 A 
ATOM     26  C   UNL     1      -1.462  -0.182  -7.001  0.00  0.00    -0.001 A 
ATOM     27  C   UNL     1      -1.435   0.709  -8.079  0.00  0.00    +0.013 A 
ATOM     28  C   UNL     1      -2.372   0.606  -9.067  0.00  0.00    -0.047 A 
ATOM     29  C   UNL     1      -3.352  -0.376  -9.011  0.00  0.00    -0.046 A 
ATOM     30  C   UNL     1      -3.399  -1.264  -7.958  0.00  0.00    +0.030 A 
ATOM     31  C   UNL     1      -2.454  -1.178  -6.941  0.00  0.00    +0.049 A 
ATOM     32  N   UNL     1      -2.477  -2.054  -5.876  0.00  0.00    -0.322 N 
ATOM     33  H   UNL     1      -3.161  -2.740  -5.836  0.00  0.00    +0.169 HD
ATOM     34  C   UNL     1      -1.561  -1.974  -4.895  0.00  0.00    +0.251 A 
ATOM     35  O   UNL     1      -1.608  -2.768  -3.972  0.00  0.00    -0.268 OA
ATOM     36  C   UNL     1      -4.376  -0.471 -10.113  0.00  0.00    +0.044 C 
ATOM     37  C   UNL     1      -2.342   1.566 -10.229  0.00  0.00    +0.044 C 
ENDBRANCH  23  24
ENDBRANCH   1  23
TORSDOF 8
