REMARK  Name = ZINC35745152
REMARK  15 active torsions:
REMARK  status: ('A' for Active; 'I' for Inactive)
REMARK    1  A    between atoms: C_1  and  C_2
REMARK    2  A    between atoms: C_2  and  C_3
REMARK    3  A    between atoms: C_3  and  N_4
REMARK    4  A    between atoms: N_4  and  C_5
REMARK    5  A    between atoms: N_4  and  C_13
REMARK    6  A    between atoms: C_5  and  C_6
REMARK    7  A    between atoms: C_13  and  C_14
REMARK    8  A    between atoms: C_17  and  C_19
REMARK    9  A    between atoms: C_19  and  C_20
REMARK   10  A    between atoms: C_19  and  C_28
REMARK   11  A    between atoms: C_19  and  O_36
REMARK   12  A    between atoms: C_23  and  O_26
REMARK   13  A    between atoms: O_26  and  C_27
REMARK   14  A    between atoms: C_31  and  O_34
REMARK   15  A    between atoms: O_34  and  C_35
REMARK                            x       y       z     vdW  Elec       q    Type
REMARK                         _______ _______ _______ _____ _____    ______ ____
ROOT
ATOM      1  C   UNL     1      -0.749  -2.732   4.484  0.00  0.00    +0.089 A 
ATOM      2  C   UNL     1      -1.845  -2.979   5.223  0.00  0.00    +0.043 A 
ATOM      3  C   UNL     1      -2.074  -1.829   6.012  0.00  0.00    +0.048 A 
ATOM      4  C   UNL     1      -1.103  -0.948   5.708  0.00  0.00    +0.146 A 
ATOM      5  O   UNL     1      -0.300  -1.503   4.786  0.00  0.00    -0.463 OA
ENDROOT
BRANCH   1   6
ATOM      6  C   UNL     1      -0.126  -3.678   3.489  0.00  0.00    -0.003 C 
BRANCH   6   7
ATOM      7  N   UNL     1      -0.713  -3.450   2.162  0.00  0.00    +0.387 N 
ATOM      8  H   UNL     1      -1.717  -3.532   2.220  0.00  0.00    -0.081 HD
BRANCH   7   9
ATOM      9  C   UNL     1      -0.358  -2.104   1.694  0.00  0.00    -0.078 C 
BRANCH   9  11
ATOM     10  C   UNL     1      -0.831  -0.362  -0.033  0.00  0.00    +0.002 C 
ATOM     11  C   UNL     1      -1.087  -1.812   0.380  0.00  0.00    -0.022 C 
ENDBRANCH   9  11
ENDBRANCH   7   9
BRANCH   7  12
ATOM     12  C   UNL     1      -0.195  -4.450   1.219  0.00  0.00    -0.040 C 
BRANCH  12  13
ATOM     13  C   UNL     1      -0.674  -5.820   1.624  0.00  0.00    -0.029 A 
ATOM     14  C   UNL     1       0.200  -6.711   2.217  0.00  0.00    +0.004 A 
ATOM     15  C   UNL     1      -0.240  -7.968   2.589  0.00  0.00    +0.000 A 
ATOM     16  C   UNL     1      -1.555  -8.334   2.369  0.00  0.00    +0.003 A 
ATOM     17  C   UNL     1      -2.431  -7.445   1.776  0.00  0.00    +0.038 A 
ATOM     18  C   UNL     1      -1.992  -6.184   1.408  0.00  0.00    +0.125 A 
ATOM     19  F   UNL     1      -2.849  -5.311   0.834  0.00  0.00    -0.205 F 
ENDBRANCH  12  13
ENDBRANCH   7  12
ENDBRANCH   6   7
ENDBRANCH   1   6
BRANCH   4  20
ATOM     20  C   UNL     1      -0.942   0.426   6.306  0.00  0.00    +0.174 C 
BRANCH  20  21
ATOM     21  C   UNL     1       0.519   0.796   6.325  0.00  0.00    -0.004 A 
ATOM     22  C   UNL     1       1.184   0.921   7.531  0.00  0.00    +0.011 A 
ATOM     23  C   UNL     1       2.522   1.261   7.552  0.00  0.00    +0.046 A 
ATOM     24  C   UNL     1       3.200   1.476   6.361  0.00  0.00    +0.120 A 
ATOM     25  C   UNL     1       2.532   1.350   5.152  0.00  0.00    +0.046 A 
ATOM     26  C   UNL     1       1.194   1.005   5.136  0.00  0.00    +0.011 A 
BRANCH  24  27
ATOM     27  O   UNL     1       4.518   1.811   6.378  0.00  0.00    -0.495 OA
ATOM     28  C   UNL     1       5.151   2.018   5.114  0.00  0.00    +0.277 C 
ENDBRANCH  24  27
ENDBRANCH  20  21
BRANCH  20  29
ATOM     29  C   UNL     1      -1.703   1.427   5.476  0.00  0.00    -0.004 A 
ATOM     30  C   UNL     1      -1.696   1.328   4.097  0.00  0.00    +0.011 A 
ATOM     31  C   UNL     1      -2.393   2.245   3.334  0.00  0.00    +0.046 A 
ATOM     32  C   UNL     1      -3.099   3.266   3.952  0.00  0.00    +0.120 A 
ATOM     33  C   UNL     1      -3.104   3.364   5.336  0.00  0.00    +0.046 A 
ATOM     34  C   UNL     1      -2.410   2.441   6.095  0.00  0.00    +0.011 A 
BRANCH  32  35
ATOM     35  O   UNL     1      -3.785   4.170   3.204  0.00  0.00    -0.495 OA
ATOM     36  C   UNL     1      -4.490   5.194   3.908  0.00  0.00    +0.277 C 
ENDBRANCH  32  35
ENDBRANCH  20  29
BRANCH  20  37
ATOM     37  O   UNL     1      -1.451   0.428   7.641  0.00  0.00    -0.372 OA
ATOM     38  H   UNL     1      -2.388   0.198   7.704  0.00  0.00    +0.212 HD
ENDBRANCH  20  37
ENDBRANCH   4  20
TORSDOF 12
