REMARK  Name = ZINC21689893
REMARK  9 active torsions:
REMARK  status: ('A' for Active; 'I' for Inactive)
REMARK    1  A    between atoms: C_1  and  C_2
REMARK    2  A    between atoms: C_2  and  O_3
REMARK    3  A    between atoms: O_3  and  C_4
REMARK    4  A    between atoms: C_4  and  C_6
REMARK    5  A    between atoms: C_6  and  C_7
REMARK    6  A    between atoms: C_13  and  C_15
REMARK    7  A    between atoms: C_15  and  C_16
REMARK    8  A    between atoms: C_16  and  C_17
REMARK    9  A    between atoms: C_23  and  C_25
REMARK                            x       y       z     vdW  Elec       q    Type
REMARK                         _______ _______ _______ _____ _____    ______ ____
ROOT
ATOM      1  C   UNL     1       3.660   0.406  -0.087  0.00  0.00    +0.065 C 
ENDROOT
BRANCH   1   2
ATOM      2  C   UNL     1       2.185   0.713  -0.053  0.00  0.00    +0.051 A 
ATOM      3  C   UNL     1       1.744   1.994  -0.027  0.00  0.00    +0.071 A 
ATOM      4  S   UNL     1      -0.024   1.735   0.005  0.00  0.00    -0.060 S 
ATOM      5  C   UNL     1       0.001  -0.001  -0.019  0.00  0.00    +0.165 A 
ATOM      6  N   UNL     1       1.294  -0.260  -0.048  0.00  0.00    -0.230 NA
ATOM      7  N   UNL     1      -1.066  -0.890  -0.010  0.00  0.00    -0.261 N 
ATOM      8  C   UNL     1      -2.330  -0.424   0.022  0.00  0.00    +0.255 C 
ATOM      9  O   UNL     1      -2.536   0.770   0.138  0.00  0.00    -0.270 OA
ATOM     10  H   UNL     1      -0.880  -1.974  -0.029  0.00  0.00    +0.157 HD
BRANCH   8  11
ATOM     11  C   UNL     1      -3.461  -1.358  -0.084  0.00  0.00    +0.101 A 
ATOM     12  C   UNL     1      -4.768  -0.882  -0.174  0.00  0.00    +0.020 A 
ATOM     13  C   UNL     1      -5.814  -1.798  -0.279  0.00  0.00    +0.018 A 
ATOM     14  C   UNL     1      -5.555  -3.131  -0.281  0.00  0.00    +0.086 A 
ATOM     15  N   UNL     1      -4.288  -3.601  -0.187  0.00  0.00    -0.328 N 
ATOM     16  H   UNL     1      -4.102  -4.685  -0.190  0.00  0.00    +0.168 HD
ATOM     17  C   UNL     1      -3.241  -2.760  -0.090  0.00  0.00    +0.261 A 
ATOM     18  O   UNL     1      -2.108  -3.201  -0.007  0.00  0.00    -0.267 OA
ENDBRANCH   8  11
ENDBRANCH   1   2
BRANCH   1  19
ATOM     19  C   UNL     1       4.015  -0.524   1.075  0.00  0.00    +0.102 C 
BRANCH  19  26
ATOM     20  C   UNL     1       9.398  -2.839   2.588  0.00  0.00    +0.061 A 
ATOM     21  C   UNL     1       9.995  -2.210   1.546  0.00  0.00    +0.072 A 
ATOM     22  S   UNL     1       8.597  -1.366   0.822  0.00  0.00    -0.060 S 
ATOM     23  C   UNL     1       7.393  -1.918   1.945  0.00  0.00    +0.165 A 
ATOM     24  N   UNL     1       8.102  -2.670   2.764  0.00  0.00    -0.229 NA
ATOM     25  N   UNL     1       6.032  -1.636   1.976  0.00  0.00    -0.265 N 
ATOM     26  C   UNL     1       5.490  -0.830   1.042  0.00  0.00    +0.219 C 
ATOM     27  O   UNL     1       6.189  -0.352   0.174  0.00  0.00    -0.275 OA
ATOM     28  H   UNL     1       5.398  -2.070   2.763  0.00  0.00    +0.157 HD
BRANCH  20  29
ATOM     29  C   UNL     1      10.197  -3.706   3.526  0.00  0.00    +0.176 C 
BRANCH  29  30
ATOM     30  C   UNL     1       9.996  -3.232   4.942  0.00  0.00    +0.313 C 
ATOM     31  O   UNL     1       9.277  -2.287   5.167  0.00  0.00    -0.250 OA
BRANCH  30  32
ATOM     32  O   UNL     1      10.615  -3.859   5.955  0.00  0.00    -0.465 OA
BRANCH  32  34
ATOM     33  C   UNL     1      11.159  -4.184   8.306  0.00  0.00    +0.048 C 
ATOM     34  C   UNL     1      10.375  -3.348   7.293  0.00  0.00    +0.229 C 
ENDBRANCH  32  34
ENDBRANCH  30  32
ENDBRANCH  29  30
ENDBRANCH  20  29
ENDBRANCH  19  26
ENDBRANCH   1  19
TORSDOF 8
