REMARK  Name = ZINC34748168
REMARK  7 active torsions:
REMARK  status: ('A' for Active; 'I' for Inactive)
REMARK    1  A    between atoms: C_1  and  C_2
REMARK    2  A    between atoms: C_5  and  N_8
REMARK    3  A    between atoms: C_9  and  C_11
REMARK    4  A    between atoms: C_11  and  N_12
REMARK    5  A    between atoms: N_30  and  C_31
REMARK    6  A    between atoms: C_31  and  C_32
REMARK    7  A    between atoms: C_32  and  C_34
REMARK                            x       y       z     vdW  Elec       q    Type
REMARK                         _______ _______ _______ _____ _____    ______ ____
ROOT
ATOM      1  N   UNL     1       0.296  -8.089   2.217  0.00  0.00    +0.387 N 
ATOM      2  C   UNL     1      -1.010  -7.650   2.725  0.00  0.00    -0.059 C 
ATOM      3  C   UNL     1      -0.965  -7.582   4.255  0.00  0.00    +0.089 C 
ATOM      4  N   UNL     1      -0.522  -8.888   4.767  0.00  0.00    -0.304 N 
ATOM      5  C   UNL     1       0.696  -9.481   4.192  0.00  0.00    +0.089 C 
ATOM      6  C   UNL     1       0.572  -9.460   2.665  0.00  0.00    -0.059 C 
ATOM      7  C   UNL     1      -1.224  -9.535   5.753  0.00  0.00    +0.202 A 
ATOM      8  N   UNL     1      -2.283 -10.250   5.433  0.00  0.00    -0.208 NA
ATOM      9  C   UNL     1      -2.980 -10.886   6.368  0.00  0.00    +0.117 A 
ATOM     10  C   UNL     1      -2.631 -10.830   7.725  0.00  0.00    +0.076 A 
ATOM     11  C   UNL     1      -3.497 -11.585   8.646  0.00  0.00    -0.023 A 
ATOM     12  C   UNL     1      -4.528 -12.251   8.102  0.00  0.00    -0.004 A 
ATOM     13  S   UNL     1      -4.420 -11.921   6.358  0.00  0.00    -0.073 S 
ATOM     14  C   UNL     1      -5.338 -12.988   9.135  0.00  0.00    +0.043 C 
ATOM     15  C   UNL     1      -4.420 -13.047  10.377  0.00  0.00    +0.010 C 
ATOM     16  C   UNL     1      -3.522 -11.813  10.160  0.00  0.00    +0.037 C 
ATOM     17  C   UNL     1      -1.478 -10.047   8.044  0.00  0.00    +0.264 A 
ATOM     18  O   UNL     1      -1.101  -9.943   9.199  0.00  0.00    -0.267 OA
ATOM     19  N   UNL     1      -0.812  -9.432   7.049  0.00  0.00    -0.276 N 
ATOM     20  H   UNL     1       1.014  -7.472   2.565  0.00  0.00    -0.081 HD
ENDROOT
BRANCH   1  21
ATOM     21  C   UNL     1       0.287  -8.049   0.748  0.00  0.00    +0.019 C 
BRANCH  21  23
ATOM     22  N   UNL     1       0.091  -6.342  -1.032  0.00  0.00    -0.287 N 
ATOM     23  C   UNL     1       0.126  -6.623   0.286  0.00  0.00    +0.201 C 
ATOM     24  O   UNL     1       0.029  -5.729   1.100  0.00  0.00    -0.278 OA
ATOM     25  H   UNL     1       0.102  -7.062  -1.681  0.00  0.00    +0.155 HD
BRANCH  22  30
ATOM     26  C   UNL     1      -0.122  -0.948  -2.777  0.00  0.00    +0.044 C 
ATOM     27  C   UNL     1      -0.065  -2.381  -2.313  0.00  0.00    -0.050 A 
ATOM     28  C   UNL     1       0.523  -2.691  -1.101  0.00  0.00    +0.005 A 
ATOM     29  C   UNL     1       0.576  -4.003  -0.673  0.00  0.00    +0.023 A 
ATOM     30  C   UNL     1       0.038  -5.012  -1.462  0.00  0.00    +0.033 A 
ATOM     31  C   UNL     1      -0.552  -4.697  -2.679  0.00  0.00    +0.023 A 
ATOM     32  C   UNL     1      -0.607  -3.382  -3.099  0.00  0.00    +0.005 A 
ENDBRANCH  22  30
ENDBRANCH  21  23
ENDBRANCH   1  21
BRANCH  19  33
ATOM     33  C   UNL     1       0.373  -8.631   7.365  0.00  0.00    +0.158 C 
BRANCH  33  34
ATOM     34  C   UNL     1      -0.053  -7.253   7.801  0.00  0.00    -0.060 C 
ATOM     35  C   UNL     1      -0.193  -6.984   9.075  0.00  0.00    +0.009 C 
ATOM     36  C   UNL     1      -0.317  -6.185   6.772  0.00  0.00    +0.040 C 
ENDBRANCH  33  34
ENDBRANCH  19  33
TORSDOF 5
