REMARK  Name = ZINC28366737
REMARK  4 active torsions:
REMARK  status: ('A' for Active; 'I' for Inactive)
REMARK    1  A    between atoms: N_7  and  S_8
REMARK    2  A    between atoms: S_8  and  C_11
REMARK    3  A    between atoms: C_14  and  N_17
REMARK    4  A    between atoms: N_17  and  C_18
REMARK                            x       y       z     vdW  Elec       q    Type
REMARK                         _______ _______ _______ _____ _____    ______ ____
ROOT
ATOM      1  C   UNL     1       3.702   0.206   7.786  0.00  0.00    +0.055 A 
ATOM      2  C   UNL     1       2.442   0.106   8.422  0.00  0.00    +0.022 A 
ATOM      3  C   UNL     1       1.363   0.895   7.992  0.00  0.00    +0.013 A 
ATOM      4  C   UNL     1       0.156   0.787   8.613  0.00  0.00    +0.021 A 
ATOM      5  C   UNL     1      -0.023  -0.099   9.675  0.00  0.00    +0.043 A 
ATOM      6  C   UNL     1       1.001  -0.879  10.117  0.00  0.00    +0.048 A 
ATOM      7  C   UNL     1       2.265  -0.796   9.501  0.00  0.00    +0.076 A 
ATOM      8  N   UNL     1       3.269  -1.564   9.937  0.00  0.00    -0.229 NA
ATOM      9  C   UNL     1       4.473  -1.517   9.384  0.00  0.00    +0.146 A 
ATOM     10  C   UNL     1       4.734  -0.612   8.260  0.00  0.00    +0.079 A 
ATOM     11  C   UNL     1       6.032  -0.601   7.699  0.00  0.00    +0.132 A 
ATOM     12  N   UNL     1       6.943  -1.414   8.217  0.00  0.00    -0.201 NA
ATOM     13  C   UNL     1       6.667  -2.223   9.233  0.00  0.00    +0.193 A 
ATOM     14  N   UNL     1       5.486  -2.285   9.818  0.00  0.00    -0.312 N 
ATOM     15  N   UNL     1       7.675  -3.037   9.712  0.00  0.00    -0.329 N 
ATOM     16  N   UNL     1       6.341   0.229   6.644  0.00  0.00    -0.342 N 
ATOM     17 CL   UNL     1      -1.575  -0.210  10.443  0.00  0.00    -0.083 Cl
ATOM     18  H   UNL     1       8.556  -3.007   9.306  0.00  0.00    +0.145 HD
ATOM     19  H   UNL     1       7.502  -3.638  10.453  0.00  0.00    +0.145 HD
ATOM     20  H   UNL     1       5.634   0.583   6.082  0.00  0.00    +0.144 HD
ATOM     21  H   UNL     1       7.266   0.460   6.464  0.00  0.00    +0.144 HD
ATOM     22  H   UNL     1       5.344  -2.897  10.558  0.00  0.00    +0.170 HD
ENDROOT
BRANCH   1  23
ATOM     23  N   UNL     1       3.904   1.074   6.736  0.00  0.00    -0.313 N 
ATOM     24  H   UNL     1       3.777   0.769   5.824  0.00  0.00    +0.152 HD
BRANCH  23  28
ATOM     25  C   UNL     1       5.055   5.007   7.475  0.00  0.00    +0.109 A 
ATOM     26  C   UNL     1       4.746   4.609   6.187  0.00  0.00    +0.030 A 
ATOM     27  C   UNL     1       4.364   3.305   5.939  0.00  0.00    +0.025 A 
ATOM     28  C   UNL     1       4.290   2.393   6.984  0.00  0.00    +0.031 A 
ATOM     29  C   UNL     1       4.601   2.796   8.277  0.00  0.00    +0.025 A 
ATOM     30  C   UNL     1       4.988   4.100   8.517  0.00  0.00    +0.030 A 
BRANCH  25  31
ATOM     31  S   UNL     1       5.542   6.671   7.788  0.00  0.00    +0.073 S 
ATOM     32  O   UNL     1       5.256   6.927   9.156  0.00  0.00    -0.150 OA
ATOM     33  O   UNL     1       5.000   7.457   6.736  0.00  0.00    -0.150 OA
BRANCH  31  40
ATOM     34  C   UNL     1       9.733   6.321   5.027  0.00  0.00    +0.005 A 
ATOM     35  C   UNL     1       8.899   6.033   3.955  0.00  0.00    +0.020 A 
ATOM     36  C   UNL     1       7.533   5.992   4.153  0.00  0.00    +0.113 A 
ATOM     37  N   UNL     1       7.015   6.223   5.345  0.00  0.00    -0.239 NA
ATOM     38  C   UNL     1       7.777   6.501   6.391  0.00  0.00    +0.138 A 
ATOM     39  C   UNL     1       9.162   6.559   6.264  0.00  0.00    +0.045 A 
ATOM     40  N   UNL     1       7.189   6.737   7.628  0.00  0.00    -0.199 N 
ATOM     41  H   UNL     1       7.743   6.942   8.398  0.00  0.00    +0.175 HD
ENDBRANCH  31  40
ENDBRANCH  25  31
ENDBRANCH  23  28
ENDBRANCH   1  23
TORSDOF 4
