REMARK  Name = ZINC09591049
REMARK  8 active torsions:
REMARK  status: ('A' for Active; 'I' for Inactive)
REMARK    1  A    between atoms: C_1  and  C_2
REMARK    2  A    between atoms: C_7  and  C_8
REMARK    3  A    between atoms: C_14  and  C_16
REMARK    4  A    between atoms: C_16  and  S_17
REMARK    5  A    between atoms: S_17  and  C_18
REMARK    6  A    between atoms: C_26  and  C_30
REMARK    7  A    between atoms: N_33  and  C_34
REMARK    8  A    between atoms: C_34  and  C_35
REMARK                            x       y       z     vdW  Elec       q    Type
REMARK                         _______ _______ _______ _____ _____    ______ ____
ROOT
ATOM      1  S   UNL     1       1.946  -4.083  -1.452  0.00  0.00    -0.078 S 
ENDROOT
BRANCH   1   2
ATOM      2  C   UNL     1       2.845  -3.664   0.004  0.00  0.00    +0.173 A 
ATOM      3  N   UNL     1       2.865  -4.503   1.019  0.00  0.00    -0.216 NA
ATOM      4  C   UNL     1       3.534  -4.212   2.129  0.00  0.00    +0.117 A 
ATOM      5  C   UNL     1       4.247  -3.010   2.278  0.00  0.00    +0.076 A 
ATOM      6  C   UNL     1       4.934  -2.830   3.558  0.00  0.00    -0.023 A 
ATOM      7  C   UNL     1       4.819  -3.825   4.461  0.00  0.00    -0.004 A 
ATOM      8  S   UNL     1       3.803  -5.045   3.673  0.00  0.00    -0.073 S 
ATOM      9  C   UNL     1       5.421  -3.882   5.832  0.00  0.00    +0.046 C 
ATOM     10  C   UNL     1       5.891  -2.472   6.213  0.00  0.00    -0.009 C 
ATOM     11  C   UNL     1       6.689  -1.887   5.044  0.00  0.00    +0.008 C 
ATOM     12  C   UNL     1       5.750  -1.580   3.877  0.00  0.00    +0.037 C 
ATOM     13  C   UNL     1       6.781  -2.546   7.455  0.00  0.00    +0.008 C 
ATOM     14  C   UNL     1       4.212  -2.121   1.158  0.00  0.00    +0.263 A 
ATOM     15  O   UNL     1       4.806  -1.057   1.194  0.00  0.00    -0.267 OA
ATOM     16  N   UNL     1       3.511  -2.474   0.065  0.00  0.00    -0.283 N 
BRANCH  16  17
ATOM     17  C   UNL     1       3.466  -1.566  -1.084  0.00  0.00    +0.154 C 
BRANCH  17  18
ATOM     18  C   UNL     1       2.291  -0.633  -0.942  0.00  0.00    -0.013 C 
ATOM     19  C   UNL     1       2.474   0.663  -0.985  0.00  0.00    +0.005 C 
ENDBRANCH  17  18
ENDBRANCH  16  17
ENDBRANCH   1   2
BRANCH   1  20
ATOM     20  C   UNL     1       1.302  -5.704  -0.969  0.00  0.00    +0.173 C 
BRANCH  20  27
ATOM     21  C   UNL     1      -2.166  -9.654  -3.882  0.00  0.00    +0.130 A 
ATOM     22  N   UNL     1      -1.444  -9.182  -2.872  0.00  0.00    -0.205 NA
ATOM     23  C   UNL     1      -0.874  -8.007  -3.001  0.00  0.00    +0.230 A 
ATOM     24  N   UNL     1      -1.032  -7.325  -4.117  0.00  0.00    -0.174 NA
ATOM     25  S   UNL     1      -2.018  -8.373  -5.044  0.00  0.00    +0.035 S 
ATOM     26  N   UNL     1      -0.108  -7.479  -1.957  0.00  0.00    -0.253 N 
ATOM     27  C   UNL     1       0.476  -6.272  -2.093  0.00  0.00    +0.230 C 
ATOM     28  O   UNL     1       0.336  -5.644  -3.121  0.00  0.00    -0.274 OA
ATOM     29  H   UNL     1       0.003  -7.982  -1.135  0.00  0.00    +0.158 HD
BRANCH  21  36
ATOM     30  C   UNL     1      -3.858 -10.143  -6.177  0.00  0.00    +0.044 C 
ATOM     31  C   UNL     1      -3.720 -11.180  -5.091  0.00  0.00    -0.041 A 
ATOM     32  C   UNL     1      -4.400 -12.377  -5.188  0.00  0.00    +0.004 A 
ATOM     33  C   UNL     1      -4.279 -13.326  -4.189  0.00  0.00    +0.000 A 
ATOM     34  C   UNL     1      -3.472 -13.085  -3.091  0.00  0.00    +0.001 A 
ATOM     35  C   UNL     1      -2.784 -11.895  -2.986  0.00  0.00    +0.011 A 
ATOM     36  C   UNL     1      -2.901 -10.933  -3.989  0.00  0.00    +0.012 A 
ENDBRANCH  21  36
ENDBRANCH  20  27
ENDBRANCH   1  20
TORSDOF 6
