REMARK  Name = ZINC03417739
REMARK  10 active torsions:
REMARK  status: ('A' for Active; 'I' for Inactive)
REMARK    1  A    between atoms: C_1  and  C_2
REMARK    2  A    between atoms: C_2  and  C_4
REMARK    3  A    between atoms: C_2  and  O_33
REMARK    4  A    between atoms: C_4  and  C_6
REMARK    5  A    between atoms: C_4  and  N_22
REMARK    6  A    between atoms: C_6  and  O_8
REMARK    7  A    between atoms: O_8  and  C_9
REMARK    8  A    between atoms: C_9  and  C_10
REMARK    9  A    between atoms: N_22  and  S_23
REMARK   10  A    between atoms: S_23  and  C_26
REMARK                            x       y       z     vdW  Elec       q    Type
REMARK                         _______ _______ _______ _____ _____    ______ ____
ROOT
ATOM      1  C   UNL     1      -0.018   1.461   0.010  0.00  0.00    +0.213 C 
ENDROOT
BRANCH   1   3
ATOM      2  C   UNL     1      -2.127   1.325   1.343  0.00  0.00    +0.040 C 
ATOM      3  C   UNL     1      -0.734   1.954   1.269  0.00  0.00    +0.141 C 
BRANCH   3   4
ATOM      4  O   UNL     1       0.020   1.580   2.424  0.00  0.00    -0.390 OA
ATOM      5  H   UNL     1       0.143   0.626   2.521  0.00  0.00    +0.210 HD
ENDBRANCH   3   4
ENDBRANCH   1   3
BRANCH   1   6
ATOM      6  C   UNL     1       1.396   1.982  -0.001  0.00  0.00    +0.329 C 
ATOM      7  O   UNL     1       2.325   1.210  -0.014  0.00  0.00    -0.249 OA
BRANCH   6   8
ATOM      8  O   UNL     1       1.623   3.305   0.004  0.00  0.00    -0.459 OA
BRANCH   8   9
ATOM      9  C   UNL     1       3.010   3.736  -0.007  0.00  0.00    +0.268 C 
BRANCH   9  10
ATOM     10  C   UNL     1       3.068   5.242   0.001  0.00  0.00    +0.007 A 
ATOM     11  C   UNL     1       1.932   5.984   0.016  0.00  0.00    +0.099 A 
ATOM     12  C   UNL     1       2.014   7.393   0.022  0.00  0.00    +0.338 A 
ATOM     13  O   UNL     1       0.987   8.047   0.035  0.00  0.00    -0.245 OA
ATOM     14  O   UNL     1       3.195   8.030   0.015  0.00  0.00    -0.422 OA
ATOM     15  C   UNL     1       4.362   7.352  -0.000  0.00  0.00    +0.140 A 
ATOM     16  C   UNL     1       4.354   5.945  -0.002  0.00  0.00    +0.024 A 
ATOM     17  C   UNL     1       5.562   5.241  -0.023  0.00  0.00    +0.013 A 
ATOM     18  C   UNL     1       6.745   5.924  -0.031  0.00  0.00    +0.016 A 
ATOM     19  C   UNL     1       6.757   7.312  -0.023  0.00  0.00    +0.021 A 
ATOM     20  C   UNL     1       5.575   8.026  -0.008  0.00  0.00    +0.062 A 
ATOM     21 BR   UNL     1       8.408   8.235  -0.034  0.00  0.00    -0.050 Br
ENDBRANCH   9  10
ENDBRANCH   8   9
ENDBRANCH   6   8
ENDBRANCH   1   6
BRANCH   1  22
ATOM     22  N   UNL     1       0.002  -0.004   0.002  0.00  0.00    -0.174 NA
ATOM     23  H   UNL     1       0.701  -0.482   0.475  0.00  0.00    +0.149 HD
BRANCH  22  24
ATOM     24  S   UNL     1      -1.169  -0.844  -0.814  0.00  0.00    +0.059 S 
ATOM     25  O   UNL     1      -0.864  -2.223  -0.658  0.00  0.00    -0.153 OA
ATOM     26  O   UNL     1      -2.416  -0.290  -0.418  0.00  0.00    -0.153 OA
BRANCH  24  27
ATOM     27  C   UNL     1      -0.976  -0.476  -2.526  0.00  0.00    +0.105 A 
ATOM     28  C   UNL     1      -1.651   0.594  -3.084  0.00  0.00    +0.030 A 
ATOM     29  C   UNL     1      -1.496   0.886  -4.426  0.00  0.00    +0.022 A 
ATOM     30  C   UNL     1      -0.674   0.101  -5.214  0.00  0.00    +0.041 A 
ATOM     31  C   UNL     1      -0.003  -0.973  -4.657  0.00  0.00    +0.022 A 
ATOM     32  C   UNL     1      -0.154  -1.261  -3.313  0.00  0.00    +0.030 A 
ATOM     33 CL   UNL     1      -0.483   0.464  -6.901  0.00  0.00    -0.084 Cl
ENDBRANCH  24  27
ENDBRANCH  22  24
ENDBRANCH   1  22
TORSDOF 9
