REMARK  Name = ZINC36608706
REMARK  9 active torsions:
REMARK  status: ('A' for Active; 'I' for Inactive)
REMARK    1  A    between atoms: C_1  and  C_2
REMARK    2  A    between atoms: C_5  and  S_8
REMARK    3  A    between atoms: S_8  and  C_11
REMARK    4  A    between atoms: C_11  and  N_12
REMARK    5  A    between atoms: C_13  and  C_15
REMARK    6  A    between atoms: C_15  and  C_17
REMARK    7  A    between atoms: C_15  and  N_24
REMARK    8  A    between atoms: N_24  and  C_25
REMARK    9  A    between atoms: C_31  and  C_33
REMARK                            x       y       z     vdW  Elec       q    Type
REMARK                         _______ _______ _______ _____ _____    ______ ____
ROOT
ATOM      1  C   UNL     1       2.805  -6.182   3.575  0.00  0.00    +0.198 C 
ENDROOT
BRANCH   1   2
ATOM      2  C   UNL     1       1.594  -5.327   3.844  0.00  0.00    -0.018 A 
ATOM      3  C   UNL     1       0.741  -5.645   4.885  0.00  0.00    +0.007 A 
ATOM      4  C   UNL     1      -0.370  -4.861   5.132  0.00  0.00    +0.020 A 
ATOM      5  C   UNL     1      -0.628  -3.758   4.338  0.00  0.00    +0.041 A 
ATOM      6  C   UNL     1       0.226  -3.440   3.297  0.00  0.00    +0.020 A 
ATOM      7  C   UNL     1       1.339  -4.221   3.054  0.00  0.00    +0.007 A 
ATOM      8 CL   UNL     1      -2.024  -2.773   4.648  0.00  0.00    -0.084 Cl
ENDBRANCH   1   2
BRANCH   1  10
ATOM      9  N   UNL     1       1.493  -8.054   2.630  0.00  0.00    -0.294 N 
ATOM     10  C   UNL     1       2.397  -7.633   3.536  0.00  0.00    +0.240 C 
ATOM     11  O   UNL     1       2.883  -8.420   4.320  0.00  0.00    -0.273 OA
ATOM     12  H   UNL     1       1.105  -7.424   2.003  0.00  0.00    +0.150 HD
BRANCH   9  13
ATOM     13  C   UNL     1       1.097  -9.464   2.592  0.00  0.00    +0.278 C 
BRANCH  13  14
ATOM     14  S   UNL     1      -0.416  -9.693   3.567  0.00  0.00    +0.013 S 
ATOM     15  O   UNL     1      -0.290  -9.045   4.825  0.00  0.00    -0.168 OA
ATOM     16  O   UNL     1      -0.849 -11.044   3.488  0.00  0.00    -0.168 OA
BRANCH  14  21
ATOM     17  C   UNL     1      -4.647  -6.549   0.632  0.00  0.00    +0.044 C 
ATOM     18  C   UNL     1      -3.591  -7.334   1.365  0.00  0.00    -0.050 A 
ATOM     19  C   UNL     1      -3.376  -8.664   1.052  0.00  0.00    +0.005 A 
ATOM     20  C   UNL     1      -2.406  -9.384   1.725  0.00  0.00    +0.027 A 
ATOM     21  C   UNL     1      -1.651  -8.775   2.709  0.00  0.00    +0.090 A 
ATOM     22  C   UNL     1      -1.865  -7.445   3.021  0.00  0.00    +0.027 A 
ATOM     23  C   UNL     1      -2.832  -6.724   2.346  0.00  0.00    +0.005 A 
ENDBRANCH  14  21
ENDBRANCH  13  14
ENDBRANCH   9  13
ENDBRANCH   1  10
BRANCH   1  24
ATOM     24  N   UNL     1       3.792  -5.981   4.639  0.00  0.00    -0.249 N 
ATOM     25  C   UNL     1       5.096  -5.835   4.330  0.00  0.00    +0.287 C 
ATOM     26  O   UNL     1       5.462  -5.935   3.174  0.00  0.00    -0.266 OA
BRANCH  24  27
ATOM     27  C   UNL     1       3.381  -5.939   5.975  0.00  0.00    +0.038 A 
ATOM     28  C   UNL     1       3.124  -7.120   6.661  0.00  0.00    +0.023 A 
ATOM     29  C   UNL     1       2.718  -7.075   7.980  0.00  0.00    +0.002 A 
ATOM     30  C   UNL     1       2.567  -5.858   8.618  0.00  0.00    +0.000 A 
ATOM     31  C   UNL     1       2.821  -4.681   7.938  0.00  0.00    +0.002 A 
ATOM     32  C   UNL     1       3.233  -4.718   6.620  0.00  0.00    +0.023 A 
ENDBRANCH  24  27
BRANCH  25  33
ATOM     33  C   UNL     1       6.072  -5.557   5.387  0.00  0.00    +0.190 A 
ATOM     34  C   UNL     1       7.428  -5.505   5.234  0.00  0.00    +0.054 A 
ATOM     35  C   UNL     1       7.967  -5.211   6.496  0.00  0.00    +0.042 A 
ATOM     36  C   UNL     1       6.929  -5.098   7.354  0.00  0.00    +0.196 A 
ATOM     37  O   UNL     1       5.789  -5.301   6.681  0.00  0.00    -0.458 OA
ENDBRANCH  25  33
ENDBRANCH   1  24
TORSDOF 8
