REMARK  Name = ZINC20679110
REMARK  4 active torsions:
REMARK  status: ('A' for Active; 'I' for Inactive)
REMARK    1  A    between atoms: C_1  and  O_2
REMARK    2  A    between atoms: O_2  and  C_3
REMARK    3  A    between atoms: C_6  and  C_9
REMARK    4  A    between atoms: C_20  and  C_25
REMARK                            x       y       z     vdW  Elec       q    Type
REMARK                         _______ _______ _______ _____ _____    ______ ____
ROOT
ATOM      1  C   UNL     1      -4.052   5.949   6.473  0.00  0.00    +0.105 C 
ATOM      2  C   UNL     1      -4.170   7.028   5.412  0.00  0.00    +0.029 C 
ATOM      3  C   UNL     1      -5.002   8.269   5.763  0.00  0.00    +0.033 C 
ATOM      4  C   UNL     1      -5.528   8.675   4.371  0.00  0.00    -0.030 C 
ATOM      5  C   UNL     1      -5.548   7.626   3.557  0.00  0.00    -0.023 C 
ATOM      6  C   UNL     1      -5.103   6.429   4.316  0.00  0.00    +0.049 C 
ATOM      7  C   UNL     1      -4.380   5.315   3.666  0.00  0.00    -0.019 A 
ATOM      8  C   UNL     1      -4.524   5.023   2.332  0.00  0.00    +0.019 A 
ATOM      9  C   UNL     1      -3.843   3.939   1.772  0.00  0.00    +0.037 A 
ATOM     10  C   UNL     1      -3.017   3.150   2.577  0.00  0.00    +0.015 A 
ATOM     11  C   UNL     1      -2.865   3.451   3.910  0.00  0.00    +0.024 A 
ATOM     12  C   UNL     1      -3.537   4.534   4.472  0.00  0.00    +0.031 A 
ATOM     13  N   UNL     1      -3.349   4.823   5.822  0.00  0.00    -0.336 N 
ATOM     14  H   UNL     1      -2.661   4.193   6.406  0.00  0.00    +0.147 HD
ENDROOT
BRANCH   9  15
ATOM     15  C   UNL     1      -4.000   3.626   0.339  0.00  0.00    +0.247 C 
ATOM     16  O   UNL     1      -3.972   4.519  -0.486  0.00  0.00    -0.270 OA
ATOM     17  N   UNL     1      -4.173   2.349  -0.057  0.00  0.00    -0.298 N 
ATOM     18  C   UNL     1      -4.000   1.293   0.915  0.00  0.00    +0.108 C 
ATOM     19  C   UNL     1      -2.521   0.842   0.930  0.00  0.00    +0.019 C 
ATOM     20  C   UNL     1      -2.197   0.099  -0.297  0.00  0.00    +0.002 C 
ATOM     21  C   UNL     1      -2.327   0.918  -1.578  0.00  0.00    +0.002 C 
ATOM     22  C   UNL     1      -3.761   0.889  -2.047  0.00  0.00    +0.019 C 
ATOM     23  C   UNL     1      -4.533   2.087  -1.464  0.00  0.00    +0.108 C 
ENDBRANCH   9  15
BRANCH   1  27
ATOM     24  C   UNL     1      -7.934   4.718   7.766  0.00  0.00    +0.120 A 
ATOM     25  C   UNL     1      -7.314   4.066   6.710  0.00  0.00    +0.046 A 
ATOM     26  C   UNL     1      -6.059   4.466   6.294  0.00  0.00    +0.009 A 
ATOM     27  C   UNL     1      -5.421   5.515   6.929  0.00  0.00    -0.027 A 
ATOM     28  C   UNL     1      -6.034   6.163   7.986  0.00  0.00    +0.009 A 
ATOM     29  C   UNL     1      -7.292   5.770   8.402  0.00  0.00    +0.046 A 
BRANCH  24  31
ATOM     30  C   UNL     1      -9.747   5.043   9.270  0.00  0.00    +0.277 C 
ATOM     31  O   UNL     1      -9.169   4.326   8.177  0.00  0.00    -0.495 OA
ENDBRANCH  24  31
ENDBRANCH   1  27
TORSDOF 3
