REMARK  Name = ZINC05577808
REMARK  5 active torsions:
REMARK  status: ('A' for Active; 'I' for Inactive)
REMARK    1  A    between atoms: C_1  and  C_2
REMARK    2  A    between atoms: C_8  and  C_9
REMARK    3  A    between atoms: C_8  and  N_46
REMARK    4  A    between atoms: C_10  and  O_25
REMARK    5  A    between atoms: C_17  and  C_18
REMARK                            x       y       z     vdW  Elec       q    Type
REMARK                         _______ _______ _______ _____ _____    ______ ____
ROOT
ATOM      1  C   UNL     1      -0.045   3.860   0.023  0.00  0.00    +0.020 A 
ATOM      2  C   UNL     1      -1.227   3.136   0.030  0.00  0.00    +0.122 A 
ATOM      3  C   UNL     1      -1.204   1.744   0.017  0.00  0.00    +0.046 A 
ATOM      4  C   UNL     1      -0.013   1.076   0.008  0.00  0.00    +0.019 A 
ATOM      5  C   UNL     1       1.185   1.791   0.000  0.00  0.00    +0.068 A 
ATOM      6  C   UNL     1       1.173   3.196   0.008  0.00  0.00    +0.144 A 
ATOM      7  O   UNL     1       2.448   3.641  -0.002  0.00  0.00    -0.451 OA
ATOM      8  C   UNL     1       3.331   2.615  -0.016  0.00  0.00    +0.179 C 
ATOM      9  C   UNL     1       4.690   2.733  -0.028  0.00  0.00    +0.096 C 
ATOM     10  C   UNL     1       2.603   1.395  -0.015  0.00  0.00    +0.232 C 
ATOM     11  O   UNL     1       3.056   0.262  -0.026  0.00  0.00    -0.283 OA
ENDROOT
BRANCH   9  12
ATOM     12  C   UNL     1       5.288   4.013  -0.026  0.00  0.00    +0.131 A 
ATOM     13  C   UNL     1       6.644   4.279  -0.038  0.00  0.00    +0.049 A 
ATOM     14  C   UNL     1       6.777   5.675  -0.032  0.00  0.00    +0.042 A 
ATOM     15  C   UNL     1       5.529   6.196  -0.017  0.00  0.00    +0.195 A 
ATOM     16  O   UNL     1       4.637   5.196  -0.019  0.00  0.00    -0.463 OA
ENDBRANCH   9  12
BRANCH   2  17
ATOM     17  O   UNL     1      -2.417   3.790   0.044  0.00  0.00    -0.506 OA
ATOM     18  H   UNL     1      -2.769   3.984  -0.835  0.00  0.00    +0.292 HD
ENDBRANCH   2  17
BRANCH   1  19
ATOM     19  C   UNL     1      -0.083   5.367   0.031  0.00  0.00    -0.035 C 
BRANCH  19  26
ATOM     20  C   UNL     1       0.623   8.039  -0.498  0.00  0.00    -0.013 C 
ATOM     21  C   UNL     1      -0.383   7.305  -1.388  0.00  0.00    -0.071 C 
ATOM     22  C   UNL     1      -0.258   7.814  -2.826  0.00  0.00    -0.016 C 
ATOM     23  C   UNL     1      -1.253   7.063  -3.715  0.00  0.00    -0.003 C 
ATOM     24  C   UNL     1      -0.976   5.560  -3.622  0.00  0.00    -0.019 C 
ATOM     25  C   UNL     1      -1.080   5.117  -2.161  0.00  0.00    -0.078 C 
ATOM     26  N   UNL     1      -0.081   5.859  -1.362  0.00  0.00    +0.384 N 
ATOM     27  H   UNL     1       0.850   5.706  -1.768  0.00  0.00    -0.081 HD
ENDBRANCH  19  26
ENDBRANCH   1  19
TORSDOF 4
