REMARK  Name = ZINC38670258
REMARK  11 active torsions:
REMARK  status: ('A' for Active; 'I' for Inactive)
REMARK    1  A    between atoms: C_1  and  C_2
REMARK    2  A    between atoms: C_5  and  N_9
REMARK    3  A    between atoms: C_7  and  C_8
REMARK    4  A    between atoms: C_11  and  C_16
REMARK    5  A    between atoms: N_18  and  C_19
REMARK    6  A    between atoms: C_19  and  C_20
REMARK    7  A    between atoms: C_20  and  C_22
REMARK    8  A    between atoms: C_20  and  N_33
REMARK    9  A    between atoms: N_31  and  C_32
REMARK   10  A    between atoms: N_33  and  C_34
REMARK   11  A    between atoms: N_33  and  C_35
REMARK                            x       y       z     vdW  Elec       q    Type
REMARK                         _______ _______ _______ _____ _____    ______ ____
ROOT
ATOM      1  C   UNL     1       4.674  -7.254  -3.223  0.00  0.00    +0.218 C 
ATOM      2  O   UNL     1       4.168  -6.236  -2.800  0.00  0.00    -0.275 OA
ATOM      3  N   UNL     1       4.851  -8.309  -2.403  0.00  0.00    -0.316 N 
ATOM      4  H   UNL     1       5.255  -9.123  -2.741  0.00  0.00    +0.149 HD
ENDROOT
BRANCH   1   7
ATOM      5  N   UNL     1       3.476  -6.200  -6.007  0.00  0.00    -0.271 N 
ATOM      6  C   UNL     1       4.804  -6.020  -5.410  0.00  0.00    +0.127 C 
ATOM      7  C   UNL     1       5.103  -7.340  -4.665  0.00  0.00    +0.101 C 
ATOM      8  C   UNL     1       4.228  -8.348  -5.444  0.00  0.00    +0.110 C 
ATOM      9  C   UNL     1       3.127  -7.498  -6.039  0.00  0.00    +0.221 C 
ATOM     10  O   UNL     1       2.082  -7.926  -6.483  0.00  0.00    -0.275 OA
BRANCH   5  15
ATOM     11  C   UNL     1       0.222  -1.962  -7.913  0.00  0.00    +0.044 C 
ATOM     12  C   UNL     1       1.086  -3.088  -7.407  0.00  0.00    -0.047 A 
ATOM     13  C   UNL     1       0.686  -4.400  -7.587  0.00  0.00    +0.005 A 
ATOM     14  C   UNL     1       1.476  -5.434  -7.124  0.00  0.00    +0.024 A 
ATOM     15  C   UNL     1       2.673  -5.155  -6.478  0.00  0.00    +0.037 A 
ATOM     16  C   UNL     1       3.072  -3.837  -6.299  0.00  0.00    +0.027 A 
ATOM     17  C   UNL     1       2.280  -2.808  -6.768  0.00  0.00    -0.046 A 
ATOM     18  C   UNL     1       2.715  -1.377  -6.579  0.00  0.00    +0.044 C 
ENDBRANCH   5  15
ENDBRANCH   1   7
BRANCH   3  19
ATOM     19  C   UNL     1       4.434  -8.226  -1.001  0.00  0.00    +0.093 C 
BRANCH  19  20
ATOM     20  C   UNL     1       4.861  -9.497  -0.265  0.00  0.00    -0.021 C 
BRANCH  20  21
ATOM     21  C   UNL     1       6.365  -9.583  -0.241  0.00  0.00    -0.059 A 
ATOM     22  C   UNL     1       7.083  -8.852   0.687  0.00  0.00    +0.004 A 
ATOM     23  C   UNL     1       8.461  -8.929   0.708  0.00  0.00    +0.023 A 
ATOM     24  C   UNL     1       9.126  -9.742  -0.203  0.00  0.00    +0.033 A 
ATOM     25  C   UNL     1       8.406 -10.477  -1.132  0.00  0.00    -0.026 A 
ATOM     26  C   UNL     1       7.023 -10.396  -1.143  0.00  0.00    +0.007 A 
ATOM     27  C   UNL     1       9.091 -11.376  -2.127  0.00  0.00    +0.038 C 
ATOM     28  C   UNL     1      10.554 -10.968  -2.297  0.00  0.00    +0.024 C 
ATOM     29  C   UNL     1      11.207 -10.870  -0.912  0.00  0.00    +0.105 C 
ATOM     30  N   UNL     1      10.524  -9.803  -0.169  0.00  0.00    -0.333 N 
ATOM     31  C   UNL     1      11.293  -8.818   0.596  0.00  0.00    +0.129 C 
ENDBRANCH  20  21
BRANCH  20  32
ATOM     32  N   UNL     1       4.350  -9.461   1.112  0.00  0.00    +0.382 N 
ATOM     33  C   UNL     1       2.882  -9.437   1.089  0.00  0.00    -0.096 C 
ATOM     34  C   UNL     1       4.810 -10.654   1.836  0.00  0.00    -0.096 C 
ATOM     35  H   UNL     1       4.693  -8.633   1.576  0.00  0.00    -0.082 HD
ENDBRANCH  20  32
ENDBRANCH  19  20
ENDBRANCH   3  19
TORSDOF 6
