REMARK  Name = ZINC01429914
REMARK  5 active torsions:
REMARK  status: ('A' for Active; 'I' for Inactive)
REMARK    1  A    between atoms: C_1  and  C_2
REMARK    2  A    between atoms: C_3  and  C_12
REMARK    3  A    between atoms: C_12  and  S_13
REMARK    4  A    between atoms: S_13  and  C_14
REMARK    5  A    between atoms: C_15  and  C_24
REMARK                            x       y       z     vdW  Elec       q    Type
REMARK                         _______ _______ _______ _____ _____    ______ ____
ROOT
ATOM      1  C   UNL     1       0.002  -0.004   0.002  0.00  0.00    +0.133 C 
ENDROOT
BRANCH   1   4
ATOM      2  C   UNL     1      -2.527   1.390   0.022  0.00  0.00    +0.067 C 
ATOM      3  C   UNL     1      -1.242   2.177   0.020  0.00  0.00    +0.061 A 
ATOM      4  C   UNL     1      -0.018   1.503   0.010  0.00  0.00    +0.073 A 
ATOM      5  N   UNL     1       1.114   2.168   0.003  0.00  0.00    -0.247 NA
ATOM      6  C   UNL     1       1.097   3.505   0.010  0.00  0.00    +0.090 A 
ATOM      7  C   UNL     1       2.292   4.247   0.002  0.00  0.00    +0.030 A 
ATOM      8  C   UNL     1       2.242   5.606   0.009  0.00  0.00    +0.002 A 
ATOM      9  C   UNL     1       1.021   6.279   0.023  0.00  0.00    +0.002 A 
ATOM     10  C   UNL     1      -0.155   5.595   0.031  0.00  0.00    +0.030 A 
ATOM     11  C   UNL     1      -0.144   4.190   0.025  0.00  0.00    +0.089 A 
ATOM     12  N   UNL     1      -1.284   3.490   0.032  0.00  0.00    -0.249 NA
ENDBRANCH   1   4
BRANCH   1  13
ATOM     13  S   UNL     1       0.026  -0.617   1.705  0.00  0.00    -0.098 S 
BRANCH  13  14
ATOM     14  C   UNL     1       0.047  -2.353   1.406  0.00  0.00    +0.119 A 
ATOM     15  C   UNL     1       0.076  -3.248   2.490  0.00  0.00    +0.071 A 
ATOM     16  N   UNL     1       0.085  -4.543   2.287  0.00  0.00    -0.248 NA
ATOM     17  C   UNL     1       0.080  -5.021   1.036  0.00  0.00    +0.090 A 
ATOM     18  C   UNL     1       0.097  -6.405   0.791  0.00  0.00    +0.030 A 
ATOM     19  C   UNL     1       0.092  -6.864  -0.491  0.00  0.00    +0.002 A 
ATOM     20  C   UNL     1       0.070  -5.981  -1.568  0.00  0.00    +0.002 A 
ATOM     21  C   UNL     1       0.053  -4.635  -1.369  0.00  0.00    +0.030 A 
ATOM     22  C   UNL     1       0.058  -4.124  -0.060  0.00  0.00    +0.090 A 
ATOM     23  N   UNL     1       0.042  -2.804   0.165  0.00  0.00    -0.237 NA
ATOM     24  C   UNL     1       0.088  -2.714   3.899  0.00  0.00    +0.068 C 
ENDBRANCH  13  14
ENDBRANCH   1  13
TORSDOF 3
