REMARK  Name = ZINC00885084
REMARK  11 active torsions:
REMARK  status: ('A' for Active; 'I' for Inactive)
REMARK    1  A    between atoms: C_1  and  C_2
REMARK    2  A    between atoms: C_5  and  N_9
REMARK    3  A    between atoms: C_6  and  C_8
REMARK    4  A    between atoms: N_9  and  C_10
REMARK    5  A    between atoms: C_10  and  N_12
REMARK    6  A    between atoms: N_12  and  C_13
REMARK    7  A    between atoms: N_12  and  C_23
REMARK    8  A    between atoms: C_13  and  C_14
REMARK    9  A    between atoms: C_23  and  C_24
REMARK   10  A    between atoms: C_29  and  C_37
REMARK   11  A    between atoms: C_30  and  C_36
REMARK                            x       y       z     vdW  Elec       q    Type
REMARK                         _______ _______ _______ _____ _____    ______ ____
ROOT
ATOM      1  N   UNL     1       1.018   4.084   1.392  0.00  0.00    -0.304 N 
ENDROOT
BRANCH   1   2
ATOM      2  C   UNL     1       2.279   4.159   1.861  0.00  0.00    +0.138 C 
ATOM      3  S   UNL     1       2.557   4.465   3.522  0.00  0.00    -0.018 S 
BRANCH   2   4
ATOM      4  N   UNL     1       3.321   3.994   1.022  0.00  0.00    -0.297 N 
ATOM      5  H   UNL     1       3.166   3.897   0.070  0.00  0.00    +0.154 HD
BRANCH   4  10
ATOM      6  C   UNL     1       8.612   3.862   3.064  0.00  0.00    +0.044 C 
ATOM      7  C   UNL     1       7.206   3.897   2.522  0.00  0.00    -0.050 A 
ATOM      8  C   UNL     1       6.176   3.316   3.238  0.00  0.00    +0.005 A 
ATOM      9  C   UNL     1       4.887   3.346   2.744  0.00  0.00    +0.024 A 
ATOM     10  C   UNL     1       4.626   3.961   1.526  0.00  0.00    +0.036 A 
ATOM     11  C   UNL     1       5.664   4.539   0.807  0.00  0.00    -0.029 A 
ATOM     12  C   UNL     1       6.950   4.509   1.309  0.00  0.00    +0.008 A 
ATOM     13  C   UNL     1       5.386   5.202  -0.518  0.00  0.00    +0.045 C 
ENDBRANCH   4  10
ENDBRANCH   2   4
ENDBRANCH   1   2
BRANCH   1  14
ATOM     14  C   UNL     1       0.778   3.747  -0.013  0.00  0.00    +0.142 C 
BRANCH  14  15
ATOM     15  C   UNL     1       0.539   2.264  -0.140  0.00  0.00    -0.026 A 
ATOM     16  C   UNL     1       1.589   1.421  -0.457  0.00  0.00    +0.009 A 
ATOM     17  C   UNL     1       1.375   0.061  -0.575  0.00  0.00    +0.050 A 
ATOM     18  C   UNL     1       0.107  -0.462  -0.375  0.00  0.00    +0.166 A 
ATOM     19  C   UNL     1      -0.949   0.387  -0.055  0.00  0.00    +0.167 A 
ATOM     20  C   UNL     1      -0.728   1.749   0.061  0.00  0.00    +0.054 A 
ATOM     21  O   UNL     1      -2.081  -0.362   0.090  0.00  0.00    -0.453 OA
ATOM     22  C   UNL     1      -1.793  -1.622  -0.543  0.00  0.00    +0.466 C 
ATOM     23  O   UNL     1      -0.363  -1.742  -0.431  0.00  0.00    -0.453 OA
ENDBRANCH  14  15
ENDBRANCH   1  14
BRANCH   1  24
ATOM     24  C   UNL     1      -0.113   4.340   2.287  0.00  0.00    +0.147 C 
BRANCH  24  25
ATOM     25  C   UNL     1      -0.546   5.777   2.150  0.00  0.00    +0.035 A 
ATOM     26  C   UNL     1      -1.553   6.102   1.302  0.00  0.00    +0.020 A 
ATOM     27  C   UNL     1      -1.952   7.507   1.195  0.00  0.00    -0.001 A 
ATOM     28  C   UNL     1      -2.988   7.902   0.342  0.00  0.00    +0.010 A 
ATOM     29  C   UNL     1      -3.333   9.221   0.262  0.00  0.00    +0.004 A 
ATOM     30  C   UNL     1      -2.667  10.173   1.021  0.00  0.00    -0.046 A 
ATOM     31  C   UNL     1      -1.644   9.807   1.869  0.00  0.00    -0.024 A 
ATOM     32  C   UNL     1      -1.275   8.469   1.967  0.00  0.00    +0.052 A 
ATOM     33  N   UNL     1      -0.256   8.074   2.808  0.00  0.00    -0.322 N 
ATOM     34  H   UNL     1       0.210   8.739   3.339  0.00  0.00    +0.169 HD
ATOM     35  C   UNL     1       0.101   6.781   2.902  0.00  0.00    +0.254 A 
ATOM     36  O   UNL     1       1.006   6.468   3.656  0.00  0.00    -0.268 OA
ATOM     37  C   UNL     1      -0.930  10.851   2.688  0.00  0.00    +0.046 C 
ATOM     38  C   UNL     1      -3.065  11.623   0.916  0.00  0.00    +0.044 C 
ENDBRANCH  24  25
ENDBRANCH   1  24
TORSDOF 7
