REMARK  Name = ZINC04205110
REMARK  3 active torsions:
REMARK  status: ('A' for Active; 'I' for Inactive)
REMARK    1  A    between atoms: C_1  and  C_2
REMARK    2  A    between atoms: C_2  and  C_4
REMARK    3  A    between atoms: N_9  and  C_10
REMARK                            x       y       z     vdW  Elec       q    Type
REMARK                         _______ _______ _______ _____ _____    ______ ____
ROOT
ATOM      1  C   UNL     1       0.731  -0.503   1.223  0.00  0.00    +0.238 C 
ATOM      2  O   UNL     1       0.501  -0.014   2.308  0.00  0.00    -0.274 OA
ATOM      3  N   UNL     1       1.638  -1.493   1.108  0.00  0.00    -0.239 N 
ATOM      4  C   UNL     1       2.290  -1.940   2.200  0.00  0.00    +0.306 C 
ATOM      5  O   UNL     1       2.060  -1.450   3.288  0.00  0.00    -0.252 OA
ATOM      6  N   UNL     1       3.198  -2.930   2.085  0.00  0.00    -0.294 N 
ATOM      7  H   UNL     1       1.822  -1.884   0.240  0.00  0.00    +0.159 HD
ATOM      8  H   UNL     1       3.381  -3.321   1.217  0.00  0.00    +0.151 HD
ENDROOT
BRANCH   6   9
ATOM      9  C   UNL     1       3.906  -3.415   3.272  0.00  0.00    +0.037 C 
ATOM     10  C   UNL     1       4.692  -2.264   3.903  0.00  0.00    +0.029 C 
ATOM     11  C   UNL     1       5.433  -2.771   5.143  0.00  0.00    -0.008 C 
ATOM     12  C   UNL     1       6.398  -3.887   4.739  0.00  0.00    +0.007 C 
ATOM     13  C   UNL     1       5.611  -5.038   4.109  0.00  0.00    -0.008 C 
ATOM     14  C   UNL     1       4.871  -4.531   2.869  0.00  0.00    +0.029 C 
ATOM     15  C   UNL     1       4.600  -5.580   5.121  0.00  0.00    +0.007 C 
ATOM     16  C   UNL     1       3.635  -4.463   5.524  0.00  0.00    -0.008 C 
ATOM     17  C   UNL     1       4.421  -3.312   6.155  0.00  0.00    +0.007 C 
ATOM     18  C   UNL     1       2.894  -3.956   4.284  0.00  0.00    +0.029 C 
ENDBRANCH   6   9
BRANCH   1  20
ATOM     19  C   UNL     1      -0.019   1.526   0.010  0.00  0.00    +0.034 C 
ATOM     20  C   UNL     1       0.002  -0.004   0.002  0.00  0.00    +0.163 C 
ATOM     21 CL   UNL     1      -1.689  -0.628   0.015  0.00  0.00    -0.112 Cl
ENDBRANCH   1  20
TORSDOF 2
