REMARK  Name = ZINC09375651
REMARK  14 active torsions:
REMARK  status: ('A' for Active; 'I' for Inactive)
REMARK    1  A    between atoms: C_1  and  C_2
REMARK    2  A    between atoms: C_2  and  C_3
REMARK    3  A    between atoms: C_3  and  C_5
REMARK    4  A    between atoms: C_3  and  N_69
REMARK    5  A    between atoms: C_8  and  S_17
REMARK    6  A    between atoms: N_9  and  C_10
REMARK    7  A    between atoms: C_10  and  C_11
REMARK    8  A    between atoms: S_17  and  C_18
REMARK    9  A    between atoms: C_18  and  C_20
REMARK   10  A    between atoms: C_18  and  C_21
REMARK   11  A    between atoms: N_23  and  C_24
REMARK   12  A    between atoms: C_29  and  C_30
REMARK   13  A    between atoms: C_36  and  N_69
REMARK   14  A    between atoms: C_37  and  N_69
REMARK                            x       y       z     vdW  Elec       q    Type
REMARK                         _______ _______ _______ _____ _____    ______ ____
ROOT
ATOM      1  C   UNL     1       5.735   3.489  -1.339  0.00  0.00    +0.121 A 
ATOM      2  N   UNL     1       4.844   4.439  -1.316  0.00  0.00    -0.135 NA
ATOM      3  N   UNL     1       3.668   3.946  -1.476  0.00  0.00    -0.123 NA
ATOM      4  C   UNL     1       3.746   2.643  -1.611  0.00  0.00    +0.193 A 
ATOM      5  N   UNL     1       5.067   2.309  -1.521  0.00  0.00    -0.303 N 
ENDROOT
BRANCH   1   6
ATOM      6  C   UNL     1       7.225   3.657  -1.186  0.00  0.00    +0.000 C 
BRANCH   6   9
ATOM      7  C   UNL     1       8.963   4.151   0.425  0.00  0.00    -0.096 C 
ATOM      8  C   UNL     1       7.006   5.569   0.283  0.00  0.00    -0.096 C 
ATOM      9  N   UNL     1       7.509   4.184   0.165  0.00  0.00    +0.383 N 
ATOM     10  H   UNL     1       7.032   3.596   0.859  0.00  0.00    -0.082 HD
ENDBRANCH   6   9
BRANCH   6  12
ATOM     11  C   UNL     1       7.568   3.986  -3.639  0.00  0.00    +0.002 C 
ATOM     12  C   UNL     1       7.742   4.619  -2.257  0.00  0.00    -0.011 C 
ENDBRANCH   6  12
ENDBRANCH   1   6
BRANCH   5  13
ATOM     13  C   UNL     1       5.648   0.967  -1.607  0.00  0.00    +0.160 C 
BRANCH  13  14
ATOM     14  C   UNL     1       5.963   0.647  -3.045  0.00  0.00    -0.028 A 
ATOM     15  C   UNL     1       4.977   0.141  -3.872  0.00  0.00    +0.005 A 
ATOM     16  C   UNL     1       5.264  -0.148  -5.193  0.00  0.00    +0.000 A 
ATOM     17  C   UNL     1       6.540   0.058  -5.684  0.00  0.00    +0.000 A 
ATOM     18  C   UNL     1       7.527   0.558  -4.856  0.00  0.00    +0.000 A 
ATOM     19  C   UNL     1       7.238   0.853  -3.536  0.00  0.00    +0.005 A 
ENDBRANCH  13  14
ENDBRANCH   5  13
BRANCH   4  20
ATOM     20  S   UNL     1       2.399   1.532  -1.853  0.00  0.00    -0.074 S 
BRANCH  20  21
ATOM     21  C   UNL     1       1.021   2.705  -1.851  0.00  0.00    +0.137 C 
ATOM     22  C   UNL     1       0.906   3.355  -0.471  0.00  0.00    +0.029 C 
BRANCH  21  23
ATOM     23  C   UNL     1      -0.259   1.976  -2.171  0.00  0.00    +0.230 C 
ATOM     24  O   UNL     1      -0.355   0.789  -1.940  0.00  0.00    -0.274 OA
ATOM     25  N   UNL     1      -1.295   2.642  -2.719  0.00  0.00    -0.284 N 
ATOM     26  H   UNL     1      -1.248   3.604  -2.832  0.00  0.00    +0.155 HD
BRANCH  25  27
ATOM     27  C   UNL     1      -2.437   1.946  -3.125  0.00  0.00    +0.041 A 
ATOM     28  C   UNL     1      -2.363   0.589  -3.402  0.00  0.00    +0.024 A 
ATOM     29  C   UNL     1      -3.494  -0.099  -3.799  0.00  0.00    +0.002 A 
ATOM     30  C   UNL     1      -4.702   0.563  -3.933  0.00  0.00    +0.001 A 
ATOM     31  C   UNL     1      -4.789   1.914  -3.666  0.00  0.00    +0.010 A 
ATOM     32  C   UNL     1      -3.657   2.617  -3.260  0.00  0.00    +0.003 A 
BRANCH  32  33
ATOM     33  C   UNL     1      -3.745   4.069  -2.972  0.00  0.00    -0.016 A 
ATOM     34  C   UNL     1      -3.237   4.577  -1.778  0.00  0.00    +0.008 A 
ATOM     35  C   UNL     1      -3.317   5.930  -1.517  0.00  0.00    +0.001 A 
ATOM     36  C   UNL     1      -3.911   6.780  -2.433  0.00  0.00    +0.000 A 
ATOM     37  C   UNL     1      -4.421   6.280  -3.618  0.00  0.00    +0.001 A 
ATOM     38  C   UNL     1      -4.341   4.930  -3.892  0.00  0.00    +0.008 A 
ENDBRANCH  32  33
ENDBRANCH  25  27
ENDBRANCH  21  23
ENDBRANCH  20  21
ENDBRANCH   4  20
TORSDOF 10
