REMARK  Name = ZINC58744931
REMARK  8 active torsions:
REMARK  status: ('A' for Active; 'I' for Inactive)
REMARK    1  A    between atoms: C_1  and  C_2
REMARK    2  A    between atoms: C_2  and  N_3
REMARK    3  A    between atoms: C_4  and  C_25
REMARK    4  A    between atoms: C_7  and  S_8
REMARK    5  A    between atoms: S_8  and  C_9
REMARK    6  A    between atoms: C_9  and  C_10
REMARK    7  A    between atoms: N_12  and  C_13
REMARK    8  A    between atoms: C_30  and  C_31
REMARK                            x       y       z     vdW  Elec       q    Type
REMARK                         _______ _______ _______ _____ _____    ______ ____
ROOT
ATOM      1  C   UNL     1       6.053  -0.226  -0.143  0.00  0.00    +0.228 C 
ATOM      2  O   UNL     1       5.950   0.441   0.865  0.00  0.00    -0.275 OA
ATOM      3  N   UNL     1       7.258  -0.704  -0.515  0.00  0.00    -0.284 N 
ATOM      4  H   UNL     1       7.352  -1.182  -1.353  0.00  0.00    +0.155 HD
ENDROOT
BRANCH   3   5
ATOM      5  C   UNL     1       8.373  -0.509   0.310  0.00  0.00    +0.055 A 
ATOM      6  C   UNL     1       8.433   0.598   1.146  0.00  0.00    +0.072 A 
ATOM      7  C   UNL     1       9.535   0.787   1.960  0.00  0.00    +0.144 A 
ATOM      8  C   UNL     1      10.583  -0.133   1.938  0.00  0.00    +0.077 A 
ATOM      9  C   UNL     1      10.522  -1.236   1.103  0.00  0.00    +0.048 A 
ATOM     10  C   UNL     1       9.416  -1.427   0.294  0.00  0.00    +0.064 A 
ATOM     11 CL   UNL     1       9.335  -2.814  -0.748  0.00  0.00    -0.082 Cl
ATOM     12  N   UNL     1      11.695   0.075   2.769  0.00  0.00    -0.280 N 
ATOM     13  C   UNL     1      11.598   0.962   3.783  0.00  0.00    +0.255 C 
ATOM     14  O   UNL     1      12.555   1.180   4.495  0.00  0.00    -0.272 OA
ATOM     15  C   UNL     1      10.294   1.679   4.027  0.00  0.00    +0.325 C 
ATOM     16  O   UNL     1       9.609   1.865   2.786  0.00  0.00    -0.481 OA
ATOM     17  H   UNL     1      12.521  -0.410   2.617  0.00  0.00    +0.155 HD
ENDBRANCH   3   5
BRANCH   1  18
ATOM     18  C   UNL     1       4.835  -0.521  -0.979  0.00  0.00    +0.173 C 
BRANCH  18  19
ATOM     19  S   UNL     1       3.380   0.254  -0.222  0.00  0.00    -0.077 S 
BRANCH  19  24
ATOM     20  N   UNL     1       0.745   0.175  -1.158  0.00  0.00    -0.302 N 
ATOM     21  C   UNL     1       0.091  -0.379  -2.234  0.00  0.00    +0.165 A 
ATOM     22  N   UNL     1       0.991  -1.017  -2.945  0.00  0.00    -0.128 NA
ATOM     23  N   UNL     1       2.147  -0.901  -2.396  0.00  0.00    -0.122 NA
ATOM     24  C   UNL     1       2.057  -0.178  -1.302  0.00  0.00    +0.192 A 
BRANCH  21  25
ATOM     25  C   UNL     1      -1.353  -0.276  -2.532  0.00  0.00    +0.022 A 
ATOM     26  C   UNL     1      -2.296  -0.536  -1.536  0.00  0.00    +0.012 A 
ATOM     27  C   UNL     1      -3.642  -0.438  -1.821  0.00  0.00    +0.001 A 
ATOM     28  C   UNL     1      -4.059  -0.083  -3.091  0.00  0.00    +0.000 A 
ATOM     29  C   UNL     1      -3.130   0.176  -4.084  0.00  0.00    +0.004 A 
ATOM     30  C   UNL     1      -1.781   0.087  -3.810  0.00  0.00    -0.040 A 
ATOM     31  C   UNL     1      -0.771   0.377  -4.890  0.00  0.00    +0.044 C 
ENDBRANCH  21  25
BRANCH  20  33
ATOM     32  C   UNL     1       0.290   2.466  -0.432  0.00  0.00    +0.027 C 
ATOM     33  C   UNL     1       0.158   0.982  -0.085  0.00  0.00    +0.122 C 
ENDBRANCH  20  33
ENDBRANCH  19  24
ENDBRANCH  18  19
ENDBRANCH   1  18
TORSDOF 6
