REMARK  Name = ZINC16156189
REMARK  10 active torsions:
REMARK  status: ('A' for Active; 'I' for Inactive)
REMARK    1  A    between atoms: C_1  and  C_2
REMARK    2  A    between atoms: C_3  and  C_30
REMARK    3  A    between atoms: C_4  and  C_10
REMARK    4  A    between atoms: N_12  and  C_24
REMARK    5  A    between atoms: C_14  and  C_15
REMARK    6  A    between atoms: C_18  and  O_22
REMARK    7  A    between atoms: O_22  and  C_23
REMARK    8  A    between atoms: C_30  and  O_32
REMARK    9  A    between atoms: O_32  and  C_33
REMARK   10  A    between atoms: C_33  and  C_34
REMARK                            x       y       z     vdW  Elec       q    Type
REMARK                         _______ _______ _______ _____ _____    ______ ____
ROOT
ATOM      1  C   UNL     1      -3.278   1.103   2.803  0.00  0.00    +0.023 A 
ATOM      2  C   UNL     1      -4.320   0.382   3.272  0.00  0.00    +0.121 A 
ATOM      3  N   UNL     1      -5.119   0.071   2.218  0.00  0.00    -0.239 N 
ATOM      4  N   UNL     1      -4.542   0.614   1.062  0.00  0.00    -0.166 NA
ATOM      5  C   UNL     1      -3.435   1.235   1.409  0.00  0.00    +0.098 A 
ENDROOT
BRANCH   1   9
ATOM      6  C   UNL     1       0.512  -0.847   4.854  0.00  0.00    +0.061 C 
ATOM      7  C   UNL     1      -0.600   0.170   4.813  0.00  0.00    +0.021 C 
ATOM      8  C   UNL     1      -1.020   0.646   3.622  0.00  0.00    +0.078 C 
ATOM      9  C   UNL     1      -2.145   1.661   3.625  0.00  0.00    +0.147 C 
ATOM     10  N   UNL     1      -2.687   2.052   4.938  0.00  0.00    -0.288 N 
ATOM     11  C   UNL     1      -2.158   1.491   6.043  0.00  0.00    +0.304 C 
ATOM     12  O   UNL     1      -2.598   1.807   7.131  0.00  0.00    -0.252 OA
ATOM     13  N   UNL     1      -1.163   0.597   5.981  0.00  0.00    -0.273 N 
ATOM     14  H   UNL     1      -3.407   2.698   5.005  0.00  0.00    +0.151 HD
ATOM     15  H   UNL     1      -0.825   0.230   6.814  0.00  0.00    +0.156 HD
BRANCH   8  16
ATOM     16  C   UNL     1      -0.435   0.207   2.411  0.00  0.00    +0.339 C 
ATOM     17  O   UNL     1       0.392   0.901   1.848  0.00  0.00    -0.245 OA
BRANCH  16  18
ATOM     18  O   UNL     1      -0.793  -0.980   1.880  0.00  0.00    -0.457 OA
BRANCH  18  19
ATOM     19  C   UNL     1      -0.165  -1.358   0.653  0.00  0.00    +0.259 C 
BRANCH  19  20
ATOM     20  C   UNL     1      -0.765  -2.648   0.158  0.00  0.00    +0.006 C 
ATOM     21  C   UNL     1      -1.093  -2.777  -1.104  0.00  0.00    +0.007 C 
ENDBRANCH  19  20
ENDBRANCH  18  19
ENDBRANCH  16  18
ENDBRANCH   8  16
ENDBRANCH   1   9
BRANCH   5  22
ATOM     22  C   UNL     1      -2.513   1.950   0.493  0.00  0.00    +0.004 A 
ATOM     23  C   UNL     1      -1.994   3.192   0.853  0.00  0.00    +0.014 A 
ATOM     24  C   UNL     1      -1.134   3.853   0.001  0.00  0.00    +0.048 A 
ATOM     25  C   UNL     1      -0.792   3.287  -1.219  0.00  0.00    +0.138 A 
ATOM     26  C   UNL     1      -1.311   2.051  -1.584  0.00  0.00    +0.083 A 
ATOM     27  C   UNL     1      -2.169   1.383  -0.733  0.00  0.00    +0.033 A 
ATOM     28 CL   UNL     1      -0.881   1.346  -3.111  0.00  0.00    -0.080 Cl
BRANCH  25  29
ATOM     29  O   UNL     1       0.052   3.942  -2.059  0.00  0.00    -0.494 OA
ATOM     30  C   UNL     1       0.548   5.209  -1.621  0.00  0.00    +0.277 C 
ENDBRANCH  25  29
ENDBRANCH   5  22
BRANCH   3  31
ATOM     31  C   UNL     1      -6.309  -0.666   2.276  0.00  0.00    +0.065 A 
ATOM     32  C   UNL     1      -6.767  -1.153   3.494  0.00  0.00    +0.028 A 
ATOM     33  C   UNL     1      -7.942  -1.876   3.548  0.00  0.00    +0.002 A 
ATOM     34  C   UNL     1      -8.658  -2.124   2.391  0.00  0.00    +0.000 A 
ATOM     35  C   UNL     1      -8.201  -1.645   1.177  0.00  0.00    +0.002 A 
ATOM     36  C   UNL     1      -7.029  -0.917   1.116  0.00  0.00    +0.028 A 
ENDBRANCH   3  31
TORSDOF 8
