REMARK  Name = ZINC36032414
REMARK  12 active torsions:
REMARK  status: ('A' for Active; 'I' for Inactive)
REMARK    1  A    between atoms: C_1  and  C_2
REMARK    2  A    between atoms: C_7  and  C_8
REMARK    3  A    between atoms: C_8  and  N_9
REMARK    4  A    between atoms: N_9  and  C_10
REMARK    5  A    between atoms: N_9  and  C_24
REMARK    6  A    between atoms: C_10  and  C_11
REMARK    7  A    between atoms: C_14  and  C_16
REMARK    8  A    between atoms: C_16  and  C_17
REMARK    9  A    between atoms: C_16  and  C_20
REMARK   10  A    between atoms: C_16  and  O_23
REMARK   11  A    between atoms: C_17  and  C_19
REMARK   12  A    between atoms: C_20  and  C_22
REMARK                            x       y       z     vdW  Elec       q    Type
REMARK                         _______ _______ _______ _____ _____    ______ ____
ROOT
ATOM      1  C   UNL     1      -1.357   1.257   3.949  0.00  0.00    -0.002 C 
ENDROOT
BRANCH   1   2
ATOM      2  C   UNL     1      -2.704   1.909   4.135  0.00  0.00    +0.089 A 
ATOM      3  C   UNL     1      -3.700   1.449   4.913  0.00  0.00    +0.043 A 
ATOM      4  C   UNL     1      -4.770   2.364   4.791  0.00  0.00    +0.048 A 
ATOM      5  C   UNL     1      -4.365   3.328   3.945  0.00  0.00    +0.145 A 
ATOM      6  O   UNL     1      -3.110   3.050   3.555  0.00  0.00    -0.463 OA
BRANCH   5   7
ATOM      7  C   UNL     1      -5.178   4.520   3.512  0.00  0.00    +0.165 C 
BRANCH   7   8
ATOM      8  C   UNL     1      -4.258   5.676   3.216  0.00  0.00    -0.037 C 
ATOM      9  C   UNL     1      -4.372   6.794   3.889  0.00  0.00    +0.011 C 
ATOM     10  C   UNL     1      -3.205   5.545   2.146  0.00  0.00    +0.042 C 
ENDBRANCH   7   8
BRANCH   7  11
ATOM     11  C   UNL     1      -5.961   4.171   2.272  0.00  0.00    -0.037 C 
ATOM     12  C   UNL     1      -7.269   4.235   2.284  0.00  0.00    +0.011 C 
ATOM     13  C   UNL     1      -5.239   3.749   1.019  0.00  0.00    +0.042 C 
ENDBRANCH   7  11
BRANCH   7  14
ATOM     14  O   UNL     1      -6.081   4.886   4.558  0.00  0.00    -0.373 OA
ATOM     15  H   UNL     1      -5.645   5.124   5.388  0.00  0.00    +0.212 HD
ENDBRANCH   7  14
ENDBRANCH   5   7
ENDBRANCH   1   2
BRANCH   1  16
ATOM     16  N   UNL     1      -1.453   0.223   2.910  0.00  0.00    +0.389 N 
ATOM     17  H   UNL     1      -2.198  -0.418   3.141  0.00  0.00    -0.080 HD
BRANCH  16  18
ATOM     18  C   UNL     1      -0.183  -0.511   2.832  0.00  0.00    -0.068 C 
ATOM     19  C   UNL     1      -0.253  -2.038   2.764  0.00  0.00    -0.017 C 
ATOM     20  C   UNL     1       0.225  -1.350   4.045  0.00  0.00    -0.017 C 
ENDBRANCH  16  18
BRANCH  16  21
ATOM     21  C   UNL     1      -1.735   0.855   1.615  0.00  0.00    -0.042 C 
BRANCH  21  28
ATOM     22  C   UNL     1      -4.288  -0.484   1.434  0.00  0.00    +0.044 C 
ATOM     23  C   UNL     1      -3.176  -0.852   0.486  0.00  0.00    -0.049 A 
ATOM     24  C   UNL     1      -3.379  -1.827  -0.473  0.00  0.00    +0.003 A 
ATOM     25  C   UNL     1      -2.359  -2.164  -1.343  0.00  0.00    +0.000 A 
ATOM     26  C   UNL     1      -1.136  -1.526  -1.253  0.00  0.00    +0.000 A 
ATOM     27  C   UNL     1      -0.933  -0.552  -0.294  0.00  0.00    +0.002 A 
ATOM     28  C   UNL     1      -1.954  -0.212   0.573  0.00  0.00    -0.061 A 
ENDBRANCH  21  28
ENDBRANCH  16  21
ENDBRANCH   1  16
TORSDOF 9
