REMARK  Name = ZINC45168432
REMARK  12 active torsions:
REMARK  status: ('A' for Active; 'I' for Inactive)
REMARK    1  A    between atoms: C_1  and  C_2
REMARK    2  A    between atoms: C_2  and  C_3
REMARK    3  A    between atoms: C_3  and  C_4
REMARK    4  A    between atoms: C_4  and  C_5
REMARK    5  A    between atoms: C_5  and  C_7
REMARK    6  A    between atoms: C_5  and  O_38
REMARK    7  A    between atoms: C_9  and  O_37
REMARK    8  A    between atoms: C_14  and  C_35
REMARK    9  A    between atoms: C_14  and  C_36
REMARK   10  A    between atoms: C_16  and  C_18
REMARK   11  A    between atoms: N_21  and  C_24
REMARK   12  A    between atoms: C_24  and  C_25
REMARK                            x       y       z     vdW  Elec       q    Type
REMARK                         _______ _______ _______ _____ _____    ______ ____
ROOT
ATOM      1  C   UNL     1      -2.828  -4.096   0.131  0.00  0.00    -0.012 A 
ATOM      2  C   UNL     1      -2.581  -4.871  -0.986  0.00  0.00    +0.052 A 
ATOM      3  C   UNL     1      -2.561  -6.253  -0.877  0.00  0.00    +0.124 A 
ATOM      4  C   UNL     1      -2.790  -6.861   0.351  0.00  0.00    +0.043 A 
ATOM      5  C   UNL     1      -3.040  -6.084   1.467  0.00  0.00    +0.129 A 
ATOM      6  C   UNL     1      -3.051  -4.696   1.353  0.00  0.00    +0.052 A 
ATOM      7  O   UNL     1      -3.280  -6.636   2.685  0.00  0.00    -0.486 OA
ATOM      8  C   UNL     1      -2.906  -7.999   2.885  0.00  0.00    +0.106 C 
ATOM      9  C   UNL     1      -3.452  -8.828   1.716  0.00  0.00    +0.060 C 
ATOM     10  C   UNL     1      -2.756  -8.366   0.433  0.00  0.00    +0.055 C 
ATOM     11  C   UNL     1      -1.381  -8.114   2.930  0.00  0.00    +0.055 C 
ATOM     12  C   UNL     1      -3.501  -8.509   4.200  0.00  0.00    +0.055 C 
ENDROOT
BRANCH  10  13
ATOM     13  C   UNL     1      -3.466  -8.950  -0.761  0.00  0.00    -0.069 C 
ATOM     14  C   UNL     1      -2.804  -9.729  -1.562  0.00  0.00    -0.046 C 
ATOM     15  C   UNL     1      -3.410 -10.358  -2.783  0.00  0.00    -0.051 C 
ATOM     16  N   UNL     1      -4.875 -10.335  -2.699  0.00  0.00    +0.385 N 
ATOM     17  C   UNL     1      -5.315  -8.959  -2.414  0.00  0.00    -0.074 C 
ATOM     18  C   UNL     1      -4.916  -8.612  -0.976  0.00  0.00    +0.012 C 
ATOM     19  H   UNL     1      -5.180 -10.947  -1.958  0.00  0.00    -0.081 HD
BRANCH  16  20
ATOM     20  C   UNL     1      -5.448 -10.780  -3.976  0.00  0.00    -0.043 C 
BRANCH  20  21
ATOM     21  C   UNL     1      -5.086 -12.223  -4.213  0.00  0.00    -0.063 A 
ATOM     22  C   UNL     1      -3.909 -12.534  -4.891  0.00  0.00    +0.002 A 
ATOM     23  C   UNL     1      -3.553 -13.827  -5.121  0.00  0.00    +0.009 A 
ATOM     24  C   UNL     1      -4.383 -14.867  -4.670  0.00  0.00    -0.018 A 
ATOM     25  C   UNL     1      -4.048 -16.215  -4.890  0.00  0.00    +0.008 A 
ATOM     26  C   UNL     1      -4.876 -17.196  -4.438  0.00  0.00    +0.001 A 
ATOM     27  C   UNL     1      -6.054 -16.886  -3.760  0.00  0.00    +0.001 A 
ATOM     28  C   UNL     1      -6.410 -15.593  -3.530  0.00  0.00    +0.008 A 
ATOM     29  C   UNL     1      -5.580 -14.552  -3.981  0.00  0.00    -0.018 A 
ATOM     30  C   UNL     1      -5.912 -13.205  -3.757  0.00  0.00    +0.010 A 
ENDBRANCH  20  21
ENDBRANCH  16  20
ENDBRANCH  10  13
BRANCH   3  31
ATOM     31  O   UNL     1      -2.317  -7.015  -1.976  0.00  0.00    -0.506 OA
ATOM     32  H   UNL     1      -1.381  -7.209  -2.120  0.00  0.00    +0.292 HD
ENDBRANCH   3  31
BRANCH   1  33
ATOM     33  C   UNL     1      -2.848  -2.593   0.015  0.00  0.00    +0.145 C 
BRANCH  33  34
ATOM     34  O   UNL     1      -3.503  -2.217  -1.198  0.00  0.00    -0.387 OA
ATOM     35  H   UNL     1      -3.079  -2.559  -1.996  0.00  0.00    +0.210 HD
ENDBRANCH  33  34
BRANCH  33  36
ATOM     36  C   UNL     1      -1.413  -2.063   0.004  0.00  0.00    +0.036 C 
BRANCH  36  37
ATOM     37  C   UNL     1      -1.433  -0.534   0.013  0.00  0.00    +0.003 C 
BRANCH  37  39
ATOM     38  C   UNL     1      -0.019   1.526   0.010  0.00  0.00    +0.004 C 
ATOM     39  C   UNL     1       0.002  -0.004   0.002  0.00  0.00    -0.003 C 
ENDBRANCH  37  39
ENDBRANCH  36  37
ENDBRANCH  33  36
ENDBRANCH   1  33
TORSDOF 9
