REMARK  Name = ZINC64470703
REMARK  4 active torsions:
REMARK  status: ('A' for Active; 'I' for Inactive)
REMARK    1  A    between atoms: C_1  and  C_2
REMARK    2  A    between atoms: C_4  and  N_9
REMARK    3  A    between atoms: N_9  and  S_10
REMARK    4  A    between atoms: S_10  and  C_13
REMARK                            x       y       z     vdW  Elec       q    Type
REMARK                         _______ _______ _______ _____ _____    ______ ____
ROOT
ATOM      1  S   UNL     1       1.036  -4.080  -2.519  0.00  0.00    +0.072 S 
ATOM      2  O   UNL     1       0.867  -4.619  -3.824  0.00  0.00    -0.150 OA
ATOM      3  O   UNL     1       2.300  -3.662  -2.025  0.00  0.00    -0.150 OA
ENDROOT
BRANCH   1   4
ATOM      4  C   UNL     1       0.430  -5.292  -1.393  0.00  0.00    +0.110 A 
ATOM      5  C   UNL     1       0.828  -5.217   0.008  0.00  0.00    +0.031 A 
ATOM      6  C   UNL     1       0.400  -6.113   0.923  0.00  0.00    +0.027 A 
ATOM      7  C   UNL     1      -0.490  -7.196   0.510  0.00  0.00    +0.056 A 
ATOM      8  N   UNL     1      -1.071  -8.198   1.121  0.00  0.00    -0.268 N 
ATOM      9  C   UNL     1      -1.809  -8.900   0.198  0.00  0.00    +0.308 C 
ATOM     10  O   UNL     1      -2.469  -9.888   0.439  0.00  0.00    -0.252 OA
ATOM     11  N   UNL     1      -1.685  -8.314  -1.040  0.00  0.00    -0.267 N 
ATOM     12  C   UNL     1      -0.900  -7.273  -0.928  0.00  0.00    +0.058 A 
ATOM     13  C   UNL     1      -0.394  -6.259  -1.851  0.00  0.00    +0.054 A 
ATOM     14  H   UNL     1      -2.109  -8.620  -1.857  0.00  0.00    +0.156 HD
ATOM     15  H   UNL     1      -0.993  -8.409   2.064  0.00  0.00    +0.156 HD
ENDBRANCH   1   4
BRANCH   1  16
ATOM     16  N   UNL     1       0.030  -2.769  -2.415  0.00  0.00    -0.216 N 
ATOM     17  H   UNL     1       0.379  -1.912  -2.125  0.00  0.00    +0.174 HD
BRANCH  16  21
ATOM     18  C   UNL     1      -4.688  -1.907  -1.339  0.00  0.00    +0.045 C 
ATOM     19  C   UNL     1      -3.631  -2.488  -2.242  0.00  0.00    -0.035 A 
ATOM     20  C   UNL     1      -2.295  -2.361  -1.913  0.00  0.00    +0.029 A 
ATOM     21  C   UNL     1      -1.322  -2.897  -2.745  0.00  0.00    +0.048 A 
ATOM     22  C   UNL     1      -1.694  -3.561  -3.908  0.00  0.00    +0.025 A 
ATOM     23  C   UNL     1      -3.031  -3.685  -4.232  0.00  0.00    +0.017 A 
ATOM     24  C   UNL     1      -3.999  -3.155  -3.397  0.00  0.00    +0.021 A 
ATOM     25 BR   UNL     1      -5.828  -3.334  -3.841  0.00  0.00    -0.050 Br
ENDBRANCH  16  21
ENDBRANCH   1  16
TORSDOF 3
