REMARK  Name = ZINC14327352
REMARK  10 active torsions:
REMARK  status: ('A' for Active; 'I' for Inactive)
REMARK    1  A    between atoms: C_1  and  C_2
REMARK    2  A    between atoms: C_4  and  C_8
REMARK    3  A    between atoms: C_5  and  C_7
REMARK    4  A    between atoms: C_10  and  C_20
REMARK    5  A    between atoms: N_14  and  C_17
REMARK    6  A    between atoms: C_17  and  C_18
REMARK    7  A    between atoms: C_17  and  C_19
REMARK    8  A    between atoms: N_22  and  N_23
REMARK    9  A    between atoms: C_24  and  C_26
REMARK   10  A    between atoms: C_26  and  C_27
REMARK                            x       y       z     vdW  Elec       q    Type
REMARK                         _______ _______ _______ _____ _____    ______ ____
ROOT
ATOM      1  C   UNL     1      -1.914  -1.081   3.414  0.00  0.00    +0.075 A 
ATOM      2  C   UNL     1      -2.486  -0.283   4.412  0.00  0.00    +0.042 A 
ATOM      3  C   UNL     1      -2.431   1.100   4.290  0.00  0.00    +0.052 A 
ATOM      4  C   UNL     1      -1.792   1.641   3.150  0.00  0.00    +0.051 A 
ATOM      5  C   UNL     1      -1.551   2.956   2.699  0.00  0.00    +0.145 A 
ATOM      6  N   UNL     1      -0.906   2.896   1.569  0.00  0.00    -0.177 NA
ATOM      7  N   UNL     1      -0.698   1.558   1.213  0.00  0.00    -0.244 N 
ATOM      8  C   UNL     1      -1.243   0.767   2.192  0.00  0.00    +0.160 A 
ATOM      9  N   UNL     1      -1.324  -0.545   2.358  0.00  0.00    -0.227 NA
ENDROOT
BRANCH   1  13
ATOM     10  C   UNL     1      -3.192  -5.400   5.754  0.00  0.00    +0.051 C 
ATOM     11  C   UNL     1      -2.603  -4.503   4.696  0.00  0.00    -0.012 A 
ATOM     12  C   UNL     1      -2.586  -3.152   4.643  0.00  0.00    +0.021 A 
ATOM     13  C   UNL     1      -1.972  -2.555   3.543  0.00  0.00    +0.011 A 
ATOM     14  C   UNL     1      -1.429  -3.363   2.586  0.00  0.00    -0.004 A 
ATOM     15  S   UNL     1      -1.751  -4.954   3.196  0.00  0.00    -0.098 S 
ATOM     16  C   UNL     1      -0.722  -2.970   1.314  0.00  0.00    +0.052 C 
ENDBRANCH   1  13
BRANCH   3  17
ATOM     17  C   UNL     1      -3.022   1.980   5.322  0.00  0.00    +0.261 C 
ATOM     18  O   UNL     1      -2.963   3.187   5.197  0.00  0.00    -0.269 OA
ATOM     19  N   UNL     1      -3.625   1.442   6.401  0.00  0.00    -0.230 N 
ATOM     20  H   UNL     1      -3.672   0.479   6.500  0.00  0.00    +0.173 HD
BRANCH  19  21
ATOM     21  N   UNL     1      -4.185   2.276   7.378  0.00  0.00    -0.234 N 
ATOM     22  C   UNL     1      -4.788   1.738   8.457  0.00  0.00    +0.233 C 
ATOM     23  O   UNL     1      -4.847   0.533   8.581  0.00  0.00    -0.274 OA
ATOM     24  H   UNL     1      -4.138   3.239   7.279  0.00  0.00    +0.173 HD
BRANCH  22  25
ATOM     25  C   UNL     1      -5.390   2.635   9.508  0.00  0.00    +0.134 C 
BRANCH  25  26
ATOM     26  C   UNL     1      -5.998   1.791  10.599  0.00  0.00    -0.014 A 
ATOM     27  C   UNL     1      -7.284   1.418  10.698  0.00  0.00    +0.087 A 
ATOM     28  N   UNL     1      -7.463   0.656  11.819  0.00  0.00    -0.360 N 
ATOM     29  H   UNL     1      -8.307   0.269  12.101  0.00  0.00    +0.165 HD
ATOM     30  C   UNL     1      -6.269   0.523  12.492  0.00  0.00    +0.047 A 
ATOM     31  C   UNL     1      -5.299   1.228  11.757  0.00  0.00    +0.003 A 
ATOM     32  C   UNL     1      -3.978   1.268  12.206  0.00  0.00    +0.010 A 
ATOM     33  C   UNL     1      -3.633   0.620  13.359  0.00  0.00    +0.001 A 
ATOM     34  C   UNL     1      -4.587  -0.077  14.088  0.00  0.00    +0.002 A 
ATOM     35  C   UNL     1      -5.896  -0.129  13.663  0.00  0.00    +0.026 A 
ENDBRANCH  25  26
ENDBRANCH  22  25
ENDBRANCH  19  21
ENDBRANCH   3  17
BRANCH   7  36
ATOM     36  C   UNL     1      -0.013   1.086   0.008  0.00  0.00    +0.103 C 
ATOM     37  C   UNL     1       1.423   1.615  -0.003  0.00  0.00    +0.032 C 
ATOM     38  C   UNL     1      -0.753   1.593  -1.232  0.00  0.00    +0.032 C 
ENDBRANCH   7  36
TORSDOF 6
