REMARK  Name = ZINC36904097
REMARK  5 active torsions:
REMARK  status: ('A' for Active; 'I' for Inactive)
REMARK    1  A    between atoms: C_6  and  O_7
REMARK    2  A    between atoms: O_7  and  C_8
REMARK    3  A    between atoms: C_8  and  C_9
REMARK    4  A    between atoms: N_11  and  C_12
REMARK    5  A    between atoms: C_13  and  N_20
REMARK                            x       y       z     vdW  Elec       q    Type
REMARK                         _______ _______ _______ _____ _____    ______ ____
ROOT
ATOM      1  C   UNL     1      -2.032  -3.474   1.073  0.00  0.00    +0.255 C 
ATOM      2  O   UNL     1      -2.654  -3.346   2.106  0.00  0.00    -0.272 OA
ATOM      3  N   UNL     1      -2.611  -4.061   0.006  0.00  0.00    -0.280 N 
ATOM      4  H   UNL     1      -2.140  -4.099  -0.841  0.00  0.00    +0.155 HD
ENDROOT
BRANCH   3   5
ATOM      5  C   UNL     1      -3.893  -4.617   0.122  0.00  0.00    +0.073 A 
ATOM      6  C   UNL     1      -4.047  -5.939   0.536  0.00  0.00    +0.049 A 
ATOM      7  C   UNL     1      -5.318  -6.484   0.649  0.00  0.00    +0.044 A 
ATOM      8  C   UNL     1      -6.429  -5.715   0.351  0.00  0.00    +0.044 A 
ATOM      9  C   UNL     1      -6.277  -4.403  -0.060  0.00  0.00    +0.042 A 
ATOM     10  C   UNL     1      -5.012  -3.851  -0.170  0.00  0.00    +0.065 A 
ATOM     11 CL   UNL     1      -4.827  -2.202  -0.680  0.00  0.00    -0.082 Cl
ATOM     12 CL   UNL     1      -8.018  -6.398   0.493  0.00  0.00    -0.083 Cl
BRANCH   6  13
ATOM     13  N   UNL     1      -2.923  -6.715   0.837  0.00  0.00    -0.356 N 
ATOM     14  H   UNL     1      -2.035  -6.334   0.757  0.00  0.00    +0.142 HD
ATOM     15  H   UNL     1      -3.031  -7.635   1.125  0.00  0.00    +0.142 HD
ENDBRANCH   6  13
ENDBRANCH   3   5
BRANCH   1  16
ATOM     16  C   UNL     1      -0.612  -2.978   0.981  0.00  0.00    +0.324 C 
BRANCH  16  17
ATOM     17  O   UNL     1      -0.228  -2.400   2.230  0.00  0.00    -0.483 OA
BRANCH  17  23
ATOM     18  C   UNL     1       1.472  -1.325   3.501  0.00  0.00    +0.046 A 
ATOM     19  C   UNL     1       2.754  -0.818   3.587  0.00  0.00    +0.018 A 
ATOM     20  C   UNL     1       3.600  -0.884   2.495  0.00  0.00    +0.014 A 
ATOM     21  C   UNL     1       3.164  -1.458   1.314  0.00  0.00    +0.018 A 
ATOM     22  C   UNL     1       1.883  -1.965   1.223  0.00  0.00    +0.046 A 
ATOM     23  C   UNL     1       1.033  -1.900   2.317  0.00  0.00    +0.121 A 
ATOM     24  I   UNL     1       5.544  -0.115   2.630  0.00  0.00    -0.044 I 
ENDBRANCH  17  23
ENDBRANCH  16  17
ENDBRANCH   1  16
TORSDOF 5
