REMARK  Name = ZINC67518494
REMARK  4 active torsions:
REMARK  status: ('A' for Active; 'I' for Inactive)
REMARK    1  A    between atoms: C_1  and  C_2
REMARK    2  A    between atoms: C_2  and  C_3
REMARK    3  A    between atoms: C_6  and  C_8
REMARK    4  A    between atoms: C_20  and  C_23
REMARK                            x       y       z     vdW  Elec       q    Type
REMARK                         _______ _______ _______ _____ _____    ______ ____
ROOT
ATOM      1  C   UNL     1       0.821  -1.542  -4.693  0.00  0.00    +0.282 C 
ATOM      2  O   UNL     1       1.761  -1.775  -5.429  0.00  0.00    -0.267 OA
ATOM      3  N   UNL     1      -0.438  -1.586  -5.173  0.00  0.00    -0.292 N 
ATOM      4  C   UNL     1      -1.577  -1.150  -4.350  0.00  0.00    +0.108 C 
ATOM      5  C   UNL     1      -2.386  -0.107  -5.126  0.00  0.00    +0.019 C 
ATOM      6  C   UNL     1      -2.772  -0.670  -6.497  0.00  0.00    +0.007 C 
ATOM      7  C   UNL     1      -1.503  -0.997  -7.282  0.00  0.00    +0.010 C 
ATOM      8  C   UNL     1      -0.710  -2.066  -6.532  0.00  0.00    +0.080 C 
ATOM      9  C   UNL     1       0.597  -2.331  -7.279  0.00  0.00    +0.023 C 
ATOM     10  C   UNL     1       0.273  -2.835  -8.688  0.00  0.00    +0.005 C 
ATOM     11  C   UNL     1      -0.551  -1.787  -9.438  0.00  0.00    -0.014 C 
ATOM     12  C   UNL     1      -1.848  -1.522  -8.674  0.00  0.00    +0.008 C 
ATOM     13  C   UNL     1       0.260  -0.495  -9.559  0.00  0.00    +0.007 C 
ENDROOT
BRANCH   1  17
ATOM     14  C   UNL     1       0.693  -0.770  -1.165  0.00  0.00    +0.106 A 
ATOM     15  C   UNL     1       2.030  -0.710  -1.350  0.00  0.00    +0.045 A 
ATOM     16  C   UNL     1       2.273  -0.992  -2.703  0.00  0.00    +0.055 A 
ATOM     17  C   UNL     1       1.056  -1.212  -3.283  0.00  0.00    +0.190 A 
ATOM     18  O   UNL     1       0.110  -1.078  -2.331  0.00  0.00    -0.455 OA
BRANCH  14  20
ATOM     19  C   UNL     1      -0.379   0.947   0.267  0.00  0.00    +0.012 C 
ATOM     20  C   UNL     1      -0.025  -0.536   0.139  0.00  0.00    +0.071 C 
ENDBRANCH  14  20
ENDBRANCH   1  17
TORSDOF 2
