REMARK  Name = ZINC08891813
REMARK  10 active torsions:
REMARK  status: ('A' for Active; 'I' for Inactive)
REMARK    1  A    between atoms: C_1  and  C_2
REMARK    2  A    between atoms: C_2  and  C_3
REMARK    3  A    between atoms: C_3  and  C_29
REMARK    4  A    between atoms: N_6  and  C_10
REMARK    5  A    between atoms: C_10  and  C_11
REMARK    6  A    between atoms: N_13  and  C_14
REMARK    7  A    between atoms: N_13  and  C_15
REMARK    8  A    between atoms: C_15  and  C_16
REMARK    9  A    between atoms: N_18  and  C_19
REMARK   10  A    between atoms: C_24  and  C_25
REMARK                            x       y       z     vdW  Elec       q    Type
REMARK                         _______ _______ _______ _____ _____    ______ ____
ROOT
ATOM      1  C   UNL     1       4.194   1.874  -1.162  0.00  0.00    +0.234 C 
ATOM      2  O   UNL     1       3.723   1.432  -2.188  0.00  0.00    -0.274 OA
ATOM      3  N   UNL     1       3.630   1.569   0.024  0.00  0.00    -0.294 N 
ATOM      4  C   UNL     1       4.198   2.103   1.264  0.00  0.00    +0.132 C 
ENDROOT
BRANCH   1   5
ATOM      5  C   UNL     1       5.410   2.763  -1.211  0.00  0.00    +0.213 C 
BRANCH   5   9
ATOM      6  C   UNL     1       6.081   3.717  -4.738  0.00  0.00    +0.138 C 
ATOM      7  C   UNL     1       5.386   3.928  -3.407  0.00  0.00    +0.251 C 
ATOM      8  O   UNL     1       4.596   4.804  -3.125  0.00  0.00    -0.272 OA
ATOM      9  N   UNL     1       5.828   2.941  -2.604  0.00  0.00    -0.215 N 
ATOM     10  C   UNL     1       6.701   2.146  -3.234  0.00  0.00    +0.310 C 
ATOM     11  O   UNL     1       7.240   1.189  -2.714  0.00  0.00    -0.252 OA
ATOM     12  N   UNL     1       6.912   2.523  -4.508  0.00  0.00    -0.281 N 
ATOM     13  H   UNL     1       7.500   2.094  -5.149  0.00  0.00    +0.152 HD
BRANCH   6  14
ATOM     14  C   UNL     1       6.939   4.907  -5.082  0.00  0.00    -0.015 A 
ATOM     15  C   UNL     1       6.412   5.949  -5.822  0.00  0.00    +0.009 A 
ATOM     16  C   UNL     1       7.196   7.043  -6.133  0.00  0.00    +0.039 A 
ATOM     17  C   UNL     1       8.515   7.090  -5.714  0.00  0.00    +0.123 A 
ATOM     18  C   UNL     1       9.044   6.043  -4.978  0.00  0.00    +0.039 A 
ATOM     19  C   UNL     1       8.256   4.953  -4.662  0.00  0.00    +0.009 A 
ATOM     20  F   UNL     1       9.285   8.156  -6.024  0.00  0.00    -0.205 F 
ENDBRANCH   6  14
BRANCH   6  22
ATOM     21  C   UNL     1       4.235   2.213  -5.496  0.00  0.00    +0.007 C 
ATOM     22  C   UNL     1       5.057   3.456  -5.844  0.00  0.00    +0.037 C 
ENDBRANCH   6  22
ENDBRANCH   5   9
ENDBRANCH   1   5
BRANCH   3  23
ATOM     23  C   UNL     1       2.448   0.705   0.072  0.00  0.00    +0.203 C 
BRANCH  23  24
ATOM     24  C   UNL     1       1.203   1.550  -0.018  0.00  0.00    +0.235 C 
ATOM     25  O   UNL     1       1.294   2.756  -0.113  0.00  0.00    -0.274 OA
ATOM     26  N   UNL     1      -0.011   0.966   0.007  0.00  0.00    -0.284 N 
ATOM     27  H   UNL     1      -0.084  -0.001   0.018  0.00  0.00    +0.155 HD
BRANCH  26  28
ATOM     28  C   UNL     1      -1.167   1.755   0.013  0.00  0.00    +0.045 A 
ATOM     29  C   UNL     1      -1.194   2.954  -0.688  0.00  0.00    +0.024 A 
ATOM     30  C   UNL     1      -2.338   3.727  -0.684  0.00  0.00    +0.002 A 
ATOM     31  C   UNL     1      -3.452   3.314   0.024  0.00  0.00    +0.001 A 
ATOM     32  C   UNL     1      -3.426   2.124   0.727  0.00  0.00    +0.014 A 
ATOM     33  C   UNL     1      -2.287   1.343   0.724  0.00  0.00    +0.076 A 
BRANCH  33  34
ATOM     34  C   UNL     1      -2.259   0.046   1.490  0.00  0.00    +0.419 C 
ATOM     35  F   UNL     1      -3.493  -0.150   2.119  0.00  0.00    -0.166 F 
ATOM     36  F   UNL     1      -2.011  -1.012   0.609  0.00  0.00    -0.166 F 
ATOM     37  F   UNL     1      -1.246   0.097   2.455  0.00  0.00    -0.166 F 
ENDBRANCH  33  34
ENDBRANCH  26  28
ENDBRANCH  23  24
ENDBRANCH   3  23
TORSDOF 8
