REMARK  Name = ZINC59472574
REMARK  8 active torsions:
REMARK  status: ('A' for Active; 'I' for Inactive)
REMARK    1  A    between atoms: C_1  and  N_2
REMARK    2  A    between atoms: C_3  and  C_18
REMARK    3  A    between atoms: N_5  and  C_8
REMARK    4  A    between atoms: C_8  and  N_9
REMARK    5  A    between atoms: C_12  and  C_15
REMARK    6  A    between atoms: C_18  and  O_19
REMARK    7  A    between atoms: O_19  and  C_20
REMARK    8  A    between atoms: C_23  and  C_26
REMARK                            x       y       z     vdW  Elec       q    Type
REMARK                         _______ _______ _______ _____ _____    ______ ____
ROOT
ATOM      1  C   UNL     1      -0.018   1.461   0.010  0.00  0.00    +0.152 C 
ATOM      2  N   UNL     1       0.002  -0.004   0.002  0.00  0.00    -0.307 N 
ATOM      3  C   UNL     1      -1.100  -0.823   0.003  0.00  0.00    +0.170 A 
ATOM      4  N   UNL     1      -0.705  -2.055  -0.006  0.00  0.00    -0.154 NA
ATOM      5  N   UNL     1       0.696  -2.064  -0.012  0.00  0.00    -0.257 N 
ATOM      6  C   UNL     1       1.106  -0.778  -0.013  0.00  0.00    +0.176 A 
ATOM      7  S   UNL     1       2.728  -0.231  -0.026  0.00  0.00    -0.011 S 
ENDROOT
BRANCH   5   8
ATOM      8  C   UNL     1       1.557  -3.249  -0.022  0.00  0.00    +0.072 C 
BRANCH   8   9
ATOM      9  N   UNL     1       1.549  -3.849  -1.363  0.00  0.00    +0.393 N 
ATOM     10  C   UNL     1       2.152  -2.913  -2.320  0.00  0.00    -0.075 C 
ATOM     11  C   UNL     1       2.073  -3.499  -3.731  0.00  0.00    -0.006 C 
ATOM     12  C   UNL     1       2.831  -4.829  -3.769  0.00  0.00    +0.071 C 
ATOM     13  C   UNL     1       2.242  -5.771  -2.716  0.00  0.00    -0.006 C 
ATOM     14  C   UNL     1       2.315  -5.101  -1.342  0.00  0.00    -0.075 C 
ATOM     15  H   UNL     1       0.598  -4.042  -1.639  0.00  0.00    -0.079 HD
BRANCH  12  16
ATOM     16  C   UNL     1       2.692  -5.450  -5.136  0.00  0.00    +0.213 C 
ATOM     17  O   UNL     1       2.049  -4.885  -5.995  0.00  0.00    -0.276 OA
ATOM     18  N   UNL     1       3.281  -6.632  -5.402  0.00  0.00    -0.329 N 
ATOM     19  H   UNL     1       3.795  -7.084  -4.714  0.00  0.00    +0.145 HD
ATOM     20  H   UNL     1       3.191  -7.032  -6.281  0.00  0.00    +0.145 HD
ENDBRANCH  12  16
ENDBRANCH   8   9
ENDBRANCH   5   8
BRANCH   3  21
ATOM     21  C   UNL     1      -2.535  -0.362   0.012  0.00  0.00    +0.305 C 
BRANCH  21  22
ATOM     22  O   UNL     1      -3.401  -1.499   0.010  0.00  0.00    -0.484 OA
BRANCH  22  23
ATOM     23  C   UNL     1      -4.738  -1.256   0.018  0.00  0.00    +0.121 A 
ATOM     24  C   UNL     1      -5.207   0.049   0.022  0.00  0.00    +0.046 A 
ATOM     25  C   UNL     1      -6.567   0.293   0.029  0.00  0.00    +0.007 A 
ATOM     26  C   UNL     1      -7.460  -0.763   0.033  0.00  0.00    -0.044 A 
ATOM     27  C   UNL     1      -6.995  -2.065   0.030  0.00  0.00    +0.007 A 
ATOM     28  C   UNL     1      -5.636  -2.314   0.016  0.00  0.00    +0.046 A 
BRANCH  26  29
ATOM     29  C   UNL     1      -8.943  -0.494   0.042  0.00  0.00    +0.019 C 
ATOM     30  C   UNL     1      -9.566  -1.113   1.294  0.00  0.00    +0.008 C 
ATOM     31  C   UNL     1     -11.071  -0.840   1.303  0.00  0.00    +0.001 C 
ATOM     32  C   UNL     1     -11.709  -1.458   0.057  0.00  0.00    +0.000 C 
ATOM     33  C   UNL     1     -11.085  -0.838  -1.196  0.00  0.00    +0.001 C 
ATOM     34  C   UNL     1      -9.580  -1.111  -1.204  0.00  0.00    +0.008 C 
ENDBRANCH  26  29
ENDBRANCH  22  23
ENDBRANCH  21  22
ENDBRANCH   3  21
TORSDOF 7
