REMARK  Name = ZINC13858361
REMARK  8 active torsions:
REMARK  status: ('A' for Active; 'I' for Inactive)
REMARK    1  A    between atoms: C_1  and  C_2
REMARK    2  A    between atoms: C_2  and  C_3
REMARK    3  A    between atoms: C_3  and  N_4
REMARK    4  A    between atoms: C_8  and  C_9
REMARK    5  A    between atoms: C_12  and  C_14
REMARK    6  A    between atoms: N_17  and  C_18
REMARK    7  A    between atoms: C_21  and  O_24
REMARK    8  A    between atoms: O_24  and  C_25
REMARK                            x       y       z     vdW  Elec       q    Type
REMARK                         _______ _______ _______ _____ _____    ______ ____
ROOT
ATOM      1  N   UNL     1       0.738  -1.962  -1.265  0.00  0.00    -0.246 N 
ATOM      2  C   UNL     1       1.744  -2.607  -0.699  0.00  0.00    +0.259 C 
ATOM      3  O   UNL     1       2.663  -2.010  -0.166  0.00  0.00    -0.269 OA
ATOM      4  C   UNL     1       1.706  -4.077  -0.740  0.00  0.00    +0.081 C 
ATOM      5  C   UNL     1       2.598  -4.980  -0.243  0.00  0.00    +0.066 C 
ATOM      6  S   UNL     1       0.175  -4.362  -1.618  0.00  0.00    -0.049 S 
ATOM      7  C   UNL     1      -0.295  -2.656  -1.857  0.00  0.00    +0.168 C 
ATOM      8  N   UNL     1      -1.364  -2.179  -2.454  0.00  0.00    -0.225 NA
ENDROOT
BRANCH   5   9
ATOM      9  C   UNL     1       2.361  -6.366  -0.396  0.00  0.00    +0.129 A 
ATOM     10  C   UNL     1       3.173  -7.385   0.060  0.00  0.00    +0.049 A 
ATOM     11  C   UNL     1       2.551  -8.588  -0.312  0.00  0.00    +0.045 A 
ATOM     12  C   UNL     1       1.414  -8.264  -0.965  0.00  0.00    +0.103 A 
ATOM     13  O   UNL     1       1.299  -6.929  -1.010  0.00  0.00    -0.461 OA
ATOM     14  C   UNL     1       0.429  -9.247  -1.546  0.00  0.00    +0.086 C 
ENDBRANCH   5   9
BRANCH   8  15
ATOM     15  C   UNL     1      -2.290  -3.035  -2.989  0.00  0.00    +0.067 A 
ATOM     16  C   UNL     1      -1.874  -4.133  -3.745  0.00  0.00    +0.031 A 
ATOM     17  C   UNL     1      -2.810  -4.993  -4.281  0.00  0.00    +0.048 A 
ATOM     18  C   UNL     1      -4.163  -4.767  -4.070  0.00  0.00    +0.120 A 
ATOM     19  C   UNL     1      -4.581  -3.677  -3.319  0.00  0.00    +0.048 A 
ATOM     20  C   UNL     1      -3.652  -2.816  -2.774  0.00  0.00    +0.031 A 
BRANCH  18  21
ATOM     21  O   UNL     1      -5.083  -5.617  -4.601  0.00  0.00    -0.495 OA
ATOM     22  C   UNL     1      -6.458  -5.327  -4.345  0.00  0.00    +0.277 C 
ENDBRANCH  18  21
ENDBRANCH   8  15
BRANCH   1  23
ATOM     23  C   UNL     1       0.718  -0.497  -1.257  0.00  0.00    +0.116 C 
BRANCH  23  25
ATOM     24  C   UNL     1      -0.019   1.526   0.010  0.00  0.00    +0.005 C 
ATOM     25  C   UNL     1       0.002  -0.004   0.002  0.00  0.00    +0.016 C 
ENDBRANCH  23  25
ENDBRANCH   1  23
TORSDOF 5
