REMARK  Name = ZINC00997876
REMARK  9 active torsions:
REMARK  status: ('A' for Active; 'I' for Inactive)
REMARK    1  A    between atoms: C_1  and  C_2
REMARK    2  A    between atoms: C_3  and  C_13
REMARK    3  A    between atoms: C_4  and  C_7
REMARK    4  A    between atoms: N_15  and  C_16
REMARK    5  A    between atoms: C_17  and  C_30
REMARK    6  A    between atoms: C_22  and  C_26
REMARK    7  A    between atoms: C_26  and  C_27
REMARK    8  A    between atoms: C_26  and  C_28
REMARK    9  A    between atoms: C_26  and  C_29
REMARK                            x       y       z     vdW  Elec       q    Type
REMARK                         _______ _______ _______ _____ _____    ______ ____
ROOT
ATOM      1  C   UNL     1       2.094   4.856  -3.604  0.00  0.00    +0.085 A 
ATOM      2  C   UNL     1       1.874   4.804  -4.973  0.00  0.00    +0.068 A 
ATOM      3  C   UNL     1       0.914   5.739  -5.535  0.00  0.00    -0.023 A 
ATOM      4  C   UNL     1       0.332   6.571  -4.644  0.00  0.00    -0.004 A 
ATOM      5  S   UNL     1       1.034   6.124  -3.082  0.00  0.00    -0.077 S 
ATOM      6  C   UNL     1      -0.685   7.632  -4.930  0.00  0.00    +0.046 C 
ATOM      7  C   UNL     1      -0.700   7.893  -6.443  0.00  0.00    -0.000 C 
ATOM      8  C   UNL     1      -0.765   6.549  -7.175  0.00  0.00    +0.009 C 
ATOM      9  C   UNL     1       0.563   5.806  -7.016  0.00  0.00    +0.037 C 
ENDROOT
BRANCH   2  10
ATOM     10  C   UNL     1       2.583   3.841  -5.821  0.00  0.00    +0.244 C 
ATOM     11  O   UNL     1       2.105   2.740  -6.022  0.00  0.00    -0.270 OA
ATOM     12  N   UNL     1       3.764   4.176  -6.378  0.00  0.00    -0.325 N 
ATOM     13  H   UNL     1       4.145   5.053  -6.218  0.00  0.00    +0.145 HD
ATOM     14  H   UNL     1       4.233   3.538  -6.939  0.00  0.00    +0.145 HD
ENDBRANCH   2  10
BRANCH   1  17
ATOM     15  C   UNL     1       3.029   4.276  -1.508  0.00  0.00    +0.254 C 
ATOM     16  O   UNL     1       2.352   5.136  -0.979  0.00  0.00    -0.270 OA
ATOM     17  N   UNL     1       2.949   4.079  -2.839  0.00  0.00    -0.275 N 
ATOM     18  H   UNL     1       3.489   3.393  -3.261  0.00  0.00    +0.156 HD
BRANCH  15  21
ATOM     19  C   UNL     1       6.083   4.870  -0.791  0.00  0.00    +0.090 C 
ATOM     20  C   UNL     1       5.251   3.684  -0.374  0.00  0.00    +0.147 A 
ATOM     21  C   UNL     1       3.938   3.450  -0.696  0.00  0.00    +0.106 A 
ATOM     22  C   UNL     1       3.660   2.164  -0.022  0.00  0.00    +0.126 A 
ATOM     23  N   UNL     1       4.784   1.834   0.561  0.00  0.00    -0.077 NA
ATOM     24  O   UNL     1       5.650   2.653   0.374  0.00  0.00    -0.359 OA
BRANCH  22  25
ATOM     25  C   UNL     1       2.384   1.407  -0.013  0.00  0.00    +0.004 A 
ATOM     26  C   UNL     1       1.167   2.088   0.002  0.00  0.00    +0.010 A 
ATOM     27  C   UNL     1      -0.017   1.379   0.010  0.00  0.00    +0.001 A 
ATOM     28  C   UNL     1       0.002  -0.004   0.002  0.00  0.00    +0.000 A 
ATOM     29  C   UNL     1       1.206  -0.685  -0.013  0.00  0.00    +0.001 A 
ATOM     30  C   UNL     1       2.397   0.014  -0.021  0.00  0.00    +0.010 A 
ENDBRANCH  22  25
ENDBRANCH  15  21
ENDBRANCH   1  17
BRANCH   7  31
ATOM     31  C   UNL     1      -1.926   8.734  -6.806  0.00  0.00    -0.035 C 
ATOM     32  C   UNL     1      -1.868  10.069  -6.061  0.00  0.00    +0.011 C 
ATOM     33  C   UNL     1      -1.938   8.992  -8.315  0.00  0.00    +0.011 C 
ATOM     34  C   UNL     1      -3.197   7.982  -6.408  0.00  0.00    +0.011 C 
ENDBRANCH   7  31
TORSDOF 5
