REMARK  Name = ZINC08826385
REMARK  13 active torsions:
REMARK  status: ('A' for Active; 'I' for Inactive)
REMARK    1  A    between atoms: C_1  and  O_2
REMARK    2  A    between atoms: O_2  and  C_3
REMARK    3  A    between atoms: C_3  and  C_5
REMARK    4  A    between atoms: C_9  and  N_10
REMARK    5  A    between atoms: C_11  and  C_13
REMARK    6  A    between atoms: C_13  and  O_14
REMARK    7  A    between atoms: O_14  and  C_15
REMARK    8  A    between atoms: C_15  and  C_17
REMARK    9  A    between atoms: C_19  and  N_27
REMARK   10  A    between atoms: C_22  and  N_23
REMARK   11  A    between atoms: N_23  and  C_24
REMARK   12  A    between atoms: C_24  and  C_25
REMARK   13  A    between atoms: C_25  and  O_26
REMARK                            x       y       z     vdW  Elec       q    Type
REMARK                         _______ _______ _______ _____ _____    ______ ____
ROOT
ATOM      1  C   UNL     1       1.123   3.576  -0.060  0.00  0.00    +0.328 C 
ENDROOT
BRANCH   1   3
ATOM      2  N   UNL     1      -0.013   1.379  -0.112  0.00  0.00    -0.277 N 
ATOM      3  C   UNL     1       1.144   2.070  -0.102  0.00  0.00    +0.255 C 
ATOM      4  O   UNL     1       2.203   1.479  -0.128  0.00  0.00    -0.272 OA
ATOM      5  H   UNL     1      -0.860   1.852  -0.096  0.00  0.00    +0.155 HD
BRANCH   2  10
ATOM      6  C   UNL     1      -1.067  -0.884  -0.160  0.00  0.00    +0.091 A 
ATOM      7  C   UNL     1      -0.775  -2.311  -0.210  0.00  0.00    -0.021 A 
ATOM      8  C   UNL     1       0.538  -2.623  -0.226  0.00  0.00    -0.004 A 
ATOM      9  S   UNL     1       1.378  -1.063  -0.191  0.00  0.00    -0.077 S 
ATOM     10  C   UNL     1       0.006  -0.006  -0.150  0.00  0.00    +0.086 A 
ATOM     11  C   UNL     1       1.154  -3.986  -0.250  0.00  0.00    +0.043 C 
ATOM     12  C   UNL     1       0.484  -4.826  -1.346  0.00  0.00    +0.005 C 
ATOM     13  C   UNL     1      -0.719  -5.541  -0.738  0.00  0.00    +0.001 C 
ATOM     14  C   UNL     1      -1.350  -4.675   0.350  0.00  0.00    +0.005 C 
ATOM     15  C   UNL     1      -1.870  -3.370  -0.244  0.00  0.00    +0.037 C 
BRANCH   6  16
ATOM     16  C   UNL     1      -2.447  -0.394  -0.125  0.00  0.00    +0.342 C 
ATOM     17  O   UNL     1      -3.036  -0.160  -1.163  0.00  0.00    -0.245 OA
BRANCH  16  19
ATOM     18  C   UNL     1      -4.431   0.286   1.018  0.00  0.00    +0.280 C 
ATOM     19  O   UNL     1      -3.064  -0.202   1.059  0.00  0.00    -0.464 OA
ENDBRANCH  16  19
ENDBRANCH   6  16
ENDBRANCH   2  10
ENDBRANCH   1   3
BRANCH   1  20
ATOM     20  O   UNL     1       2.485   4.080  -0.058  0.00  0.00    -0.452 OA
BRANCH  20  21
ATOM     21  C   UNL     1       2.642   5.417  -0.022  0.00  0.00    +0.342 C 
ATOM     22  O   UNL     1       1.668   6.143   0.006  0.00  0.00    -0.245 OA
BRANCH  21  23
ATOM     23  C   UNL     1       3.995   6.000  -0.018  0.00  0.00    +0.082 A 
ATOM     24  C   UNL     1       5.117   5.171   0.073  0.00  0.00    +0.049 A 
ATOM     25  C   UNL     1       6.380   5.722   0.072  0.00  0.00    +0.127 A 
ATOM     26  C   UNL     1       6.545   7.096  -0.008  0.00  0.00    +0.034 A 
ATOM     27  C   UNL     1       5.447   7.928  -0.093  0.00  0.00    +0.026 A 
ATOM     28  C   UNL     1       4.166   7.391  -0.098  0.00  0.00    +0.041 A 
BRANCH  25  29
ATOM     29  N   UNL     1       7.567   4.842   0.163  0.00  0.00    +0.056 N 
ATOM     30  O   UNL     1       8.684   5.326   0.167  0.00  0.00    -0.126 OA
ATOM     31  O   UNL     1       7.426   3.634   0.233  0.00  0.00    -0.126 OA
ENDBRANCH  25  29
BRANCH  28  32
ATOM     32  N   UNL     1       3.060   8.226  -0.183  0.00  0.00    -0.341 N 
ATOM     33  H   UNL     1       2.166   7.857  -0.104  0.00  0.00    +0.146 HD
BRANCH  32  34
ATOM     34  C   UNL     1       3.242   9.665  -0.391  0.00  0.00    +0.129 C 
BRANCH  34  35
ATOM     35  C   UNL     1       1.875  10.350  -0.447  0.00  0.00    +0.174 C 
BRANCH  35  36
ATOM     36  O   UNL     1       1.230  10.230   0.823  0.00  0.00    -0.393 OA
ATOM     37  H   UNL     1       0.357  10.643   0.861  0.00  0.00    +0.209 HD
ENDBRANCH  35  36
ENDBRANCH  34  35
ENDBRANCH  32  34
ENDBRANCH  28  32
ENDBRANCH  21  23
ENDBRANCH  20  21
ENDBRANCH   1  20
TORSDOF 12
