REMARK  Name = ZINC14697610
REMARK  11 active torsions:
REMARK  status: ('A' for Active; 'I' for Inactive)
REMARK    1  A    between atoms: C_1  and  C_2
REMARK    2  A    between atoms: C_2  and  C_4
REMARK    3  A    between atoms: C_2  and  C_33
REMARK    4  A    between atoms: C_4  and  C_5
REMARK    5  A    between atoms: N_7  and  C_8
REMARK    6  A    between atoms: N_7  and  C_16
REMARK    7  A    between atoms: C_8  and  C_9
REMARK    8  A    between atoms: C_9  and  C_10
REMARK    9  A    between atoms: C_17  and  N_32
REMARK   10  A    between atoms: N_18  and  C_25
REMARK   11  A    between atoms: C_25  and  C_26
REMARK                            x       y       z     vdW  Elec       q    Type
REMARK                         _______ _______ _______ _____ _____    ______ ____
ROOT
ATOM      1  C   UNL     1       0.222  -0.265  -2.612  0.00  0.00    +0.221 C 
ATOM      2  O   UNL     1      -0.591   0.610  -2.396  0.00  0.00    -0.275 OA
ATOM      3  N   UNL     1       0.443  -0.682  -3.876  0.00  0.00    -0.264 N 
ENDROOT
BRANCH   3   4
ATOM      4  C   UNL     1      -0.338  -0.172  -4.935  0.00  0.00    +0.140 A 
ATOM      5  C   UNL     1      -1.695  -0.417  -4.988  0.00  0.00    +0.128 A 
ATOM      6  N   UNL     1      -2.429   0.095  -6.032  0.00  0.00    -0.276 N 
ATOM      7  C   UNL     1      -1.832   0.826  -6.991  0.00  0.00    +0.331 A 
ATOM      8  O   UNL     1      -2.499   1.270  -7.906  0.00  0.00    -0.246 OA
ATOM      9  N   UNL     1      -0.511   1.076  -6.955  0.00  0.00    -0.273 N 
ATOM     10  H   UNL     1      -0.104   1.606  -7.658  0.00  0.00    +0.173 HD
ATOM     11  C   UNL     1       0.253   0.602  -5.951  0.00  0.00    +0.277 A 
ATOM     12  O   UNL     1       1.449   0.838  -5.926  0.00  0.00    -0.266 OA
BRANCH   5  13
ATOM     13  N   UNL     1      -2.305  -1.165  -4.009  0.00  0.00    -0.343 N 
ATOM     14  H   UNL     1      -1.788  -1.494  -3.258  0.00  0.00    +0.144 HD
ATOM     15  H   UNL     1      -3.252  -1.363  -4.070  0.00  0.00    +0.144 HD
ENDBRANCH   5  13
BRANCH   6  16
ATOM     16  C   UNL     1      -3.870  -0.159  -6.102  0.00  0.00    +0.163 C 
BRANCH  16  17
ATOM     17  C   UNL     1      -4.609   0.936  -5.375  0.00  0.00    -0.028 A 
ATOM     18  C   UNL     1      -4.880   0.809  -4.026  0.00  0.00    +0.005 A 
ATOM     19  C   UNL     1      -5.557   1.813  -3.359  0.00  0.00    +0.000 A 
ATOM     20  C   UNL     1      -5.962   2.945  -4.042  0.00  0.00    +0.000 A 
ATOM     21  C   UNL     1      -5.690   3.072  -5.391  0.00  0.00    +0.000 A 
ATOM     22  C   UNL     1      -5.009   2.070  -6.057  0.00  0.00    +0.005 A 
ENDBRANCH  16  17
ENDBRANCH   6  16
ENDBRANCH   3   4
BRANCH   1  23
ATOM     23  C   UNL     1       0.983  -0.885  -1.470  0.00  0.00    +0.104 C 
BRANCH  23  25
ATOM     24  C   UNL     1       0.950   1.239  -0.155  0.00  0.00    +0.013 C 
ATOM     25  C   UNL     1       0.547  -0.237  -0.154  0.00  0.00    +0.025 C 
BRANCH  25  26
ATOM     26  C   UNL     1       1.217  -0.939   0.999  0.00  0.00    -0.044 A 
ATOM     27  C   UNL     1       2.596  -0.965   1.085  0.00  0.00    +0.004 A 
ATOM     28  C   UNL     1       3.210  -1.609   2.143  0.00  0.00    +0.000 A 
ATOM     29  C   UNL     1       2.445  -2.228   3.114  0.00  0.00    +0.000 A 
ATOM     30  C   UNL     1       1.066  -2.202   3.027  0.00  0.00    +0.000 A 
ATOM     31  C   UNL     1       0.452  -1.554   1.972  0.00  0.00    +0.004 A 
ENDBRANCH  25  26
ENDBRANCH  23  25
ENDBRANCH   1  23
BRANCH   3  32
ATOM     32  C   UNL     1       1.494  -1.666  -4.149  0.00  0.00    +0.118 C 
BRANCH  32  33
ATOM     33  C   UNL     1       0.911  -3.077  -4.045  0.00  0.00    +0.050 C 
BRANCH  33  34
ATOM     34  C   UNL     1       1.992  -4.089  -4.326  0.00  0.00    -0.072 C 
ATOM     35  C   UNL     1       2.621  -4.601  -3.317  0.00  0.00    -0.028 C 
ATOM     36  C   UNL     1       3.725  -5.609  -3.439  0.00  0.00    +0.027 C 
ATOM     37  C   UNL     1       3.707  -6.246  -4.830  0.00  0.00    +0.004 C 
ATOM     38  C   UNL     1       3.635  -5.125  -5.875  0.00  0.00    +0.005 C 
ATOM     39  C   UNL     1       2.267  -4.445  -5.757  0.00  0.00    +0.030 C 
ENDBRANCH  33  34
ENDBRANCH  32  33
ENDBRANCH   3  32
TORSDOF 10
