REMARK  Name = ZINC39711273
REMARK  10 active torsions:
REMARK  status: ('A' for Active; 'I' for Inactive)
REMARK    1  A    between atoms: C_1  and  C_2
REMARK    2  A    between atoms: C_6  and  C_15
REMARK    3  A    between atoms: C_13  and  C_14
REMARK    4  A    between atoms: C_15  and  C_17
REMARK    5  A    between atoms: C_15  and  N_29
REMARK    6  A    between atoms: N_22  and  C_23
REMARK    7  A    between atoms: N_29  and  C_30
REMARK    8  A    between atoms: N_29  and  C_36
REMARK    9  A    between atoms: C_30  and  C_31
REMARK   10  A    between atoms: C_36  and  C_37
REMARK                            x       y       z     vdW  Elec       q    Type
REMARK                         _______ _______ _______ _____ _____    ______ ____
ROOT
ATOM      1  C   UNL     1      -1.242  -5.117  -2.103  0.00  0.00    -0.008 C 
ENDROOT
BRANCH   1   7
ATOM      2  C   UNL     1       4.416  -1.586   0.455  0.00  0.00    +0.044 C 
ATOM      3  C   UNL     1       3.041  -2.193   0.573  0.00  0.00    -0.047 A 
ATOM      4  C   UNL     1       2.675  -3.182  -0.283  0.00  0.00    +0.013 A 
ATOM      5  C   UNL     1       1.338  -3.763  -0.158  0.00  0.00    -0.007 A 
ATOM      6  C   UNL     1       0.927  -4.758  -0.994  0.00  0.00    -0.006 C 
ATOM      7  C   UNL     1      -0.473  -5.302  -0.793  0.00  0.00    +0.088 C 
ATOM      8  C   UNL     1      -1.300  -4.697   0.319  0.00  0.00    +0.223 C 
ATOM      9  O   UNL     1      -2.431  -5.095   0.525  0.00  0.00    -0.275 OA
ATOM     10  N   UNL     1      -0.790  -3.732   1.066  0.00  0.00    -0.285 N 
ATOM     11  C   UNL     1       0.441  -3.252   0.892  0.00  0.00    +0.041 A 
ATOM     12  C   UNL     1       0.919  -2.224   1.727  0.00  0.00    +0.027 A 
ATOM     13  C   UNL     1       2.174  -1.730   1.563  0.00  0.00    -0.046 A 
ATOM     14  C   UNL     1       2.645  -0.634   2.483  0.00  0.00    +0.044 C 
ATOM     15  H   UNL     1      -1.337  -3.357   1.774  0.00  0.00    +0.155 HD
ENDBRANCH   1   7
BRANCH   1  16
ATOM     16  C   UNL     1      -0.615  -3.975  -2.905  0.00  0.00    +0.205 C 
ATOM     17  N   UNL     1      -0.538  -2.756  -2.088  0.00  0.00    -0.152 NA
ATOM     18  N   UNL     1      -1.210  -1.873  -2.625  0.00  0.00    -0.070 NA
ATOM     19  N   UNL     1      -1.816  -2.297  -3.808  0.00  0.00    -0.179 N 
ATOM     20  N   UNL     1      -1.482  -3.607  -4.044  0.00  0.00    -0.185 NA
ATOM     21  H   UNL     1      -2.383  -1.751  -4.375  0.00  0.00    +0.191 HD
BRANCH  20  22
ATOM     22  C   UNL     1      -2.680  -4.457  -4.088  0.00  0.00    +0.080 C 
ATOM     23  C   UNL     1      -2.766  -5.146  -5.451  0.00  0.00    +0.021 C 
ATOM     24  C   UNL     1      -4.014  -6.031  -5.498  0.00  0.00    +0.002 C 
ATOM     25  C   UNL     1      -5.259  -5.168  -5.284  0.00  0.00    +0.000 C 
ATOM     26  C   UNL     1      -5.173  -4.478  -3.921  0.00  0.00    +0.002 C 
ATOM     27  C   UNL     1      -3.925  -3.593  -3.874  0.00  0.00    +0.021 C 
ENDBRANCH  20  22
ENDBRANCH   1  16
BRANCH   1  28
ATOM     28  N   UNL     1      -1.180  -6.358  -2.886  0.00  0.00    +0.392 N 
ATOM     29  H   UNL     1      -1.700  -6.241  -3.743  0.00  0.00    -0.080 HD
BRANCH  28  30
ATOM     30  C   UNL     1      -1.761  -7.459  -2.107  0.00  0.00    -0.002 C 
BRANCH  30  31
ATOM     31  C   UNL     1      -3.241  -7.229  -1.939  0.00  0.00    +0.089 A 
ATOM     32  C   UNL     1      -4.211  -7.749  -2.713  0.00  0.00    +0.042 A 
ATOM     33  C   UNL     1      -5.441  -7.276  -2.202  0.00  0.00    +0.041 A 
ATOM     34  C   UNL     1      -5.150  -6.494  -1.147  0.00  0.00    +0.195 A 
ATOM     35  O   UNL     1      -3.816  -6.474  -0.989  0.00  0.00    -0.470 OA
ENDBRANCH  30  31
ENDBRANCH  28  30
BRANCH  28  36
ATOM     36  C   UNL     1       0.221  -6.668  -3.202  0.00  0.00    -0.034 C 
BRANCH  36  37
ATOM     37  C   UNL     1       0.524  -6.239  -4.614  0.00  0.00    -0.027 A 
ATOM     38  C   UNL     1       1.134  -5.109  -5.051  0.00  0.00    +0.009 A 
ATOM     39  C   UNL     1       1.309  -4.924  -6.409  0.00  0.00    +0.008 A 
ATOM     40  C   UNL     1       0.866  -5.878  -7.265  0.00  0.00    +0.045 A 
ATOM     41  S   UNL     1       0.182  -7.089  -6.146  0.00  0.00    -0.103 S 
ENDBRANCH  36  37
ENDBRANCH  28  36
ENDBRANCH   1  28
TORSDOF 8
