REMARK  Name = ZINC62689283
REMARK  4 active torsions:
REMARK  status: ('A' for Active; 'I' for Inactive)
REMARK    1  A    between atoms: C_1  and  C_2
REMARK    2  A    between atoms: C_7  and  C_8
REMARK    3  A    between atoms: N_15  and  S_16
REMARK    4  A    between atoms: S_16  and  C_19
REMARK                            x       y       z     vdW  Elec       q    Type
REMARK                         _______ _______ _______ _____ _____    ______ ____
ROOT
ATOM      1  C   UNL     1       0.172   0.214   2.524  0.00  0.00    +0.196 C 
ATOM      2  C   UNL     1       1.544   0.816   2.658  0.00  0.00    +0.236 C 
ATOM      3  O   UNL     1       2.006   1.420   1.714  0.00  0.00    -0.274 OA
ATOM      4  N   UNL     1       2.277   0.716   3.768  0.00  0.00    -0.312 N 
ATOM      5  C   UNL     1       1.893  -0.052   4.946  0.00  0.00    +0.121 C 
ATOM      6  C   UNL     1       0.379  -0.270   4.982  0.00  0.00    +0.129 C 
ATOM      7  N   UNL     1      -0.057  -0.710   3.645  0.00  0.00    -0.158 NA
ATOM      8  H   UNL     1       3.124   1.187   3.794  0.00  0.00    +0.149 HD
ENDROOT
BRANCH   1  15
ATOM      9  C   UNL     1      -2.063   0.674   0.752  0.00  0.00    +0.044 C 
ATOM     10  C   UNL     1      -0.993  -0.318   0.374  0.00  0.00    -0.045 A 
ATOM     11  C   UNL     1      -1.079  -1.004  -0.823  0.00  0.00    +0.004 A 
ATOM     12  C   UNL     1      -0.098  -1.914  -1.170  0.00  0.00    +0.000 A 
ATOM     13  C   UNL     1       0.969  -2.138  -0.319  0.00  0.00    +0.000 A 
ATOM     14  C   UNL     1       1.055  -1.452   0.877  0.00  0.00    +0.006 A 
ATOM     15  C   UNL     1       0.076  -0.538   1.222  0.00  0.00    -0.017 A 
ENDBRANCH   1  15
BRANCH   7  16
ATOM     16  S   UNL     1      -0.773  -2.185   3.413  0.00  0.00    +0.068 S 
ATOM     17  O   UNL     1      -1.486  -2.482   4.605  0.00  0.00    -0.152 OA
ATOM     18  O   UNL     1      -1.403  -2.135   2.140  0.00  0.00    -0.152 OA
BRANCH  16  19
ATOM     19  C   UNL     1       0.519  -3.377   3.289  0.00  0.00    +0.144 A 
ATOM     20  C   UNL     1       1.196  -4.008   4.279  0.00  0.00    +0.038 A 
ATOM     21  C   UNL     1       2.183  -4.917   3.944  0.00  0.00    +0.030 A 
ATOM     22  C   UNL     1       2.443  -5.150   2.633  0.00  0.00    +0.080 A 
ATOM     23  S   UNL     1       1.270  -4.072   1.826  0.00  0.00    -0.057 S 
ATOM     24 CL   UNL     1       3.610  -6.222   1.924  0.00  0.00    -0.076 Cl
ENDBRANCH  16  19
ENDBRANCH   7  16
TORSDOF 3
