REMARK  Name = ZINC47502017
REMARK  5 active torsions:
REMARK  status: ('A' for Active; 'I' for Inactive)
REMARK    1  A    between atoms: C_6  and  C_7
REMARK    2  A    between atoms: C_7  and  C_8
REMARK    3  A    between atoms: C_8  and  C_9
REMARK    4  A    between atoms: N_11  and  C_12
REMARK    5  A    between atoms: C_14  and  C_20
REMARK                            x       y       z     vdW  Elec       q    Type
REMARK                         _______ _______ _______ _____ _____    ______ ____
ROOT
ATOM      1  C   UNL     1      -3.140  -1.655  -1.425  0.00  0.00    +0.218 C 
ATOM      2  O   UNL     1      -3.741  -1.844  -0.388  0.00  0.00    -0.275 OA
ATOM      3  N   UNL     1      -3.632  -2.134  -2.585  0.00  0.00    -0.281 N 
ATOM      4  H   UNL     1      -3.192  -1.922  -3.422  0.00  0.00    +0.155 HD
ENDROOT
BRANCH   3   5
ATOM      5  C   UNL     1      -4.779  -2.938  -2.580  0.00  0.00    +0.099 A 
ATOM      6  C   UNL     1      -5.890  -2.565  -3.287  0.00  0.00    +0.042 A 
ATOM      7  C   UNL     1      -7.024  -3.388  -3.266  0.00  0.00    +0.073 A 
ATOM      8  C   UNL     1      -7.013  -4.537  -2.553  0.00  0.00    +0.098 A 
ATOM      9  N   UNL     1      -5.911  -4.910  -1.850  0.00  0.00    -0.327 N 
ATOM     10  H   UNL     1      -5.923  -5.738  -1.344  0.00  0.00    +0.168 HD
ATOM     11  C   UNL     1      -4.802  -4.147  -1.851  0.00  0.00    +0.270 A 
ATOM     12  O   UNL     1      -3.818  -4.497  -1.219  0.00  0.00    -0.266 OA
BRANCH   7  13
ATOM     13  C   UNL     1      -8.256  -2.993  -4.038  0.00  0.00    +0.419 C 
ATOM     14  F   UNL     1      -9.248  -3.965  -3.865  0.00  0.00    -0.166 F 
ATOM     15  F   UNL     1      -8.724  -1.760  -3.571  0.00  0.00    -0.166 F 
ATOM     16  F   UNL     1      -7.941  -2.886  -5.397  0.00  0.00    -0.166 F 
ENDBRANCH   7  13
ENDBRANCH   3   5
BRANCH   1  17
ATOM     17  C   UNL     1      -1.845  -0.884  -1.416  0.00  0.00    +0.101 C 
BRANCH  17  18
ATOM     18  C   UNL     1      -1.515  -0.458   0.015  0.00  0.00    +0.044 C 
BRANCH  18  24
ATOM     19  C   UNL     1      -0.233   1.685  -0.137  0.00  0.00    +0.007 A 
ATOM     20  C   UNL     1       0.953   2.397  -0.130  0.00  0.00    +0.050 A 
ATOM     21  C   UNL     1       2.158   1.734   0.038  0.00  0.00    +0.166 A 
ATOM     22  C   UNL     1       2.171   0.350   0.200  0.00  0.00    +0.166 A 
ATOM     23  C   UNL     1       0.979  -0.355   0.192  0.00  0.00    +0.053 A 
ATOM     24  C   UNL     1      -0.220   0.313   0.024  0.00  0.00    -0.043 A 
ATOM     25  O   UNL     1       3.465  -0.059   0.346  0.00  0.00    -0.453 OA
ATOM     26  C   UNL     1       4.270   1.032  -0.137  0.00  0.00    +0.466 C 
ATOM     27  O   UNL     1       3.443   2.191   0.082  0.00  0.00    -0.453 OA
ENDBRANCH  18  24
ENDBRANCH  17  18
ENDBRANCH   1  17
TORSDOF 5
