REMARK  Name = ZINC12698338
REMARK  4 active torsions:
REMARK  status: ('A' for Active; 'I' for Inactive)
REMARK    1  A    between atoms: C_5  and  C_6
REMARK    2  A    between atoms: N_8  and  N_9
REMARK    3  A    between atoms: C_10  and  C_12
REMARK    4  A    between atoms: C_12  and  C_13
REMARK                            x       y       z     vdW  Elec       q    Type
REMARK                         _______ _______ _______ _____ _____    ______ ____
ROOT
ATOM      1  C   UNL     1      -0.398  -2.996   2.304  0.00  0.00    +0.267 C 
ATOM      2  O   UNL     1      -0.713  -2.580   3.404  0.00  0.00    -0.268 OA
ATOM      3  N   UNL     1      -0.255  -4.321   2.101  0.00  0.00    -0.230 N 
ATOM      4  H   UNL     1      -0.004  -4.652   1.225  0.00  0.00    +0.173 HD
ENDROOT
BRANCH   1   9
ATOM      5  C   UNL     1      -0.268  -0.683   1.195  0.00  0.00    +0.024 A 
ATOM      6  C   UNL     1       0.002  -0.004   0.002  0.00  0.00    -0.036 A 
ATOM      7  C   UNL     1       0.281  -0.756  -1.077  0.00  0.00    -0.006 A 
ATOM      8  S   UNL     1       0.286  -2.390  -0.487  0.00  0.00    -0.088 S 
ATOM      9  C   UNL     1      -0.175  -2.057   1.201  0.00  0.00    +0.076 A 
ATOM     10  C   UNL     1       0.462  -0.426  -2.538  0.00  0.00    +0.043 C 
ATOM     11  C   UNL     1       0.262   1.064  -2.821  0.00  0.00    +0.005 C 
ATOM     12  C   UNL     1       1.496   1.869  -2.445  0.00  0.00    +0.000 C 
ATOM     13  C   UNL     1       2.164   1.372  -1.181  0.00  0.00    +0.000 C 
ATOM     14  C   UNL     1       1.426   2.016  -0.001  0.00  0.00    +0.005 C 
ATOM     15  C   UNL     1      -0.019   1.517   0.010  0.00  0.00    +0.036 C 
ENDBRANCH   1   9
BRANCH   3  16
ATOM     16  N   UNL     1      -0.467  -5.218   3.155  0.00  0.00    -0.234 N 
ATOM     17  C   UNL     1      -0.324  -6.543   2.952  0.00  0.00    +0.230 C 
ATOM     18  O   UNL     1      -0.010  -6.958   1.856  0.00  0.00    -0.274 OA
ATOM     19  H   UNL     1      -0.718  -4.886   4.032  0.00  0.00    +0.173 HD
BRANCH  17  20
ATOM     20  C   UNL     1      -0.553  -7.508   4.086  0.00  0.00    +0.105 C 
BRANCH  20  21
ATOM     21  C   UNL     1      -0.326  -8.939   3.592  0.00  0.00    +0.020 C 
ATOM     22  C   UNL     1      -0.677  -9.955   4.704  0.00  0.00    +0.012 C 
ATOM     23  C   UNL     1       0.401 -11.040   4.476  0.00  0.00    +0.027 C 
ATOM     24  C   UNL     1       1.536 -10.318   3.789  0.00  0.00    -0.031 C 
ATOM     25  C   UNL     1       1.139  -9.171   3.307  0.00  0.00    -0.027 C 
ENDBRANCH  20  21
ENDBRANCH  17  20
ENDBRANCH   3  16
TORSDOF 4
