REMARK  Name = ZINC40160152
REMARK  10 active torsions:
REMARK  status: ('A' for Active; 'I' for Inactive)
REMARK    1  A    between atoms: C_1  and  C_2
REMARK    2  A    between atoms: C_2  and  N_3
REMARK    3  A    between atoms: N_3  and  C_4
REMARK    4  A    between atoms: N_3  and  S_6
REMARK    5  A    between atoms: C_4  and  C_5
REMARK    6  A    between atoms: S_6  and  C_9
REMARK    7  A    between atoms: C_13  and  C_15
REMARK    8  A    between atoms: C_20  and  C_23
REMARK    9  A    between atoms: C_23  and  N_24
REMARK   10  A    between atoms: C_27  and  C_30
REMARK                            x       y       z     vdW  Elec       q    Type
REMARK                         _______ _______ _______ _____ _____    ______ ____
ROOT
ATOM      1  C   UNL     1       4.658   2.329   4.493  0.00  0.00    +0.251 C 
ATOM      2  O   UNL     1       5.277   3.342   4.756  0.00  0.00    -0.270 OA
ATOM      3  N   UNL     1       4.318   1.473   5.477  0.00  0.00    -0.261 N 
ATOM      4  C   UNL     1       4.675   1.748   6.791  0.00  0.00    +0.165 A 
ATOM      5  N   UNL     1       4.436   1.034   7.870  0.00  0.00    -0.231 NA
ATOM      6  C   UNL     1       4.845   1.436   9.059  0.00  0.00    +0.034 A 
ATOM      7  C   UNL     1       5.518   2.611   9.114  0.00  0.00    +0.070 A 
ATOM      8  S   UNL     1       5.523   3.073   7.389  0.00  0.00    -0.060 S 
ATOM      9  H   UNL     1       3.824   0.665   5.268  0.00  0.00    +0.157 HD
ENDROOT
BRANCH   1  14
ATOM     10  C   UNL     1       3.218   0.606   1.484  0.00  0.00    +0.106 A 
ATOM     11  C   UNL     1       3.567   1.487   0.475  0.00  0.00    +0.030 A 
ATOM     12  C   UNL     1       4.271   2.641   0.769  0.00  0.00    +0.022 A 
ATOM     13  C   UNL     1       4.629   2.922   2.073  0.00  0.00    +0.053 A 
ATOM     14  C   UNL     1       4.279   2.037   3.096  0.00  0.00    +0.057 A 
ATOM     15  C   UNL     1       3.563   0.876   2.791  0.00  0.00    +0.043 A 
ATOM     16 CL   UNL     1       5.513   4.370   2.441  0.00  0.00    -0.083 Cl
BRANCH  10  17
ATOM     17  S   UNL     1       2.322  -0.861   1.097  0.00  0.00    +0.061 S 
ATOM     18  O   UNL     1       2.586  -1.786   2.143  0.00  0.00    -0.153 OA
ATOM     19  O   UNL     1       2.594  -1.155  -0.266  0.00  0.00    -0.153 OA
BRANCH  17  20
ATOM     20  N   UNL     1       0.711  -0.489   1.189  0.00  0.00    -0.177 NA
BRANCH  20  22
ATOM     21  C   UNL     1      -0.019   1.526   0.010  0.00  0.00    +0.022 C 
ATOM     22  C   UNL     1       0.002  -0.004   0.002  0.00  0.00    +0.106 C 
ENDBRANCH  20  22
BRANCH  20  23
ATOM     23  C   UNL     1      -0.006  -0.646   2.457  0.00  0.00    +0.106 C 
ATOM     24  C   UNL     1      -0.694  -2.013   2.489  0.00  0.00    +0.022 C 
ENDBRANCH  20  23
ENDBRANCH  17  20
ENDBRANCH  10  17
ENDBRANCH   1  14
BRANCH   6  25
ATOM     25  C   UNL     1       4.576   0.624  10.299  0.00  0.00    -0.022 C 
BRANCH  25  26
ATOM     26  N   UNL     1       3.241   0.950  10.818  0.00  0.00    +0.383 N 
ATOM     27  C   UNL     1       3.214   2.353  11.248  0.00  0.00    -0.078 C 
ATOM     28  C   UNL     1       1.803   2.720  11.713  0.00  0.00    -0.016 C 
ATOM     29  C   UNL     1       1.407   1.818  12.885  0.00  0.00    -0.018 C 
ATOM     30  C   UNL     1       1.511   0.354  12.447  0.00  0.00    -0.016 C 
ATOM     31  C   UNL     1       2.932   0.074  11.955  0.00  0.00    -0.078 C 
ATOM     32  C   UNL     1      -0.032   2.126  13.304  0.00  0.00    +0.007 C 
ATOM     33  H   UNL     1       2.556   0.810  10.091  0.00  0.00    -0.081 HD
ENDBRANCH  25  26
ENDBRANCH   6  25
TORSDOF 7
