REMARK  Name = ZINC60208029
REMARK  7 active torsions:
REMARK  status: ('A' for Active; 'I' for Inactive)
REMARK    1  A    between atoms: C_1  and  C_2
REMARK    2  A    between atoms: C_5  and  N_12
REMARK    3  A    between atoms: C_13  and  C_15
REMARK    4  A    between atoms: C_15  and  N_16
REMARK    5  A    between atoms: C_21  and  C_28
REMARK    6  A    between atoms: C_24  and  C_26
REMARK    7  A    between atoms: C_24  and  C_27
REMARK                            x       y       z     vdW  Elec       q    Type
REMARK                         _______ _______ _______ _____ _____    ______ ____
ROOT
ATOM      1  C   UNL     1      -0.134  -6.342  -1.270  0.00  0.00    +0.214 C 
ENDROOT
BRANCH   1   2
ATOM      2  N   UNL     1      -0.233  -6.799  -2.658  0.00  0.00    -0.215 N 
ATOM      3  C   UNL     1      -1.397  -6.994  -3.315  0.00  0.00    +0.247 C 
ATOM      4  O   UNL     1      -2.506  -6.996  -2.827  0.00  0.00    -0.273 OA
ATOM      5  C   UNL     1      -1.011  -7.210  -4.759  0.00  0.00    +0.113 C 
ATOM      6  C   UNL     1      -1.671  -8.461  -5.317  0.00  0.00    +0.038 C 
ATOM      7  C   UNL     1      -3.163  -8.211  -5.541  0.00  0.00    -0.011 C 
ATOM      8  C   UNL     1      -3.321  -7.097  -6.573  0.00  0.00    +0.009 C 
ATOM      9  C   UNL     1      -2.699  -5.797  -6.074  0.00  0.00    -0.032 C 
ATOM     10  C   UNL     1      -1.267  -5.978  -5.603  0.00  0.00    +0.041 C 
ATOM     11  C   UNL     1      -2.693  -4.797  -7.251  0.00  0.00    +0.011 C 
ATOM     12  C   UNL     1      -3.563  -5.194  -4.963  0.00  0.00    +0.011 C 
ATOM     13  C   UNL     1      -3.816  -9.491  -6.072  0.00  0.00    +0.007 C 
ATOM     14  N   UNL     1       0.451  -7.435  -4.680  0.00  0.00    -0.285 N 
ATOM     15  C   UNL     1       0.817  -7.102  -3.430  0.00  0.00    +0.310 C 
ATOM     16  O   UNL     1       1.970  -7.080  -3.045  0.00  0.00    -0.252 OA
ATOM     17  H   UNL     1       1.016  -7.758  -5.396  0.00  0.00    +0.151 HD
ENDBRANCH   1   2
BRANCH   1  19
ATOM     18  N   UNL     1       0.059  -4.191  -0.064  0.00  0.00    -0.282 N 
ATOM     19  C   UNL     1      -0.041  -4.838  -1.242  0.00  0.00    +0.235 C 
ATOM     20  O   UNL     1      -0.054  -4.210  -2.280  0.00  0.00    -0.274 OA
ATOM     21  H   UNL     1       0.135  -4.695   0.761  0.00  0.00    +0.155 HD
BRANCH  18  26
ATOM     22  C   UNL     1       0.059   1.503   0.013  0.00  0.00    +0.044 C 
ATOM     23  C   UNL     1       0.053  -0.004   0.003  0.00  0.00    -0.040 A 
ATOM     24  C   UNL     1       0.635  -0.681  -1.029  0.00  0.00    +0.006 A 
ATOM     25  C   UNL     1       0.638  -2.069  -1.054  0.00  0.00    +0.026 A 
ATOM     26  C   UNL     1       0.052  -2.792  -0.032  0.00  0.00    +0.059 A 
ATOM     27  C   UNL     1      -0.549  -2.116   1.034  0.00  0.00    +0.087 A 
ATOM     28  C   UNL     1      -0.545  -0.710   1.056  0.00  0.00    +0.024 A 
ATOM     29  C   UNL     1      -1.210  -0.315   2.242  0.00  0.00    +0.143 A 
ATOM     30  N   UNL     1      -1.581  -1.383   2.887  0.00  0.00    -0.181 NA
ATOM     31  N   UNL     1      -1.199  -2.524   2.171  0.00  0.00    -0.275 N 
ATOM     32  H   UNL     1      -1.358  -3.443   2.438  0.00  0.00    +0.189 HD
ENDBRANCH  18  26
ENDBRANCH   1  19
TORSDOF 3
