REMARK  Name = ZINC51445429
REMARK  5 active torsions:
REMARK  status: ('A' for Active; 'I' for Inactive)
REMARK    1  A    between atoms: C_1  and  C_2
REMARK    2  A    between atoms: C_4  and  C_18
REMARK    3  A    between atoms: C_5  and  C_17
REMARK    4  A    between atoms: N_6  and  C_7
REMARK    5  A    between atoms: C_28  and  C_30
REMARK                            x       y       z     vdW  Elec       q    Type
REMARK                         _______ _______ _______ _____ _____    ______ ____
ROOT
ATOM      1  C   UNL     1       0.041  -3.340  -1.427  0.00  0.00    +0.026 C 
ATOM      2  C   UNL     1      -0.650  -3.367  -2.621  0.00  0.00    +0.079 C 
ATOM      3  C   UNL     1      -0.761  -4.609  -3.435  0.00  0.00    +0.132 C 
ATOM      4  N   UNL     1      -0.815  -5.807  -2.913  0.00  0.00    -0.385 N 
ATOM      5  N   UNL     1      -0.802  -4.367  -4.825  0.00  0.00    -0.153 N 
ATOM      6  C   UNL     1      -1.227  -3.123  -5.242  0.00  0.00    +0.181 C 
ATOM      7  N   UNL     1      -1.514  -2.087  -4.495  0.00  0.00    -0.152 NA
ATOM      8  C   UNL     1      -1.327  -2.163  -3.160  0.00  0.00    +0.273 C 
ATOM      9  O   UNL     1      -1.698  -1.268  -2.418  0.00  0.00    -0.268 OA
ATOM     10  S   UNL     1      -1.253  -3.307  -7.005  0.00  0.00    -0.033 S 
ATOM     11  C   UNL     1      -0.608  -4.973  -7.078  0.00  0.00    +0.130 C 
ATOM     12  N   UNL     1      -0.463  -5.270  -5.810  0.00  0.00    -0.164 NA
ATOM     13  H   UNL     1      -0.783  -5.918  -1.950  0.00  0.00    +0.157 HD
ATOM     14  H   UNL     1      -0.887  -6.584  -3.490  0.00  0.00    +0.157 HD
ENDROOT
BRANCH   1  18
ATOM     15  C   UNL     1       0.908   1.558  -0.546  0.00  0.00    +0.064 C 
ATOM     16  C   UNL     1       0.651   0.082  -0.384  0.00  0.00    +0.022 A 
ATOM     17  C   UNL     1       0.488  -0.794  -1.389  0.00  0.00    +0.031 A 
ATOM     18  C   UNL     1       0.264  -2.106  -0.765  0.00  0.00    -0.003 A 
ATOM     19  C   UNL     1       0.315  -1.889   0.602  0.00  0.00    +0.028 A 
ATOM     20  N   UNL     1       0.553  -0.578   0.810  0.00  0.00    -0.317 N 
ATOM     21  C   UNL     1       0.141  -2.937   1.671  0.00  0.00    +0.064 C 
BRANCH  20  22
ATOM     22  C   UNL     1       0.677   0.021   2.067  0.00  0.00    +0.054 A 
ATOM     23  C   UNL     1      -0.434   0.520   2.712  0.00  0.00    +0.027 A 
ATOM     24  C   UNL     1      -0.322   1.119   3.963  0.00  0.00    +0.003 A 
ATOM     25  C   UNL     1       0.885   1.229   4.583  0.00  0.00    +0.008 A 
ATOM     26  C   UNL     1       2.043   0.733   3.960  0.00  0.00    -0.016 A 
ATOM     27  C   UNL     1       1.940   0.116   2.688  0.00  0.00    +0.006 A 
ATOM     28  C   UNL     1       3.096  -0.384   2.069  0.00  0.00    +0.010 A 
ATOM     29  C   UNL     1       4.298  -0.275   2.698  0.00  0.00    +0.001 A 
ATOM     30  C   UNL     1       4.400   0.327   3.951  0.00  0.00    +0.001 A 
ATOM     31  C   UNL     1       3.302   0.833   4.576  0.00  0.00    +0.008 A 
ENDBRANCH  20  22
ENDBRANCH   1  18
BRANCH  11  32
ATOM     32  C   UNL     1      -0.312  -5.803  -8.267  0.00  0.00    +0.009 A 
ATOM     33  C   UNL     1       0.188  -7.096  -8.111  0.00  0.00    +0.010 A 
ATOM     34  C   UNL     1       0.461  -7.865  -9.224  0.00  0.00    +0.001 A 
ATOM     35  C   UNL     1       0.241  -7.357 -10.491  0.00  0.00    +0.000 A 
ATOM     36  C   UNL     1      -0.253  -6.075 -10.652  0.00  0.00    +0.001 A 
ATOM     37  C   UNL     1      -0.537  -5.298  -9.548  0.00  0.00    +0.010 A 
ENDBRANCH  11  32
TORSDOF 3
