REMARK  Name = ZINC64623040
REMARK  4 active torsions:
REMARK  status: ('A' for Active; 'I' for Inactive)
REMARK    1  A    between atoms: C_1  and  O_2
REMARK    2  A    between atoms: O_2  and  C_3
REMARK    3  A    between atoms: C_6  and  C_9
REMARK    4  A    between atoms: N_26  and  C_27
REMARK                            x       y       z     vdW  Elec       q    Type
REMARK                         _______ _______ _______ _____ _____    ______ ____
ROOT
ATOM      1  C   UNL     1       2.007  -3.258  -4.569  0.00  0.00    +0.134 C 
ATOM      2  C   UNL     1       1.285  -4.161  -5.574  0.00  0.00    +0.131 C 
ATOM      3  C   UNL     1       2.360  -4.747  -6.481  0.00  0.00    -0.035 C 
ATOM      4  C   UNL     1       2.016  -4.429  -7.724  0.00  0.00    -0.001 A 
ATOM      5  C   UNL     1       2.617  -4.769  -9.024  0.00  0.00    +0.010 A 
ATOM      6  C   UNL     1       2.002  -4.256 -10.121  0.00  0.00    +0.001 A 
ATOM      7  C   UNL     1       0.863  -3.447 -10.057  0.00  0.00    +0.002 A 
ATOM      8  C   UNL     1       0.242  -3.087  -8.905  0.00  0.00    +0.026 A 
ATOM      9  C   UNL     1       0.793  -3.571  -7.683  0.00  0.00    +0.043 A 
ATOM     10  N   UNL     1       0.382  -3.399  -6.439  0.00  0.00    -0.375 N 
ATOM     11  C   UNL     1       3.575  -5.461  -5.941  0.00  0.00    +0.052 C 
ATOM     12  C   UNL     1       4.194  -4.537  -4.877  0.00  0.00    +0.114 C 
ATOM     13  N   UNL     1       3.135  -4.018  -4.006  0.00  0.00    -0.276 N 
ATOM     14  C   UNL     1       3.193  -4.239  -2.678  0.00  0.00    +0.307 C 
ATOM     15  O   UNL     1       2.258  -3.926  -1.967  0.00  0.00    -0.252 OA
ATOM     16  N   UNL     1       4.289  -4.808  -2.138  0.00  0.00    -0.268 N 
ATOM     17  H   UNL     1       5.067  -4.983  -2.690  0.00  0.00    +0.156 HD
ATOM     18  H   UNL     1      -0.372  -2.867  -6.143  0.00  0.00    +0.160 HD
ENDROOT
BRANCH  16  19
ATOM     19  C   UNL     1       4.304  -5.148  -0.780  0.00  0.00    +0.049 A 
ATOM     20  C   UNL     1       3.515  -4.446   0.122  0.00  0.00    +0.024 A 
ATOM     21  C   UNL     1       3.531  -4.784   1.461  0.00  0.00    +0.002 A 
ATOM     22  C   UNL     1       4.333  -5.819   1.905  0.00  0.00    +0.001 A 
ATOM     23  C   UNL     1       5.121  -6.520   1.011  0.00  0.00    +0.017 A 
ATOM     24  C   UNL     1       5.105  -6.191  -0.332  0.00  0.00    +0.039 A 
ATOM     25 BR   UNL     1       6.176  -7.155  -1.556  0.00  0.00    -0.048 Br
ENDBRANCH  16  19
BRANCH   1  29
ATOM     26  C   UNL     1      -0.682  -2.134  -1.443  0.00  0.00    +0.120 A 
ATOM     27  C   UNL     1      -0.757  -3.401  -2.002  0.00  0.00    +0.046 A 
ATOM     28  C   UNL     1       0.113  -3.762  -3.013  0.00  0.00    +0.009 A 
ATOM     29  C   UNL     1       1.059  -2.861  -3.467  0.00  0.00    -0.024 A 
ATOM     30  C   UNL     1       1.136  -1.598  -2.911  0.00  0.00    +0.009 A 
ATOM     31  C   UNL     1       0.264  -1.230  -1.904  0.00  0.00    +0.046 A 
BRANCH  26  33
ATOM     32  C   UNL     1      -2.485  -2.758  -0.025  0.00  0.00    +0.277 C 
ATOM     33  O   UNL     1      -1.537  -1.776  -0.450  0.00  0.00    -0.495 OA
ENDBRANCH  26  33
ENDBRANCH   1  29
TORSDOF 3
