REMARK  Name = ZINC35447766
REMARK  9 active torsions:
REMARK  status: ('A' for Active; 'I' for Inactive)
REMARK    1  A    between atoms: C_1  and  C_2
REMARK    2  A    between atoms: C_5  and  C_39
REMARK    3  A    between atoms: N_8  and  S_10
REMARK    4  A    between atoms: S_10  and  C_13
REMARK    5  A    between atoms: C_17  and  C_19
REMARK    6  A    between atoms: N_23  and  C_24
REMARK    7  A    between atoms: N_30  and  C_31
REMARK    8  A    between atoms: C_31  and  C_32
REMARK    9  A    between atoms: C_32  and  C_33
REMARK                            x       y       z     vdW  Elec       q    Type
REMARK                         _______ _______ _______ _____ _____    ______ ____
ROOT
ATOM      1  C   UNL     1       0.313   5.249   3.204  0.00  0.00    +0.058 A 
ATOM      2  C   UNL     1      -0.650   4.546   3.872  0.00  0.00    +0.074 A 
ATOM      3  S   UNL     1      -2.014   5.701   3.802  0.00  0.00    -0.062 S 
ATOM      4  C   UNL     1      -1.171   6.992   2.898  0.00  0.00    +0.143 A 
ATOM      5  N   UNL     1      -1.647   8.226   2.483  0.00  0.00    -0.295 N 
ATOM      6  N   UNL     1       0.028   6.462   2.737  0.00  0.00    -0.322 N 
ATOM      7  H   UNL     1      -1.096   8.794   1.922  0.00  0.00    +0.154 HD
ENDROOT
BRANCH   1  12
ATOM      8  C   UNL     1       3.492   3.338   3.814  0.00  0.00    +0.106 A 
ATOM      9  C   UNL     1       4.184   3.584   2.642  0.00  0.00    +0.028 A 
ATOM     10  C   UNL     1       3.622   4.370   1.652  0.00  0.00    +0.003 A 
ATOM     11  C   UNL     1       2.365   4.913   1.829  0.00  0.00    +0.010 A 
ATOM     12  C   UNL     1       1.663   4.668   3.008  0.00  0.00    +0.001 A 
ATOM     13  C   UNL     1       2.233   3.871   4.000  0.00  0.00    +0.038 A 
BRANCH   8  14
ATOM     14  S   UNL     1       4.216   2.335   5.069  0.00  0.00    +0.061 S 
ATOM     15  O   UNL     1       3.590   2.700   6.292  0.00  0.00    -0.153 OA
ATOM     16  O   UNL     1       5.623   2.405   4.883  0.00  0.00    -0.153 OA
BRANCH  14  22
ATOM     17  C   UNL     1       1.232   0.750   3.276  0.00  0.00    +0.009 C 
ATOM     18  C   UNL     1       1.692  -0.375   4.205  0.00  0.00    +0.002 C 
ATOM     19  C   UNL     1       2.529  -1.382   3.412  0.00  0.00    +0.009 C 
ATOM     20  C   UNL     1       3.733  -0.671   2.791  0.00  0.00    +0.002 C 
ATOM     21  C   UNL     1       4.607  -0.088   3.905  0.00  0.00    +0.112 C 
ATOM     22  N   UNL     1       3.775   0.769   4.760  0.00  0.00    -0.176 NA
ATOM     23  C   UNL     1       2.543   0.211   5.336  0.00  0.00    +0.112 C 
ATOM     24  C   UNL     1       4.550  -1.671   1.970  0.00  0.00    +0.009 C 
ENDBRANCH  14  22
ENDBRANCH   8  14
ENDBRANCH   1  12
BRANCH   5  25
ATOM     25  C   UNL     1      -2.920   8.650   2.872  0.00  0.00    +0.033 A 
ATOM     26  C   UNL     1      -3.425   8.288   4.114  0.00  0.00    +0.023 A 
ATOM     27  C   UNL     1      -4.684   8.710   4.496  0.00  0.00    +0.002 A 
ATOM     28  C   UNL     1      -5.441   9.491   3.642  0.00  0.00    +0.000 A 
ATOM     29  C   UNL     1      -4.942   9.853   2.405  0.00  0.00    +0.002 A 
ATOM     30  C   UNL     1      -3.682   9.440   2.019  0.00  0.00    +0.023 A 
ENDBRANCH   5  25
BRANCH   6  31
ATOM     31  C   UNL     1       1.060   7.220   2.025  0.00  0.00    +0.129 C 
BRANCH  31  32
ATOM     32  C   UNL     1       0.821   7.117   0.518  0.00  0.00    +0.057 C 
BRANCH  32  33
ATOM     33  C   UNL     1       1.956   7.782  -0.218  0.00  0.00    -0.046 A 
ATOM     34  C   UNL     1       1.885   9.128  -0.526  0.00  0.00    +0.004 A 
ATOM     35  C   UNL     1       2.926   9.738  -1.201  0.00  0.00    +0.000 A 
ATOM     36  C   UNL     1       4.038   9.002  -1.566  0.00  0.00    +0.000 A 
ATOM     37  C   UNL     1       4.109   7.657  -1.257  0.00  0.00    +0.000 A 
ATOM     38  C   UNL     1       3.070   7.048  -0.579  0.00  0.00    +0.004 A 
ENDBRANCH  32  33
ENDBRANCH  31  32
ENDBRANCH   6  31
TORSDOF 7
