REMARK  Name = ZINC39452749
REMARK  6 active torsions:
REMARK  status: ('A' for Active; 'I' for Inactive)
REMARK    1  A    between atoms: C_1  and  C_2
REMARK    2  A    between atoms: C_2  and  O_3
REMARK    3  A    between atoms: O_3  and  N_4
REMARK    4  A    between atoms: C_18  and  O_19
REMARK    5  A    between atoms: C_21  and  C_26
REMARK    6  A    between atoms: C_31  and  O_32
REMARK                            x       y       z     vdW  Elec       q    Type
REMARK                         _______ _______ _______ _____ _____    ______ ____
ROOT
ATOM      1  N   UNL     1      -1.416  -1.751  -0.087  0.00  0.00    -0.138 N 
ATOM      2  C   UNL     1      -1.471  -2.468  -1.278  0.00  0.00    +0.149 A 
ATOM      3  C   UNL     1      -1.558  -3.845  -1.275  0.00  0.00    +0.085 A 
ATOM      4  C   UNL     1      -1.585  -4.576   0.004  0.00  0.00    +0.100 A 
ATOM      5  C   UNL     1      -1.527  -3.820   1.204  0.00  0.00    +0.070 A 
ATOM      6  C   UNL     1      -1.434  -2.354   1.114  0.00  0.00    +0.293 A 
ATOM      7  O   UNL     1      -1.378  -1.686   2.130  0.00  0.00    -0.264 OA
ATOM      8  C   UNL     1      -1.553  -4.458   2.437  0.00  0.00    +0.029 A 
ATOM      9  C   UNL     1      -1.637  -5.857   2.446  0.00  0.00    +0.043 A 
ATOM     10  C   UNL     1      -1.691  -6.573   1.169  0.00  0.00    +0.075 A 
ATOM     11  N   UNL     1      -1.663  -5.894   0.022  0.00  0.00    -0.244 NA
ATOM     12  C   UNL     1      -1.774  -7.977   1.187  0.00  0.00    +0.028 A 
ATOM     13  C   UNL     1      -1.803  -8.639   2.376  0.00  0.00    +0.006 A 
ATOM     14  C   UNL     1      -1.753  -7.967   3.592  0.00  0.00    +0.046 A 
ATOM     15  C   UNL     1      -1.670  -6.593   3.648  0.00  0.00    +0.126 A 
ATOM     16  N   UNL     1      -1.625  -4.535  -2.470  0.00  0.00    -0.333 N 
ATOM     17  C   UNL     1      -2.183  -3.845  -3.643  0.00  0.00    +0.112 C 
ATOM     18  C   UNL     1      -1.439  -2.516  -3.815  0.00  0.00    +0.108 C 
ATOM     19  C   UNL     1      -1.441  -1.769  -2.507  0.00  0.00    +0.187 C 
ATOM     20  O   UNL     1      -1.418  -0.554  -2.508  0.00  0.00    -0.290 OA
ATOM     21  H   UNL     1      -1.312  -5.451  -2.534  0.00  0.00    +0.147 HD
ENDROOT
BRANCH  17  22
ATOM     22  C   UNL     1      -3.651  -3.583  -3.428  0.00  0.00    +0.014 A 
ATOM     23  C   UNL     1      -4.185  -3.643  -2.155  0.00  0.00    +0.009 A 
ATOM     24  C   UNL     1      -5.532  -3.403  -1.957  0.00  0.00    +0.001 A 
ATOM     25  C   UNL     1      -6.348  -3.102  -3.032  0.00  0.00    +0.004 A 
ATOM     26  C   UNL     1      -5.819  -3.039  -4.306  0.00  0.00    +0.046 A 
ATOM     27  C   UNL     1      -4.466  -3.275  -4.507  0.00  0.00    +0.122 A 
BRANCH  27  28
ATOM     28  O   UNL     1      -3.942  -3.208  -5.759  0.00  0.00    -0.506 OA
ATOM     29  H   UNL     1      -3.961  -4.048  -6.238  0.00  0.00    +0.292 HD
ENDBRANCH  27  28
ENDBRANCH  17  22
BRANCH  15  30
ATOM     30  O   UNL     1      -1.622  -5.956   4.845  0.00  0.00    -0.506 OA
ATOM     31  H   UNL     1      -2.490  -5.719   5.199  0.00  0.00    +0.292 HD
ENDBRANCH  15  30
BRANCH   1  32
ATOM     32  O   UNL     1      -1.333  -0.339  -0.142  0.00  0.00    -0.408 OA
BRANCH  32  34
ATOM     33  C   UNL     1      -0.026   1.692  -0.242  0.00  0.00    +0.051 C 
ATOM     34  C   UNL     1       0.005   0.163  -0.184  0.00  0.00    +0.257 C 
ENDBRANCH  32  34
ENDBRANCH   1  32
TORSDOF 5
