REMARK  Name = ZINC04093369
REMARK  12 active torsions:
REMARK  status: ('A' for Active; 'I' for Inactive)
REMARK    1  A    between atoms: C_1  and  C_2
REMARK    2  A    between atoms: C_2  and  C_3
REMARK    3  A    between atoms: C_3  and  C_4
REMARK    4  A    between atoms: C_4  and  C_33
REMARK    5  A    between atoms: C_9  and  C_12
REMARK    6  A    between atoms: C_15  and  N_18
REMARK    7  A    between atoms: N_18  and  C_19
REMARK    8  A    between atoms: N_18  and  C_20
REMARK    9  A    between atoms: N_23  and  C_26
REMARK   10  A    between atoms: C_33  and  O_35
REMARK   11  A    between atoms: O_35  and  C_36
REMARK   12  A    between atoms: C_36  and  C_37
REMARK                            x       y       z     vdW  Elec       q    Type
REMARK                         _______ _______ _______ _____ _____    ______ ____
ROOT
ATOM      1  C   UNL     1       0.968  -1.969  -1.259  0.00  0.00    +0.044 C 
ATOM      2  C   UNL     1       1.646  -2.512  -2.534  0.00  0.00    +0.086 C 
ATOM      3  C   UNL     1       0.736  -3.678  -3.004  0.00  0.00    +0.077 C 
ATOM      4  C   UNL     1      -0.399  -3.740  -1.960  0.00  0.00    -0.027 C 
ATOM      5  N   UNL     1      -0.459  -2.361  -1.395  0.00  0.00    +0.395 N 
ATOM      6  C   UNL     1       0.189  -3.183  -4.325  0.00  0.00    +0.229 C 
ATOM      7  O   UNL     1      -0.576  -3.795  -5.039  0.00  0.00    -0.275 OA
ATOM      8  N   UNL     1       0.681  -1.966  -4.581  0.00  0.00    -0.210 N 
ATOM      9  C   UNL     1       1.524  -1.485  -3.638  0.00  0.00    +0.229 C 
ATOM     10  O   UNL     1       2.089  -0.413  -3.663  0.00  0.00    -0.275 OA
ATOM     11  H   UNL     1      -0.909  -2.373  -0.492  0.00  0.00    -0.083 HD
ATOM     12  H   UNL     1      -0.939  -1.733  -2.021  0.00  0.00    -0.083 HD
ENDROOT
BRANCH   8  13
ATOM     13  C   UNL     1       0.355  -1.244  -5.739  0.00  0.00    +0.044 A 
ATOM     14  C   UNL     1      -0.187   0.029  -5.635  0.00  0.00    +0.027 A 
ATOM     15  C   UNL     1      -0.507   0.738  -6.777  0.00  0.00    +0.040 A 
ATOM     16  C   UNL     1      -0.287   0.179  -8.024  0.00  0.00    +0.124 A 
ATOM     17  C   UNL     1       0.254  -1.092  -8.130  0.00  0.00    +0.040 A 
ATOM     18  C   UNL     1       0.581  -1.801  -6.991  0.00  0.00    +0.027 A 
ATOM     19  F   UNL     1      -0.601   0.873  -9.140  0.00  0.00    -0.205 F 
ENDBRANCH   8  13
BRANCH   4  20
ATOM     20  C   UNL     1      -1.708  -4.078  -2.626  0.00  0.00    -0.060 A 
ATOM     21  C   UNL     1      -2.421  -3.093  -3.284  0.00  0.00    +0.004 A 
ATOM     22  C   UNL     1      -3.621  -3.399  -3.895  0.00  0.00    +0.023 A 
ATOM     23  C   UNL     1      -4.111  -4.698  -3.849  0.00  0.00    +0.029 A 
ATOM     24  C   UNL     1      -3.391  -5.685  -3.188  0.00  0.00    +0.023 A 
ATOM     25  C   UNL     1      -2.189  -5.373  -2.583  0.00  0.00    +0.004 A 
BRANCH  23  26
ATOM     26  N   UNL     1      -5.324  -5.011  -4.466  0.00  0.00    -0.336 N 
ATOM     27  C   UNL     1      -6.147  -3.947  -5.046  0.00  0.00    +0.129 C 
ATOM     28  C   UNL     1      -5.774  -6.404  -4.532  0.00  0.00    +0.129 C 
ENDBRANCH  23  26
ENDBRANCH   4  20
BRANCH   1  29
ATOM     29  C   UNL     1       1.571  -2.601  -0.031  0.00  0.00    +0.297 C 
ATOM     30  O   UNL     1       2.709  -3.006  -0.057  0.00  0.00    -0.252 OA
BRANCH  29  31
ATOM     31  O   UNL     1       0.844  -2.713   1.092  0.00  0.00    -0.466 OA
BRANCH  31  32
ATOM     32  C   UNL     1       1.479  -3.322   2.218  0.00  0.00    +0.228 C 
ATOM     33  C   UNL     1       0.503  -3.362   3.395  0.00  0.00    +0.048 C 
ENDBRANCH  31  32
ENDBRANCH  29  31
ENDBRANCH   1  29
BRANCH   1  34
ATOM     34  C   UNL     1       1.098  -0.446  -1.192  0.00  0.00    -0.001 C 
BRANCH  34  36
ATOM     35  C   UNL     1       0.480   1.600   0.102  0.00  0.00    +0.004 C 
ATOM     36  C   UNL     1       0.350   0.077   0.035  0.00  0.00    -0.004 C 
ENDBRANCH  34  36
ENDBRANCH   1  34
TORSDOF 8
