REMARK  Name = ZINC36685036
REMARK  9 active torsions:
REMARK  status: ('A' for Active; 'I' for Inactive)
REMARK    1  A    between atoms: C_1  and  C_2
REMARK    2  A    between atoms: N_10  and  N_14
REMARK    3  A    between atoms: C_15  and  C_17
REMARK    4  A    between atoms: C_17  and  C_19
REMARK    5  A    between atoms: C_17  and  N_20
REMARK    6  A    between atoms: C_21  and  C_23
REMARK    7  A    between atoms: C_24  and  C_25
REMARK    8  A    between atoms: C_28  and  O_31
REMARK    9  A    between atoms: O_31  and  C_32
REMARK                            x       y       z     vdW  Elec       q    Type
REMARK                         _______ _______ _______ _____ _____    ______ ____
ROOT
ATOM      1  N   UNL     1       3.303  -5.678  -0.062  0.00  0.00    -0.222 N 
ATOM      2  C   UNL     1       3.812  -6.196  -1.197  0.00  0.00    +0.250 C 
ATOM      3  O   UNL     1       3.841  -5.528  -2.209  0.00  0.00    -0.272 OA
ATOM      4  H   UNL     1       3.280  -6.212   0.747  0.00  0.00    +0.174 HD
ENDROOT
BRANCH   1  14
ATOM      5  C   UNL     1      -0.019   1.526   0.010  0.00  0.00    +0.007 C 
ATOM      6  C   UNL     1       0.002  -0.004   0.002  0.00  0.00    -0.014 C 
ATOM      7  C   UNL     1       0.716  -0.497  -1.258  0.00  0.00    +0.006 C 
ATOM      8  C   UNL     1       0.727  -2.028  -1.271  0.00  0.00    +0.035 C 
ATOM      9  C   UNL     1       1.442  -2.543  -0.027  0.00  0.00    +0.114 C 
ATOM     10  C   UNL     1       0.753  -2.041   1.238  0.00  0.00    +0.035 C 
ATOM     11  C   UNL     1       0.742  -0.510   1.242  0.00  0.00    +0.006 C 
ATOM     12  C   UNL     1       1.495  -4.053  -0.035  0.00  0.00    +0.263 C 
ATOM     13  O   UNL     1       0.556  -4.821  -0.030  0.00  0.00    -0.271 OA
ATOM     14  N   UNL     1       2.807  -4.367  -0.051  0.00  0.00    -0.137 N 
ATOM     15  C   UNL     1       3.576  -3.272  -0.053  0.00  0.00    +0.326 C 
ATOM     16  O   UNL     1       4.791  -3.300  -0.065  0.00  0.00    -0.251 OA
ATOM     17  N   UNL     1       2.853  -2.136  -0.039  0.00  0.00    -0.284 N 
ATOM     18  H   UNL     1       3.196  -1.229  -0.038  0.00  0.00    +0.151 HD
ENDBRANCH   1  14
BRANCH   2  19
ATOM     19  C   UNL     1       4.345  -7.605  -1.210  0.00  0.00    +0.158 C 
ATOM     20  C   UNL     1       5.490  -7.726  -0.202  0.00  0.00    +0.038 C 
BRANCH  19  21
ATOM     21  N   UNL     1       4.838  -7.929  -2.550  0.00  0.00    -0.301 N 
ATOM     22  C   UNL     1       4.889  -9.213  -2.958  0.00  0.00    +0.237 C 
ATOM     23  O   UNL     1       4.525 -10.103  -2.212  0.00  0.00    -0.271 OA
ATOM     24  H   UNL     1       5.128  -7.220  -3.145  0.00  0.00    +0.150 HD
BRANCH  22  25
ATOM     25  C   UNL     1       5.381  -9.536  -4.297  0.00  0.00    +0.068 C 
ATOM     26  C   UNL     1       5.432 -10.822  -4.705  0.00  0.00    +0.013 C 
BRANCH  26  27
ATOM     27  C   UNL     1       5.927 -11.147  -6.050  0.00  0.00    -0.025 A 
ATOM     28  C   UNL     1       6.351 -10.126  -6.908  0.00  0.00    +0.011 A 
ATOM     29  C   UNL     1       6.814 -10.435  -8.167  0.00  0.00    +0.046 A 
ATOM     30  C   UNL     1       6.860 -11.760  -8.587  0.00  0.00    +0.120 A 
ATOM     31  C   UNL     1       6.439 -12.778  -7.739  0.00  0.00    +0.046 A 
ATOM     32  C   UNL     1       5.981 -12.479  -6.476  0.00  0.00    +0.011 A 
BRANCH  30  33
ATOM     33  O   UNL     1       7.316 -12.060  -9.829  0.00  0.00    -0.495 OA
ATOM     34  C   UNL     1       7.337 -13.441 -10.197  0.00  0.00    +0.277 C 
ENDBRANCH  30  33
ENDBRANCH  26  27
ENDBRANCH  22  25
ENDBRANCH  19  21
ENDBRANCH   2  19
TORSDOF 6
