REMARK  Name = ZINC09614211
REMARK  4 active torsions:
REMARK  status: ('A' for Active; 'I' for Inactive)
REMARK    1  A    between atoms: C_1  and  C_2
REMARK    2  A    between atoms: N_11  and  C_15
REMARK    3  A    between atoms: C_15  and  C_16
REMARK    4  A    between atoms: C_27  and  C_29
REMARK                            x       y       z     vdW  Elec       q    Type
REMARK                         _______ _______ _______ _____ _____    ______ ____
ROOT
ATOM      1  C   UNL     1       3.454  -0.607  -1.009  0.00  0.00    +0.238 C 
ATOM      2  O   UNL     1       4.398   0.003  -1.466  0.00  0.00    -0.273 OA
ATOM      3  N   UNL     1       2.268   0.012  -0.846  0.00  0.00    -0.256 N 
ATOM      4  C   UNL     1       2.127   1.390  -1.083  0.00  0.00    +0.079 A 
ATOM      5  C   UNL     1       3.251   2.190  -1.214  0.00  0.00    +0.027 A 
ATOM      6  C   UNL     1       3.108   3.544  -1.454  0.00  0.00    +0.002 A 
ATOM      7  C   UNL     1       1.846   4.099  -1.562  0.00  0.00    +0.004 A 
ATOM      8  C   UNL     1       0.722   3.306  -1.430  0.00  0.00    +0.047 A 
ATOM      9  C   UNL     1       0.856   1.946  -1.189  0.00  0.00    +0.142 A 
ATOM     10  O   UNL     1      -0.255   1.174  -1.058  0.00  0.00    -0.488 OA
ATOM     11  C   UNL     1      -0.113  -0.235  -1.253  0.00  0.00    +0.256 C 
ATOM     12  C   UNL     1       1.073  -0.734  -0.414  0.00  0.00    +0.149 C 
ENDROOT
BRANCH  12  13
ATOM     13  C   UNL     1       0.811  -0.478   1.047  0.00  0.00    -0.023 A 
ATOM     14  C   UNL     1       0.987   0.790   1.569  0.00  0.00    +0.005 A 
ATOM     15  C   UNL     1       0.742   1.026   2.909  0.00  0.00    +0.000 A 
ATOM     16  C   UNL     1       0.331  -0.008   3.729  0.00  0.00    +0.000 A 
ATOM     17  C   UNL     1       0.160  -1.277   3.208  0.00  0.00    +0.000 A 
ATOM     18  C   UNL     1       0.400  -1.512   1.867  0.00  0.00    +0.005 A 
ENDBRANCH  12  13
BRANCH   1  19
ATOM     19  C   UNL     1       3.608  -2.055  -0.624  0.00  0.00    +0.214 C 
BRANCH  19  29
ATOM     20  C   UNL     1       6.604  -5.171   0.372  0.00  0.00    +0.010 C 
ATOM     21  C   UNL     1       7.706  -4.109   0.353  0.00  0.00    +0.018 C 
ATOM     22  C   UNL     1       8.055  -3.712   1.790  0.00  0.00    +0.006 C 
ATOM     23  C   UNL     1       9.143  -2.635   1.769  0.00  0.00    +0.000 C 
ATOM     24  C   UNL     1       8.631  -1.404   1.018  0.00  0.00    +0.003 C 
ATOM     25  C   UNL     1       8.283  -1.793  -0.421  0.00  0.00    +0.035 C 
ATOM     26  C   UNL     1       7.217  -2.883  -0.410  0.00  0.00    +0.115 C 
ATOM     27  C   UNL     1       5.936  -2.361   0.198  0.00  0.00    +0.247 C 
ATOM     28  O   UNL     1       5.775  -1.943   1.325  0.00  0.00    -0.273 OA
ATOM     29  N   UNL     1       5.009  -2.455  -0.778  0.00  0.00    -0.215 N 
ATOM     30  C   UNL     1       5.527  -2.966  -1.902  0.00  0.00    +0.310 C 
ATOM     31  O   UNL     1       4.886  -3.151  -2.917  0.00  0.00    -0.252 OA
ATOM     32  N   UNL     1       6.838  -3.247  -1.781  0.00  0.00    -0.285 N 
ATOM     33  H   UNL     1       7.418  -3.620  -2.464  0.00  0.00    +0.151 HD
ENDBRANCH  19  29
ENDBRANCH   1  19
TORSDOF 3
