REMARK  Name = ZINC12217895
REMARK  9 active torsions:
REMARK  status: ('A' for Active; 'I' for Inactive)
REMARK    1  A    between atoms: C_4  and  C_7
REMARK    2  A    between atoms: C_7  and  C_8
REMARK    3  A    between atoms: C_8  and  C_10
REMARK    4  A    between atoms: C_8  and  N_13
REMARK    5  A    between atoms: C_14  and  C_16
REMARK    6  A    between atoms: C_16  and  C_17
REMARK    7  A    between atoms: C_17  and  C_18
REMARK    8  A    between atoms: C_18  and  C_24
REMARK    9  A    between atoms: C_24  and  C_25
REMARK                            x       y       z     vdW  Elec       q    Type
REMARK                         _______ _______ _______ _____ _____    ______ ____
ROOT
ATOM      1  N   UNL     1       3.993  -2.026   1.255  0.00  0.00    -0.304 N 
ATOM      2  C   UNL     1       3.599  -0.744   1.392  0.00  0.00    +0.214 C 
ATOM      3  O   UNL     1       4.091  -0.047   2.255  0.00  0.00    -0.276 OA
ATOM      4  H   UNL     1       3.600  -2.583   0.565  0.00  0.00    +0.149 HD
ENDROOT
BRANCH   1   5
ATOM      5  C   UNL     1       5.015  -2.577   2.149  0.00  0.00    +0.163 C 
BRANCH   5   6
ATOM      6  C   UNL     1       6.383  -2.251   1.609  0.00  0.00    +0.231 C 
ATOM      7  O   UNL     1       6.495  -1.619   0.580  0.00  0.00    -0.274 OA
ATOM      8  N   UNL     1       7.484  -2.660   2.271  0.00  0.00    -0.328 N 
ATOM      9  H   UNL     1       7.395  -3.165   3.094  0.00  0.00    +0.145 HD
ATOM     10  H   UNL     1       8.365  -2.450   1.923  0.00  0.00    +0.145 HD
ENDBRANCH   5   6
BRANCH   5  11
ATOM     11  C   UNL     1       4.850  -4.096   2.236  0.00  0.00    +0.067 C 
BRANCH  11  15
ATOM     12  C   UNL     1       1.113  -5.020   4.087  0.00  0.00    +0.000 A 
ATOM     13  C   UNL     1       1.187  -4.874   2.714  0.00  0.00    +0.000 A 
ATOM     14  C   UNL     1       2.396  -4.575   2.115  0.00  0.00    +0.004 A 
ATOM     15  C   UNL     1       3.532  -4.422   2.889  0.00  0.00    -0.045 A 
ATOM     16  C   UNL     1       3.458  -4.573   4.261  0.00  0.00    +0.004 A 
ATOM     17  C   UNL     1       2.248  -4.867   4.860  0.00  0.00    +0.000 A 
ENDBRANCH  11  15
ENDBRANCH   5  11
ENDBRANCH   1   5
BRANCH   2  18
ATOM     18  C   UNL     1       2.549  -0.177   0.473  0.00  0.00    +0.098 C 
BRANCH  18  19
ATOM     19  C   UNL     1       2.287   1.286   0.839  0.00  0.00    +0.035 C 
BRANCH  19  20
ATOM     20  C   UNL     1       1.319   1.900  -0.175  0.00  0.00    +0.040 C 
ATOM     21  C   UNL     1      -0.025   1.138  -0.160  0.00  0.00    +0.035 C 
ATOM     22  C   UNL     1      -0.431   1.186  -1.651  0.00  0.00    +0.098 C 
ATOM     23  C   UNL     1       0.878   1.354  -2.389  0.00  0.00    +0.214 C 
ATOM     24  O   UNL     1       1.036   1.163  -3.576  0.00  0.00    -0.276 OA
ATOM     25  N   UNL     1       1.843   1.743  -1.537  0.00  0.00    -0.309 N 
ATOM     26  H   UNL     1       2.765   1.904  -1.790  0.00  0.00    +0.149 HD
BRANCH  20  27
ATOM     27  C   UNL     1       1.093   3.380   0.139  0.00  0.00    +0.068 C 
BRANCH  27  28
ATOM     28  C   UNL     1       2.394   4.128  -0.006  0.00  0.00    -0.008 A 
ATOM     29  C   UNL     1       2.959   4.648  -1.123  0.00  0.00    +0.011 A 
ATOM     30  C   UNL     1       4.173   5.302  -1.018  0.00  0.00    +0.008 A 
ATOM     31  C   UNL     1       4.761   5.404   0.199  0.00  0.00    +0.045 A 
ATOM     32  S   UNL     1       3.585   4.566   1.249  0.00  0.00    -0.102 S 
ENDBRANCH  27  28
ENDBRANCH  20  27
ENDBRANCH  19  20
ENDBRANCH  18  19
ENDBRANCH   2  18
TORSDOF 9
