REMARK  Name = ZINC39532118
REMARK  8 active torsions:
REMARK  status: ('A' for Active; 'I' for Inactive)
REMARK    1  A    between atoms: C_1  and  C_2
REMARK    2  A    between atoms: C_2  and  C_3
REMARK    3  A    between atoms: C_6  and  C_9
REMARK    4  A    between atoms: C_9  and  C_11
REMARK    5  A    between atoms: C_9  and  N_14
REMARK    6  A    between atoms: C_11  and  N_12
REMARK    7  A    between atoms: C_18  and  C_21
REMARK    8  A    between atoms: C_26  and  O_27
REMARK                            x       y       z     vdW  Elec       q    Type
REMARK                         _______ _______ _______ _____ _____    ______ ____
ROOT
ATOM      1  N   UNL     1       3.713  -2.810  -4.415  0.00  0.00    -0.297 NA
ATOM      2  C   UNL     1       4.654  -2.213  -3.457  0.00  0.00    +0.066 C 
ATOM      3  C   UNL     1       5.683  -3.264  -3.035  0.00  0.00    -0.066 C 
ATOM      4  N   UNL     1       6.404  -3.747  -4.220  0.00  0.00    +0.385 N 
ATOM      5  C   UNL     1       5.455  -4.362  -5.156  0.00  0.00    -0.023 C 
ATOM      6  C   UNL     1       4.424  -3.320  -5.596  0.00  0.00    +0.074 C 
ATOM      7  H   UNL     1       6.867  -2.971  -4.671  0.00  0.00    -0.085 HD
ATOM      8  H   UNL     1       7.091  -4.431  -3.940  0.00  0.00    -0.085 HD
ENDROOT
BRANCH   5   9
ATOM      9  C   UNL     1       6.198  -4.873  -6.363  0.00  0.00    -0.019 A 
ATOM     10  C   UNL     1       7.457  -4.385  -6.657  0.00  0.00    +0.005 A 
ATOM     11  C   UNL     1       8.140  -4.853  -7.764  0.00  0.00    +0.000 A 
ATOM     12  C   UNL     1       7.565  -5.810  -8.581  0.00  0.00    +0.004 A 
ATOM     13  C   UNL     1       6.307  -6.301  -8.291  0.00  0.00    +0.045 A 
ATOM     14  C   UNL     1       5.622  -5.837  -7.177  0.00  0.00    +0.118 A 
BRANCH  14  15
ATOM     15  O   UNL     1       4.386  -6.322  -6.887  0.00  0.00    -0.507 OA
ATOM     16  H   UNL     1       3.663  -5.828  -7.296  0.00  0.00    +0.292 HD
ENDBRANCH  14  15
ENDBRANCH   5   9
BRANCH   1  17
ATOM     17  C   UNL     1       2.674  -1.846  -4.801  0.00  0.00    +0.101 C 
BRANCH  17  21
ATOM     18  C   UNL     1      -0.476  -1.918  -1.916  0.00  0.00    -0.048 A 
ATOM     19  C   UNL     1      -0.705  -1.399  -3.177  0.00  0.00    +0.004 A 
ATOM     20  C   UNL     1       0.314  -1.375  -4.111  0.00  0.00    +0.005 A 
ATOM     21  C   UNL     1       1.563  -1.871  -3.783  0.00  0.00    -0.029 A 
ATOM     22  C   UNL     1       1.792  -2.389  -2.522  0.00  0.00    +0.005 A 
ATOM     23  C   UNL     1       0.774  -2.408  -1.587  0.00  0.00    +0.004 A 
BRANCH  18  25
ATOM     24  C   UNL     1      -1.571  -0.642  -0.093  0.00  0.00    +0.009 C 
ATOM     25  C   UNL     1      -1.587  -1.943  -0.899  0.00  0.00    +0.032 C 
ENDBRANCH  18  25
ENDBRANCH  17  21
BRANCH  17  26
ATOM     26  C   UNL     1       3.278  -0.442  -4.863  0.00  0.00    +0.117 C 
BRANCH  26  27
ATOM     27  N   UNL     1       4.357  -0.417  -5.859  0.00  0.00    -0.254 NA
ATOM     28 BR   UNL     1       4.968   1.308  -6.132  0.00  0.00    +0.010 Br
ATOM     29  H   UNL     1       5.112  -1.029  -5.590  0.00  0.00    +0.135 HD
ENDBRANCH  26  27
ENDBRANCH  17  26
ENDBRANCH   1  17
TORSDOF 7
