REMARK  Name = ZINC03624830
REMARK  12 active torsions:
REMARK  status: ('A' for Active; 'I' for Inactive)
REMARK    1  A    between atoms: C_1  and  C_2
REMARK    2  A    between atoms: C_2  and  C_3
REMARK    3  A    between atoms: C_3  and  C_4
REMARK    4  A    between atoms: C_4  and  N_5
REMARK    5  A    between atoms: C_11  and  C_25
REMARK    6  A    between atoms: C_13  and  O_24
REMARK    7  A    between atoms: C_15  and  O_22
REMARK    8  A    between atoms: C_15  and  O_23
REMARK    9  A    between atoms: C_28  and  O_33
REMARK   10  A    between atoms: C_29  and  O_31
REMARK   11  A    between atoms: O_31  and  C_32
REMARK   12  A    between atoms: O_33  and  C_34
REMARK                            x       y       z     vdW  Elec       q    Type
REMARK                         _______ _______ _______ _____ _____    ______ ____
ROOT
ATOM      1  N   UNL     1      -0.136   1.022  -2.432  0.00  0.00    -0.274 N 
ATOM      2  C   UNL     1       0.899   1.545  -3.136  0.00  0.00    +0.288 C 
ATOM      3  O   UNL     1       1.315   2.681  -3.030  0.00  0.00    -0.266 OA
ATOM      4  C   UNL     1       1.448   0.507  -4.061  0.00  0.00    +0.249 C 
ATOM      5  O   UNL     1       2.407   0.640  -4.800  0.00  0.00    -0.282 OA
ATOM      6  C   UNL     1       0.665  -0.641  -3.929  0.00  0.00    +0.082 C 
ATOM      7  C   UNL     1       0.537  -2.006  -4.029  0.00  0.00    +0.141 C 
ATOM      8  O   UNL     1      -0.465  -2.478  -3.251  0.00  0.00    -0.453 OA
ATOM      9  C   UNL     1      -0.836  -1.458  -2.282  0.00  0.00    +0.269 C 
ATOM     10  C   UNL     1      -0.515  -0.194  -3.091  0.00  0.00    +0.198 C 
ATOM     11  C   UNL     1      -1.775  -0.020  -3.959  0.00  0.00    +0.226 C 
ATOM     12  C   UNL     1      -2.894  -0.622  -3.110  0.00  0.00    +0.023 A 
ATOM     13  C   UNL     1      -2.348  -1.456  -2.150  0.00  0.00    +0.034 A 
ATOM     14  C   UNL     1      -3.174  -2.127  -1.267  0.00  0.00    +0.010 A 
ATOM     15  C   UNL     1      -4.545  -1.968  -1.341  0.00  0.00    +0.000 A 
ATOM     16  C   UNL     1      -5.091  -1.138  -2.302  0.00  0.00    +0.000 A 
ATOM     17  C   UNL     1      -4.267  -0.467  -3.184  0.00  0.00    +0.009 A 
ENDROOT
BRANCH   7  18
ATOM     18  C   UNL     1       1.386  -2.853  -4.880  0.00  0.00    +0.021 A 
ATOM     19  C   UNL     1       2.397  -2.276  -5.658  0.00  0.00    +0.015 A 
ATOM     20  C   UNL     1       3.194  -3.072  -6.450  0.00  0.00    +0.050 A 
ATOM     21  C   UNL     1       2.991  -4.446  -6.488  0.00  0.00    +0.162 A 
ATOM     22  C   UNL     1       1.983  -5.027  -5.720  0.00  0.00    +0.162 A 
ATOM     23  C   UNL     1       1.183  -4.238  -4.919  0.00  0.00    +0.061 A 
BRANCH  22  24
ATOM     24  O   UNL     1       1.788  -6.373  -5.760  0.00  0.00    -0.491 OA
ATOM     25  C   UNL     1       0.738  -6.901  -4.947  0.00  0.00    +0.277 C 
ENDBRANCH  22  24
BRANCH  21  26
ATOM     26  O   UNL     1       3.777  -5.224  -7.275  0.00  0.00    -0.491 OA
ATOM     27  C   UNL     1       4.791  -4.564  -8.036  0.00  0.00    +0.277 C 
ENDBRANCH  21  26
ENDBRANCH   7  18
BRANCH  11  28
ATOM     28  O   UNL     1      -2.039   1.366  -4.184  0.00  0.00    -0.359 OA
ATOM     29  H   UNL     1      -2.822   1.535  -4.725  0.00  0.00    +0.213 HD
ENDBRANCH  11  28
BRANCH  11  30
ATOM     30  O   UNL     1      -1.622  -0.708  -5.202  0.00  0.00    -0.359 OA
ATOM     31  H   UNL     1      -2.386  -0.633  -5.790  0.00  0.00    +0.213 HD
ENDBRANCH  11  30
BRANCH   9  32
ATOM     32  O   UNL     1      -0.143  -1.553  -1.036  0.00  0.00    -0.350 OA
ATOM     33  H   UNL     1      -0.349  -2.352  -0.532  0.00  0.00    +0.214 HD
ENDBRANCH   9  32
BRANCH   1  34
ATOM     34  C   UNL     1      -0.753   1.593  -1.232  0.00  0.00    +0.109 C 
BRANCH  34  35
ATOM     35  C   UNL     1      -1.800   2.630  -1.641  0.00  0.00    +0.019 C 
BRANCH  35  37
ATOM     36  C   UNL     1      -3.396   4.359  -0.800  0.00  0.00    +0.004 C 
ATOM     37  C   UNL     1      -2.348   3.322  -0.391  0.00  0.00    -0.002 C 
ENDBRANCH  35  37
ENDBRANCH  34  35
ENDBRANCH   1  34
TORSDOF 9
