REMARK  Name = ZINC24850974
REMARK  11 active torsions:
REMARK  status: ('A' for Active; 'I' for Inactive)
REMARK    1  A    between atoms: C_1  and  C_2
REMARK    2  A    between atoms: C_2  and  C_3
REMARK    3  A    between atoms: C_3  and  C_4
REMARK    4  A    between atoms: C_4  and  N_5
REMARK    5  A    between atoms: C_11  and  S_12
REMARK    6  A    between atoms: S_12  and  C_13
REMARK    7  A    between atoms: C_13  and  C_14
REMARK    8  A    between atoms: C_16  and  O_17
REMARK    9  A    between atoms: C_26  and  O_28
REMARK   10  A    between atoms: O_28  and  C_29
REMARK   11  A    between atoms: C_29  and  C_30
REMARK                            x       y       z     vdW  Elec       q    Type
REMARK                         _______ _______ _______ _____ _____    ______ ____
ROOT
ATOM      1  C   UNL     1      -4.319  -3.015  -5.289  0.00  0.00    -0.020 A 
ATOM      2  C   UNL     1      -4.132  -1.775  -5.868  0.00  0.00    +0.092 A 
ATOM      3  C   UNL     1      -3.668  -1.683  -7.171  0.00  0.00    +0.285 A 
ATOM      4  O   UNL     1      -3.392  -2.776  -7.891  0.00  0.00    -0.425 OA
ATOM      5  C   UNL     1      -3.557  -4.011  -7.375  0.00  0.00    +0.141 A 
ATOM      6  C   UNL     1      -4.023  -4.165  -6.049  0.00  0.00    +0.022 A 
ATOM      7  C   UNL     1      -4.191  -5.451  -5.506  0.00  0.00    +0.013 A 
ATOM      8  C   UNL     1      -3.901  -6.547  -6.254  0.00  0.00    +0.024 A 
ATOM      9  C   UNL     1      -3.432  -6.404  -7.572  0.00  0.00    +0.040 A 
ATOM     10  C   UNL     1      -3.269  -5.133  -8.130  0.00  0.00    +0.070 A 
ATOM     11  N   UNL     1      -3.145  -7.508  -8.311  0.00  0.00    -0.251 N 
ATOM     12  C   UNL     1      -2.419  -7.397  -9.415  0.00  0.00    +0.405 C 
ATOM     13  O   UNL     1      -1.905  -6.329  -9.702  0.00  0.00    -0.226 OA
ATOM     14  H   UNL     1      -3.470  -8.377  -8.031  0.00  0.00    +0.158 HD
ENDROOT
BRANCH   3  15
ATOM     15  O   UNL     1      -3.490  -0.467  -7.723  0.00  0.00    -0.480 OA
ATOM     16  H   UNL     1      -3.164  -0.493  -8.633  0.00  0.00    +0.295 HD
ENDBRANCH   3  15
BRANCH   1  17
ATOM     17  C   UNL     1      -4.823  -3.136  -3.874  0.00  0.00    +0.113 C 
BRANCH  17  18
ATOM     18  S   UNL     1      -3.490  -2.711  -2.719  0.00  0.00    -0.081 S 
BRANCH  18  25
ATOM     19  N   UNL     1      -3.599  -2.684   0.077  0.00  0.00    -0.271 N 
ATOM     20  C   UNL     1      -4.485  -2.923   1.064  0.00  0.00    +0.345 A 
ATOM     21  O   UNL     1      -4.273  -2.827   2.260  0.00  0.00    -0.245 OA
ATOM     22  N   UNL     1      -5.649  -3.287   0.488  0.00  0.00    -0.226 N 
ATOM     23  H   UNL     1      -6.470  -3.520   0.949  0.00  0.00    +0.194 HD
ATOM     24  N   UNL     1      -5.454  -3.266  -0.900  0.00  0.00    -0.145 NA
ATOM     25  C   UNL     1      -4.226  -2.899  -1.129  0.00  0.00    +0.192 A 
BRANCH  19  26
ATOM     26  C   UNL     1      -2.207  -2.263   0.256  0.00  0.00    +0.129 C 
BRANCH  26  27
ATOM     27  C   UNL     1      -2.138  -0.735   0.289  0.00  0.00    +0.021 C 
BRANCH  27  29
ATOM     28  C   UNL     1      -0.615   1.233   0.510  0.00  0.00    +0.004 C 
ATOM     29  C   UNL     1      -0.684  -0.295   0.477  0.00  0.00    -0.002 C 
ENDBRANCH  27  29
ENDBRANCH  26  27
ENDBRANCH  19  26
ENDBRANCH  18  25
ENDBRANCH  17  18
ENDBRANCH   1  17
BRANCH  12  30
ATOM     30  O   UNL     1      -2.250  -8.467 -10.224  0.00  0.00    -0.450 OA
BRANCH  30  31
ATOM     31  C   UNL     1      -1.456  -8.275 -11.397  0.00  0.00    +0.230 C 
ATOM     32  C   UNL     1      -1.379  -9.587 -12.180  0.00  0.00    +0.048 C 
ENDBRANCH  30  31
ENDBRANCH  12  30
TORSDOF 9
