REMARK  Name = ZINC39510654
REMARK  4 active torsions:
REMARK  status: ('A' for Active; 'I' for Inactive)
REMARK    1  A    between atoms: C_4  and  O_27
REMARK    2  A    between atoms: C_5  and  C_7
REMARK    3  A    between atoms: C_13  and  C_20
REMARK    4  A    between atoms: C_25  and  O_26
REMARK                            x       y       z     vdW  Elec       q    Type
REMARK                         _______ _______ _______ _____ _____    ______ ____
ROOT
ATOM      1  C   UNL     1       1.180  -1.950  -0.390  0.00  0.00    +0.024 C 
ATOM      2  C   UNL     1       0.570  -2.509   0.920  0.00  0.00    +0.010 C 
ATOM      3  C   UNL     1       0.227  -3.972   0.541  0.00  0.00    +0.024 C 
ATOM      4  C   UNL     1      -0.270  -3.877  -0.914  0.00  0.00    +0.040 C 
ATOM      5  C   UNL     1       0.335  -2.594  -1.510  0.00  0.00    +0.032 C 
ATOM      6  C   UNL     1      -1.795  -3.794  -0.933  0.00  0.00    +0.044 C 
ATOM      7  C   UNL     1      -2.378  -5.079  -0.338  0.00  0.00    +0.011 C 
ATOM      8  C   UNL     1      -1.857  -6.280  -1.131  0.00  0.00    +0.017 C 
ATOM      9  C   UNL     1      -0.328  -6.291  -1.090  0.00  0.00    +0.098 C 
ATOM     10  N   UNL     1       0.188  -5.044  -1.671  0.00  0.00    -0.235 NA
ATOM     11 BR   UNL     1       2.034  -5.079  -1.785  0.00  0.00    +0.013 Br
ENDROOT
BRANCH   1  16
ATOM     12  C   UNL     1      -0.305   1.521  -0.356  0.00  0.00    +0.001 A 
ATOM     13  C   UNL     1       0.821   2.309  -0.508  0.00  0.00    +0.004 A 
ATOM     14  C   UNL     1       2.066   1.721  -0.623  0.00  0.00    +0.046 A 
ATOM     15  C   UNL     1       2.185   0.339  -0.585  0.00  0.00    +0.120 A 
ATOM     16  C   UNL     1       1.054  -0.449  -0.431  0.00  0.00    -0.003 A 
ATOM     17  C   UNL     1      -0.189   0.144  -0.317  0.00  0.00    +0.007 A 
BRANCH  15  18
ATOM     18  O   UNL     1       3.409  -0.242  -0.699  0.00  0.00    -0.506 OA
ATOM     19  H   UNL     1       3.860  -0.377   0.146  0.00  0.00    +0.292 HD
ENDBRANCH  15  18
ENDBRANCH   1  16
BRANCH   6  20
ATOM     20  C   UNL     1      -2.244  -2.610  -0.115  0.00  0.00    -0.001 A 
ATOM     21  C   UNL     1      -2.152  -2.647   1.263  0.00  0.00    +0.007 A 
ATOM     22  C   UNL     1      -2.564  -1.562   2.014  0.00  0.00    +0.001 A 
ATOM     23  C   UNL     1      -3.070  -0.438   1.389  0.00  0.00    +0.004 A 
ATOM     24  C   UNL     1      -3.164  -0.396   0.011  0.00  0.00    +0.046 A 
ATOM     25  C   UNL     1      -2.746  -1.481  -0.745  0.00  0.00    +0.120 A 
BRANCH  25  26
ATOM     26  O   UNL     1      -2.832  -1.440  -2.100  0.00  0.00    -0.506 OA
ATOM     27  H   UNL     1      -3.672  -1.767  -2.451  0.00  0.00    +0.292 HD
ENDBRANCH  25  26
ENDBRANCH   6  20
TORSDOF 4
