REMARK  Name = ZINC22854602
REMARK  8 active torsions:
REMARK  status: ('A' for Active; 'I' for Inactive)
REMARK    1  A    between atoms: C_1  and  C_2
REMARK    2  A    between atoms: C_2  and  C_3
REMARK    3  A    between atoms: C_9  and  C_11
REMARK    4  A    between atoms: C_11  and  C_13
REMARK    5  A    between atoms: C_11  and  N_20
REMARK    6  A    between atoms: N_23  and  C_26
REMARK    7  A    between atoms: C_26  and  C_27
REMARK    8  A    between atoms: C_27  and  O_28
REMARK                            x       y       z     vdW  Elec       q    Type
REMARK                         _______ _______ _______ _____ _____    ______ ____
ROOT
ATOM      1  C   UNL     1       4.941   2.721   0.171  0.00  0.00    +0.006 C 
ENDROOT
BRANCH   1   8
ATOM      2  C   UNL     1      -0.316  -0.055   0.631  0.00  0.00    +0.152 A 
ATOM      3  N   UNL     1      -0.321   1.276   0.598  0.00  0.00    -0.205 NA
ATOM      4  C   UNL     1       0.905   1.710   0.496  0.00  0.00    +0.199 A 
ATOM      5  N   UNL     1       1.762   0.652   0.458  0.00  0.00    -0.170 N 
ATOM      6  N   UNL     1       0.915  -0.483   0.549  0.00  0.00    -0.146 NA
ATOM      7  C   UNL     1       3.103   0.933   0.351  0.00  0.00    +0.282 A 
ATOM      8  C   UNL     1       3.532   2.199   0.288  0.00  0.00    +0.050 A 
ATOM      9  S   UNL     1       1.997   3.107   0.380  0.00  0.00    -0.050 S 
ATOM     10  O   UNL     1       4.003  -0.087   0.309  0.00  0.00    -0.265 OA
BRANCH   2  12
ATOM     11  C   UNL     1      -2.058  -1.261  -0.657  0.00  0.00    +0.012 C 
ATOM     12  C   UNL     1      -1.538  -0.930   0.743  0.00  0.00    +0.075 C 
ENDBRANCH   2  12
ENDBRANCH   1   8
BRANCH   1  13
ATOM     13  C   UNL     1       5.182   3.206  -1.235  0.00  0.00    -0.055 A 
ATOM     14  C   UNL     1       4.719   4.449  -1.626  0.00  0.00    +0.002 A 
ATOM     15  C   UNL     1       4.945   4.898  -2.914  0.00  0.00    +0.001 A 
ATOM     16  C   UNL     1       5.622   4.098  -3.816  0.00  0.00    +0.015 A 
ATOM     17  C   UNL     1       6.080   2.852  -3.427  0.00  0.00    +0.018 A 
ATOM     18  C   UNL     1       5.859   2.407  -2.136  0.00  0.00    +0.017 A 
ATOM     19 BR   UNL     1       7.007   1.758  -4.660  0.00  0.00    -0.050 Br
ENDBRANCH   1  13
BRANCH   1  20
ATOM     20  N   UNL     1       5.131   3.833   1.112  0.00  0.00    +0.389 N 
ATOM     21  C   UNL     1       6.467   4.427   0.963  0.00  0.00    -0.062 C 
ATOM     22  C   UNL     1       6.595   5.628   1.902  0.00  0.00    +0.066 C 
ATOM     23  N   UNL     1       6.369   5.191   3.287  0.00  0.00    -0.304 NA
ATOM     24  C   UNL     1       5.033   4.597   3.436  0.00  0.00    +0.066 C 
ATOM     25  C   UNL     1       4.904   3.395   2.497  0.00  0.00    -0.062 C 
ATOM     26  H   UNL     1       4.386   4.606   0.874  0.00  0.00    -0.080 HD
BRANCH  23  27
ATOM     27  C   UNL     1       6.558   6.303   4.228  0.00  0.00    +0.112 C 
BRANCH  27  28
ATOM     28  C   UNL     1       5.798   7.532   3.725  0.00  0.00    +0.171 C 
BRANCH  28  29
ATOM     29  O   UNL     1       4.393   7.271   3.766  0.00  0.00    -0.394 OA
ATOM     30  H   UNL     1       3.681   8.044   3.441  0.00  0.00    +0.209 HD
ENDBRANCH  28  29
ENDBRANCH  27  28
ENDBRANCH  23  27
ENDBRANCH   1  20
TORSDOF 7
