REMARK  Name = ZINC03312314
REMARK  10 active torsions:
REMARK  status: ('A' for Active; 'I' for Inactive)
REMARK    1  A    between atoms: C_1  and  C_2
REMARK    2  A    between atoms: C_2  and  C_3
REMARK    3  A    between atoms: C_2  and  C_4
REMARK    4  A    between atoms: C_4  and  C_5
REMARK    5  A    between atoms: N_9  and  C_13
REMARK    6  A    between atoms: C_13  and  C_14
REMARK    7  A    between atoms: C_17  and  C_32
REMARK    8  A    between atoms: C_20  and  C_22
REMARK    9  A    between atoms: C_35  and  O_38
REMARK   10  A    between atoms: O_38  and  C_39
REMARK                            x       y       z     vdW  Elec       q    Type
REMARK                         _______ _______ _______ _____ _____    ______ ____
ROOT
ATOM      1  C   UNL     1       2.349   1.173   0.084  0.00  0.00    +0.250 C 
ATOM      2  O   UNL     1       3.211   2.023   0.163  0.00  0.00    -0.272 OA
ATOM      3  N   UNL     1       1.048   1.527   0.125  0.00  0.00    -0.210 N 
ATOM      4  C   UNL     1       0.505   2.888   0.260  0.00  0.00    +0.152 C 
ATOM      5  C   UNL     1      -0.996   2.706   0.250  0.00  0.00    +0.027 C 
ATOM      6  C   UNL     1      -1.238   1.404   0.119  0.00  0.00    +0.050 C 
ATOM      7  N   UNL     1      -0.060   0.673   0.048  0.00  0.00    -0.261 N 
ATOM      8  H   UNL     1      -0.011  -0.291  -0.046  0.00  0.00    +0.170 HD
ENDROOT
BRANCH   6   9
ATOM      9  C   UNL     1      -2.593   0.809   0.062  0.00  0.00    -0.002 A 
ATOM     10  C   UNL     1      -3.723   1.641   0.143  0.00  0.00    +0.010 A 
ATOM     11  C   UNL     1      -4.976   1.120   0.092  0.00  0.00    +0.009 A 
ATOM     12  C   UNL     1      -5.155  -0.269  -0.043  0.00  0.00    -0.018 A 
ATOM     13  C   UNL     1      -6.441  -0.832  -0.099  0.00  0.00    +0.008 A 
ATOM     14  C   UNL     1      -6.583  -2.179  -0.230  0.00  0.00    +0.001 A 
ATOM     15  C   UNL     1      -5.470  -3.014  -0.311  0.00  0.00    +0.001 A 
ATOM     16  C   UNL     1      -4.209  -2.505  -0.261  0.00  0.00    +0.008 A 
ATOM     17  C   UNL     1      -4.022  -1.118  -0.126  0.00  0.00    -0.017 A 
ATOM     18  C   UNL     1      -2.736  -0.560  -0.076  0.00  0.00    +0.018 A 
ENDBRANCH   6   9
BRANCH   4  19
ATOM     19  C   UNL     1       0.937   3.744  -0.903  0.00  0.00    -0.021 A 
ATOM     20  C   UNL     1       0.971   3.209  -2.178  0.00  0.00    +0.009 A 
ATOM     21  C   UNL     1       1.362   3.993  -3.246  0.00  0.00    +0.046 A 
ATOM     22  C   UNL     1       1.732   5.314  -3.037  0.00  0.00    +0.120 A 
ATOM     23  C   UNL     1       1.702   5.846  -1.756  0.00  0.00    +0.046 A 
ATOM     24  C   UNL     1       1.305   5.060  -0.692  0.00  0.00    +0.009 A 
BRANCH  22  25
ATOM     25  O   UNL     1       2.121   6.086  -4.086  0.00  0.00    -0.495 OA
ATOM     26  C   UNL     1       2.127   5.472  -5.376  0.00  0.00    +0.277 C 
ENDBRANCH  22  25
ENDBRANCH   4  19
BRANCH   1  27
ATOM     27  C   UNL     1       2.731  -0.277  -0.059  0.00  0.00    +0.215 C 
BRANCH  27  31
ATOM     28  C   UNL     1       6.375  -0.518  -0.738  0.00  0.00    +0.161 C 
ATOM     29  C   UNL     1       4.939  -0.357  -1.198  0.00  0.00    +0.244 C 
ATOM     30  O   UNL     1       4.546  -0.219  -2.337  0.00  0.00    -0.273 OA
ATOM     31  N   UNL     1       4.191  -0.398  -0.078  0.00  0.00    -0.216 N 
ATOM     32  C   UNL     1       4.945  -0.567   1.013  0.00  0.00    +0.310 C 
ATOM     33  O   UNL     1       4.496  -0.639   2.140  0.00  0.00    -0.252 OA
ATOM     34  N   UNL     1       6.256  -0.650   0.724  0.00  0.00    -0.288 N 
ATOM     35  H   UNL     1       6.983  -0.772   1.356  0.00  0.00    +0.151 HD
BRANCH  28  36
ATOM     36  C   UNL     1       6.995  -1.778  -1.344  0.00  0.00    +0.034 C 
BRANCH  36  38
ATOM     37  C   UNL     1       8.993  -3.279  -1.311  0.00  0.00    +0.007 C 
ATOM     38  C   UNL     1       8.423  -1.946  -0.821  0.00  0.00    -0.015 C 
ATOM     39  C   UNL     1       9.293  -0.798  -1.337  0.00  0.00    +0.007 C 
ENDBRANCH  36  38
ENDBRANCH  28  36
ENDBRANCH  27  31
ENDBRANCH   1  27
TORSDOF 7
