REMARK  Name = ZINC15319399
REMARK  10 active torsions:
REMARK  status: ('A' for Active; 'I' for Inactive)
REMARK    1  A    between atoms: C_1  and  C_2
REMARK    2  A    between atoms: C_2  and  O_3
REMARK    3  A    between atoms: O_3  and  C_4
REMARK    4  A    between atoms: C_4  and  C_6
REMARK    5  A    between atoms: C_6  and  N_7
REMARK    6  A    between atoms: C_21  and  C_24
REMARK    7  A    between atoms: C_24  and  C_25
REMARK    8  A    between atoms: C_25  and  C_26
REMARK    9  A    between atoms: C_25  and  C_27
REMARK   10  A    between atoms: N_30  and  C_33
REMARK                            x       y       z     vdW  Elec       q    Type
REMARK                         _______ _______ _______ _____ _____    ______ ____
ROOT
ATOM      1  N   UNL     1      -2.430   0.973   0.019  0.00  0.00    -0.259 N 
ATOM      2  C   UNL     1      -3.010   0.453   1.177  0.00  0.00    +0.042 A 
ATOM      3  C   UNL     1      -2.729   0.689   2.521  0.00  0.00    +0.024 A 
ATOM      4  C   UNL     1      -3.451   0.046   3.505  0.00  0.00    +0.002 A 
ATOM      5  C   UNL     1      -4.460  -0.838   3.166  0.00  0.00    +0.000 A 
ATOM      6  C   UNL     1      -4.745  -1.079   1.833  0.00  0.00    +0.008 A 
ATOM      7  C   UNL     1      -4.026  -0.438   0.849  0.00  0.00    +0.004 A 
ATOM      8  C   UNL     1      -4.079  -0.471  -0.655  0.00  0.00    +0.136 C 
ATOM      9  C   UNL     1      -3.003   0.487  -1.098  0.00  0.00    +0.246 C 
ATOM     10  O   UNL     1      -2.708   0.765  -2.241  0.00  0.00    -0.273 OA
ATOM     11  C   UNL     1      -5.402  -0.215  -1.234  0.00  0.00    +0.123 C 
ATOM     12  C   UNL     1      -5.224  -0.769  -2.701  0.00  0.00    +0.107 C 
ATOM     13  C   UNL     1      -4.575  -2.101  -2.366  0.00  0.00    +0.068 C 
ATOM     14  N   UNL     1      -3.755  -1.850  -1.140  0.00  0.00    -0.295 NA
ATOM     15  C   UNL     1      -6.662  -0.675  -3.102  0.00  0.00    +0.232 C 
ATOM     16  O   UNL     1      -7.263  -1.421  -3.845  0.00  0.00    -0.274 OA
ATOM     17  N   UNL     1      -7.158   0.425  -2.460  0.00  0.00    -0.209 N 
ATOM     18  C   UNL     1      -6.343   0.858  -1.444  0.00  0.00    +0.233 C 
ATOM     19  O   UNL     1      -6.402   1.913  -0.851  0.00  0.00    -0.274 OA
ATOM     20  H   UNL     1      -2.682  -1.913  -1.376  0.00  0.00    +0.123 HD
ENDROOT
BRANCH  17  21
ATOM     21  C   UNL     1      -8.366   1.043  -2.802  0.00  0.00    +0.052 A 
ATOM     22  C   UNL     1      -9.543   0.643  -2.209  0.00  0.00    +0.024 A 
ATOM     23  C   UNL     1     -10.750   1.251  -2.542  0.00  0.00    +0.002 A 
ATOM     24  C   UNL     1     -10.802   2.255  -3.461  0.00  0.00    +0.008 A 
ATOM     25  C   UNL     1      -9.623   2.692  -4.089  0.00  0.00    -0.016 A 
ATOM     26  C   UNL     1      -8.388   2.085  -3.753  0.00  0.00    +0.004 A 
ATOM     27  C   UNL     1      -7.212   2.519  -4.385  0.00  0.00    +0.010 A 
ATOM     28  C   UNL     1      -7.271   3.523  -5.303  0.00  0.00    +0.001 A 
ATOM     29  C   UNL     1      -8.485   4.125  -5.630  0.00  0.00    +0.001 A 
ATOM     30  C   UNL     1      -9.645   3.726  -5.041  0.00  0.00    +0.008 A 
ENDBRANCH  17  21
BRANCH   1  31
ATOM     31  C   UNL     1      -1.329   1.940   0.019  0.00  0.00    +0.234 C 
BRANCH  31  32
ATOM     32  C   UNL     1      -0.014   1.204   0.009  0.00  0.00    +0.325 C 
ATOM     33  O   UNL     1       0.002  -0.004   0.002  0.00  0.00    -0.249 OA
BRANCH  32  34
ATOM     34  O   UNL     1       1.139   1.891   0.001  0.00  0.00    -0.464 OA
BRANCH  34  36
ATOM     35  C   UNL     1       3.568   2.065  -0.021  0.00  0.00    +0.048 C 
ATOM     36  C   UNL     1       2.367   1.117  -0.015  0.00  0.00    +0.229 C 
ENDBRANCH  34  36
ENDBRANCH  32  34
ENDBRANCH  31  32
ENDBRANCH   1  31
BRANCH  13  37
ATOM     37  C   UNL     1      -3.678  -2.558  -3.518  0.00  0.00    +0.022 C 
BRANCH  37  38
ATOM     38  C   UNL     1      -3.084  -3.929  -3.190  0.00  0.00    -0.016 C 
ATOM     39  C   UNL     1      -4.207  -4.966  -3.115  0.00  0.00    +0.007 C 
ATOM     40  C   UNL     1      -2.092  -4.330  -4.283  0.00  0.00    +0.007 C 
ENDBRANCH  37  38
ENDBRANCH  13  37
TORSDOF 7
