REMARK  Name = ZINC43286077
REMARK  9 active torsions:
REMARK  status: ('A' for Active; 'I' for Inactive)
REMARK    1  A    between atoms: C_1  and  N_2
REMARK    2  A    between atoms: N_2  and  C_3
REMARK    3  A    between atoms: N_2  and  C_4
REMARK    4  A    between atoms: C_4  and  C_6
REMARK    5  A    between atoms: C_4  and  C_23
REMARK    6  A    between atoms: C_6  and  N_7
REMARK    7  A    between atoms: C_8  and  C_10
REMARK    8  A    between atoms: C_10  and  O_11
REMARK    9  A    between atoms: O_11  and  C_12
REMARK                            x       y       z     vdW  Elec       q    Type
REMARK                         _______ _______ _______ _____ _____    ______ ____
ROOT
ATOM      1  N   UNL     1      -1.766   1.531  -1.169  0.00  0.00    -0.314 N 
ATOM      2  C   UNL     1      -2.260   2.263  -2.188  0.00  0.00    +0.251 C 
ATOM      3  O   UNL     1      -2.935   1.732  -3.045  0.00  0.00    -0.272 OA
ATOM      4  H   UNL     1      -1.227   1.956  -0.484  0.00  0.00    +0.149 HD
ENDROOT
BRANCH   1   5
ATOM      5  C   UNL     1      -2.044   0.095  -1.098  0.00  0.00    +0.093 C 
BRANCH   5   6
ATOM      6  C   UNL     1      -1.282  -0.514   0.081  0.00  0.00    -0.020 C 
BRANCH   6   7
ATOM      7  C   UNL     1      -1.799   0.071   1.370  0.00  0.00    -0.052 A 
ATOM      8  C   UNL     1      -1.112   1.091   2.002  0.00  0.00    +0.009 A 
ATOM      9  C   UNL     1      -1.605   1.595   3.160  0.00  0.00    +0.045 A 
ATOM     10  S   UNL     1      -3.082   0.620   3.389  0.00  0.00    -0.105 S 
ATOM     11  C   UNL     1      -2.947  -0.390   1.923  0.00  0.00    +0.047 A 
ENDBRANCH   6   7
BRANCH   6  13
ATOM     12  C   UNL     1      -0.983  -2.539  -1.170  0.00  0.00    -0.096 C 
ATOM     13  N   UNL     1      -1.477  -1.970   0.091  0.00  0.00    +0.382 N 
ATOM     14  C   UNL     1      -0.736  -2.556   1.216  0.00  0.00    -0.096 C 
ATOM     15  H   UNL     1      -2.460  -2.177   0.192  0.00  0.00    -0.082 HD
ENDBRANCH   6  13
ENDBRANCH   5   6
ENDBRANCH   1   5
BRANCH   2  16
ATOM     16  C   UNL     1      -1.974   3.741  -2.262  0.00  0.00    +0.324 C 
BRANCH  16  17
ATOM     17  O   UNL     1      -2.601   4.290  -3.422  0.00  0.00    -0.481 OA
BRANCH  17  18
ATOM     18  C   UNL     1      -2.441   5.622  -3.639  0.00  0.00    +0.147 A 
ATOM     19  C   UNL     1      -1.702   6.374  -2.770  0.00  0.00    +0.049 A 
ATOM     20  C   UNL     1      -1.526   7.739  -2.975  0.00  0.00    +0.024 A 
ATOM     21  C   UNL     1      -2.087   8.365  -4.048  0.00  0.00    +0.050 A 
ATOM     22  C   UNL     1      -2.853   7.624  -4.963  0.00  0.00    +0.022 A 
ATOM     23  C   UNL     1      -3.031   6.233  -4.764  0.00  0.00    +0.114 A 
ATOM     24  N   UNL     1      -3.755   5.523  -5.634  0.00  0.00    -0.251 NA
ATOM     25  C   UNL     1      -4.306   6.087  -6.681  0.00  0.00    +0.111 A 
ATOM     26  C   UNL     1      -4.166   7.449  -6.940  0.00  0.00    +0.020 A 
ATOM     27  C   UNL     1      -3.449   8.235  -6.083  0.00  0.00    +0.013 A 
ATOM     28 CL   UNL     1      -1.855  10.069  -4.282  0.00  0.00    -0.083 Cl
ENDBRANCH  17  18
ENDBRANCH  16  17
ENDBRANCH   2  16
TORSDOF 7
