REMARK  Name = ZINC35275172
REMARK  9 active torsions:
REMARK  status: ('A' for Active; 'I' for Inactive)
REMARK    1  A    between atoms: C_1  and  C_2
REMARK    2  A    between atoms: C_2  and  C_3
REMARK    3  A    between atoms: C_3  and  C_5
REMARK    4  A    between atoms: C_3  and  C_6
REMARK    5  A    between atoms: C_6  and  C_8
REMARK    6  A    between atoms: C_6  and  N_23
REMARK    7  A    between atoms: C_14  and  C_16
REMARK    8  A    between atoms: C_24  and  C_26
REMARK    9  A    between atoms: C_26  and  C_28
REMARK                            x       y       z     vdW  Elec       q    Type
REMARK                         _______ _______ _______ _____ _____    ______ ____
ROOT
ATOM      1  C   UNL     1      -0.170  -0.218  -2.606  0.00  0.00    +0.162 C 
ENDROOT
BRANCH   1   2
ATOM      2  C   UNL     1      -0.209   1.268  -2.851  0.00  0.00    +0.239 C 
ATOM      3  O   UNL     1       0.278   1.729  -3.862  0.00  0.00    -0.273 OA
ATOM      4  N   UNL     1      -0.784   2.085  -1.947  0.00  0.00    -0.262 N 
ATOM      5  C   UNL     1      -0.915   3.441  -2.220  0.00  0.00    +0.188 A 
ATOM      6  N   UNL     1      -0.550   4.111  -3.297  0.00  0.00    -0.125 NA
ATOM      7  N   UNL     1      -0.737   5.356  -3.406  0.00  0.00    -0.140 NA
ATOM      8  C   UNL     1      -1.317   6.006  -2.405  0.00  0.00    +0.134 A 
ATOM      9  S   UNL     1      -1.590   4.656  -1.266  0.00  0.00    -0.030 S 
ATOM     10  H   UNL     1      -1.106   1.727  -1.105  0.00  0.00    +0.157 HD
BRANCH   8  11
ATOM     11  C   UNL     1      -1.650   7.440  -2.272  0.00  0.00    +0.010 A 
ATOM     12  C   UNL     1      -2.263   7.913  -1.111  0.00  0.00    +0.011 A 
ATOM     13  C   UNL     1      -2.571   9.252  -0.993  0.00  0.00    +0.002 A 
ATOM     14  C   UNL     1      -2.273  10.127  -2.022  0.00  0.00    +0.015 A 
ATOM     15  C   UNL     1      -1.665   9.666  -3.177  0.00  0.00    +0.019 A 
ATOM     16  C   UNL     1      -1.347   8.328  -3.305  0.00  0.00    +0.026 A 
ATOM     17 BR   UNL     1      -1.263  10.870  -4.578  0.00  0.00    -0.050 Br
ENDBRANCH   8  11
ENDBRANCH   1   2
BRANCH   1  18
ATOM     18  N   UNL     1       0.087  -0.915  -3.869  0.00  0.00    -0.302 N 
ATOM     19  C   UNL     1      -0.316  -2.191  -4.029  0.00  0.00    +0.236 C 
ATOM     20  O   UNL     1      -0.892  -2.762  -3.128  0.00  0.00    -0.274 OA
ATOM     21  H   UNL     1       0.548  -0.458  -4.590  0.00  0.00    +0.150 HD
BRANCH  19  22
ATOM     22  C   UNL     1      -0.051  -2.907  -5.329  0.00  0.00    +0.196 C 
ATOM     23 CL   UNL     1      -1.583  -3.024  -6.273  0.00  0.00    -0.107 Cl
BRANCH  22  24
ATOM     24  C   UNL     1       0.469  -4.292  -5.042  0.00  0.00    -0.021 A 
ATOM     25  C   UNL     1      -0.343  -5.219  -4.415  0.00  0.00    +0.005 A 
ATOM     26  C   UNL     1       0.134  -6.490  -4.152  0.00  0.00    +0.000 A 
ATOM     27  C   UNL     1       1.422  -6.833  -4.515  0.00  0.00    +0.000 A 
ATOM     28  C   UNL     1       2.234  -5.907  -5.143  0.00  0.00    +0.000 A 
ATOM     29  C   UNL     1       1.756  -4.638  -5.410  0.00  0.00    +0.005 A 
ENDBRANCH  22  24
ENDBRANCH  19  22
ENDBRANCH   1  18
BRANCH   1  30
ATOM     30  C   UNL     1       0.945  -0.542  -1.609  0.00  0.00    +0.015 C 
ATOM     31  C   UNL     1       2.303  -0.244  -2.248  0.00  0.00    +0.010 C 
BRANCH  30  33
ATOM     32  C   UNL     1      -0.421  -2.290  -0.459  0.00  0.00    +0.004 C 
ATOM     33  C   UNL     1       0.874  -2.022  -1.228  0.00  0.00    +0.002 C 
ENDBRANCH  30  33
ENDBRANCH   1  30
TORSDOF 7
