REMARK  Name = ZINC48303304
REMARK  9 active torsions:
REMARK  status: ('A' for Active; 'I' for Inactive)
REMARK    1  A    between atoms: C_1  and  C_2
REMARK    2  A    between atoms: C_3  and  C_31
REMARK    3  A    between atoms: C_7  and  N_18
REMARK    4  A    between atoms: C_9  and  C_11
REMARK    5  A    between atoms: C_11  and  N_12
REMARK    6  A    between atoms: N_18  and  C_19
REMARK    7  A    between atoms: C_19  and  C_20
REMARK    8  A    between atoms: C_20  and  C_21
REMARK    9  A    between atoms: C_22  and  C_30
REMARK                            x       y       z     vdW  Elec       q    Type
REMARK                         _______ _______ _______ _____ _____    ______ ____
ROOT
ATOM      1  C   UNL     1      -0.556   1.486   0.114  0.00  0.00    +0.045 C 
ATOM      2  C   UNL     1      -0.484  -0.020   0.096  0.00  0.00    -0.028 A 
ATOM      3  C   UNL     1      -0.771  -0.699  -1.024  0.00  0.00    -0.008 A 
ATOM      4  S   UNL     1      -0.546  -2.402  -0.548  0.00  0.00    -0.074 S 
ATOM      5  C   UNL     1      -0.073  -2.156   1.143  0.00  0.00    +0.114 A 
ATOM      6  C   UNL     1      -0.097  -0.751   1.289  0.00  0.00    +0.051 A 
ATOM      7  C   UNL     1       0.255  -0.267   2.579  0.00  0.00    +0.131 A 
ATOM      8  N   UNL     1       0.577  -1.132   3.527  0.00  0.00    -0.216 NA
ATOM      9  C   UNL     1       0.583  -2.436   3.318  0.00  0.00    +0.146 A 
ATOM     10  N   UNL     1       0.256  -2.946   2.146  0.00  0.00    -0.223 NA
ATOM     11  C   UNL     1      -1.185  -0.153  -2.366  0.00  0.00    +0.052 C 
ENDROOT
BRANCH   7  12
ATOM     12  N   UNL     1       0.262   1.092   2.839  0.00  0.00    -0.328 N 
ATOM     13  H   UNL     1       0.110   1.724   2.119  0.00  0.00    +0.147 HD
BRANCH  12  14
ATOM     14  C   UNL     1       0.498   1.576   4.201  0.00  0.00    +0.109 C 
BRANCH  14  15
ATOM     15  C   UNL     1       0.454   3.105   4.214  0.00  0.00    +0.074 C 
BRANCH  15  16
ATOM     16  C   UNL     1       0.697   3.603   5.615  0.00  0.00    +0.040 A 
ATOM     17  C   UNL     1      -0.237   3.831   6.562  0.00  0.00    +0.034 A 
ATOM     18  N   UNL     1       0.389   4.267   7.667  0.00  0.00    -0.347 N 
ATOM     19  C   UNL     1       1.669   4.316   7.443  0.00  0.00    +0.087 A 
ATOM     20  N   UNL     1       1.903   3.905   6.174  0.00  0.00    -0.333 N 
ATOM     21  C   UNL     1       3.227   3.818   5.553  0.00  0.00    +0.123 C 
ATOM     22  C   UNL     1       4.216   4.643   6.383  0.00  0.00    +0.022 C 
ATOM     23  C   UNL     1       4.100   4.249   7.858  0.00  0.00    +0.009 C 
ATOM     24  C   UNL     1       2.753   4.745   8.404  0.00  0.00    +0.072 C 
ATOM     25  C   UNL     1      -1.722   3.633   6.406  0.00  0.00    +0.065 C 
ATOM     26  H   UNL     1      -0.045   4.506   8.501  0.00  0.00    +0.167 HD
ENDBRANCH  15  16
ENDBRANCH  14  15
ENDBRANCH  12  14
ENDBRANCH   7  12
BRANCH   9  27
ATOM     27  C   UNL     1       0.960  -3.362   4.445  0.00  0.00    +0.160 C 
BRANCH  27  28
ATOM     28  N   UNL     1      -0.245  -3.731   5.199  0.00  0.00    -0.291 NA
ATOM     29  C   UNL     1      -0.813  -2.564   5.890  0.00  0.00    +0.113 C 
ATOM     30  C   UNL     1      -2.097  -2.980   6.612  0.00  0.00    +0.175 C 
ATOM     31  O   UNL     1      -1.805  -4.052   7.513  0.00  0.00    -0.377 OA
ATOM     32  C   UNL     1      -1.251  -5.205   6.874  0.00  0.00    +0.175 C 
ATOM     33  C   UNL     1       0.042  -4.812   6.154  0.00  0.00    +0.113 C 
ENDBRANCH  27  28
ENDBRANCH   9  27
TORSDOF 6
