REMARK  Name = ZINC35313482
REMARK  7 active torsions:
REMARK  status: ('A' for Active; 'I' for Inactive)
REMARK    1  A    between atoms: C_1  and  C_2
REMARK    2  A    between atoms: C_9  and  C_14
REMARK    3  A    between atoms: C_18  and  O_34
REMARK    4  A    between atoms: C_19  and  O_32
REMARK    5  A    between atoms: C_25  and  C_27
REMARK    6  A    between atoms: O_32  and  C_33
REMARK    7  A    between atoms: O_34  and  C_35
REMARK                            x       y       z     vdW  Elec       q    Type
REMARK                         _______ _______ _______ _____ _____    ______ ____
ROOT
ATOM      1  C   UNL     1      -0.090  -5.385   4.106  0.00  0.00    +0.143 C 
ATOM      2  C   UNL     1      -1.233  -6.317   4.419  0.00  0.00    -0.016 A 
ATOM      3  C   UNL     1      -2.364  -5.775   5.016  0.00  0.00    +0.055 A 
ATOM      4  C   UNL     1      -3.450  -6.574   5.320  0.00  0.00    +0.162 A 
ATOM      5  C   UNL     1      -3.408  -7.934   5.021  0.00  0.00    +0.162 A 
ATOM      6  C   UNL     1      -2.279  -8.469   4.431  0.00  0.00    +0.053 A 
ATOM      7  C   UNL     1      -1.185  -7.663   4.133  0.00  0.00    -0.037 A 
ATOM      8  C   UNL     1       0.019  -8.325   3.515  0.00  0.00    +0.054 C 
ATOM      9  C   UNL     1       0.907  -7.295   2.819  0.00  0.00    +0.114 C 
ATOM     10  N   UNL     1       1.097  -6.165   3.741  0.00  0.00    -0.286 N 
ATOM     11  C   UNL     1       2.315  -5.858   4.230  0.00  0.00    +0.254 C 
ATOM     12  O   UNL     1       3.285  -6.517   3.905  0.00  0.00    -0.269 OA
ENDROOT
BRANCH   1  21
ATOM     13  C   UNL     1      -4.979  -2.931  -0.964  0.00  0.00    +0.044 C 
ATOM     14  C   UNL     1      -3.614  -2.889  -0.326  0.00  0.00    -0.050 A 
ATOM     15  C   UNL     1      -2.660  -1.998  -0.800  0.00  0.00    +0.005 A 
ATOM     16  C   UNL     1      -1.406  -1.943  -0.233  0.00  0.00    +0.026 A 
ATOM     17  C   UNL     1      -1.090  -2.787   0.828  0.00  0.00    +0.049 A 
ATOM     18  C   UNL     1      -2.060  -3.688   1.306  0.00  0.00    -0.001 A 
ATOM     19  C   UNL     1      -3.328  -3.723   0.717  0.00  0.00    +0.013 A 
ATOM     20  C   UNL     1      -1.718  -4.572   2.422  0.00  0.00    +0.021 A 
ATOM     21  C   UNL     1      -0.474  -4.489   2.956  0.00  0.00    +0.042 A 
ATOM     22  C   UNL     1       0.462  -3.567   2.439  0.00  0.00    +0.254 A 
ATOM     23  O   UNL     1       1.574  -3.510   2.934  0.00  0.00    -0.268 OA
ATOM     24  N   UNL     1       0.157  -2.752   1.415  0.00  0.00    -0.322 N 
ATOM     25  H   UNL     1       0.824  -2.131   1.084  0.00  0.00    +0.169 HD
ENDBRANCH   1  21
BRANCH  11  26
ATOM     26  C   UNL     1       2.471  -4.731   5.154  0.00  0.00    +0.074 A 
ATOM     27  C   UNL     1       3.592  -4.334   5.868  0.00  0.00    +0.021 A 
ATOM     28  C   UNL     1       3.431  -3.224   6.662  0.00  0.00    +0.008 A 
ATOM     29  C   UNL     1       2.224  -2.607   6.697  0.00  0.00    +0.046 A 
ATOM     30  S   UNL     1       1.271  -3.508   5.647  0.00  0.00    -0.092 S 
ENDBRANCH  11  26
BRANCH   5  31
ATOM     31  O   UNL     1      -4.471  -8.730   5.310  0.00  0.00    -0.491 OA
ATOM     32  C   UNL     1      -4.354 -10.115   4.975  0.00  0.00    +0.277 C 
ENDBRANCH   5  31
BRANCH   4  33
ATOM     33  O   UNL     1      -4.553  -6.037   5.906  0.00  0.00    -0.491 OA
ATOM     34  C   UNL     1      -4.523  -4.635   6.182  0.00  0.00    +0.277 C 
ENDBRANCH   4  33
TORSDOF 4
