REMARK  Name = ZINC65393815
REMARK  6 active torsions:
REMARK  status: ('A' for Active; 'I' for Inactive)
REMARK    1  A    between atoms: C_1  and  C_2
REMARK    2  A    between atoms: C_2  and  C_3
REMARK    3  A    between atoms: C_2  and  C_4
REMARK    4  A    between atoms: C_4  and  C_5
REMARK    5  A    between atoms: C_8  and  C_11
REMARK    6  A    between atoms: C_18  and  C_20
REMARK                            x       y       z     vdW  Elec       q    Type
REMARK                         _______ _______ _______ _____ _____    ______ ____
ROOT
ATOM      1  C   UNL     1      -2.531  -5.047   0.919  0.00  0.00    +0.068 C 
ATOM      2  C   UNL     1      -4.060  -5.109   0.961  0.00  0.00    +0.012 C 
ATOM      3  C   UNL     1      -4.506  -5.914   2.184  0.00  0.00    +0.019 C 
ATOM      4  C   UNL     1      -3.967  -7.343   2.073  0.00  0.00    +0.108 C 
ATOM      5  N   UNL     1      -2.511  -7.287   1.886  0.00  0.00    -0.299 N 
ATOM      6  C   UNL     1      -1.970  -6.467   0.794  0.00  0.00    +0.116 C 
ATOM      7  C   UNL     1      -1.687  -7.974   2.702  0.00  0.00    +0.244 C 
ATOM      8  O   UNL     1      -0.487  -7.920   2.537  0.00  0.00    -0.273 OA
ENDROOT
BRANCH   7   9
ATOM      9  C   UNL     1      -2.257  -8.811   3.818  0.00  0.00    +0.215 C 
ATOM     10  C   UNL     1      -2.590  -7.938   5.007  0.00  0.00    +0.026 C 
ATOM     11  C   UNL     1      -1.847  -8.382   6.008  0.00  0.00    +0.036 A 
ATOM     12  C   UNL     1      -1.008  -9.526   5.575  0.00  0.00    +0.074 A 
ATOM     13  N   UNL     1      -1.256  -9.770   4.293  0.00  0.00    -0.266 NA
ATOM     14  C   UNL     1      -0.167 -10.056   6.640  0.00  0.00    +0.035 A 
ATOM     15  C   UNL     1      -0.212  -9.502   7.859  0.00  0.00    +0.048 A 
ATOM     16  S   UNL     1      -1.405  -8.187   7.717  0.00  0.00    -0.095 S 
ENDBRANCH   7   9
BRANCH   1  20
ATOM     17  C   UNL     1      -1.416  -2.035  -0.119  0.00  0.00    +0.137 C 
ATOM     18  N   UNL     1      -0.347  -2.739  -0.218  0.00  0.00    -0.072 NA
ATOM     19  O   UNL     1      -0.654  -4.116  -0.327  0.00  0.00    -0.369 OA
ATOM     20  C   UNL     1      -2.087  -4.214  -0.285  0.00  0.00    +0.296 C 
ATOM     21  N   UNL     1      -2.543  -2.822  -0.143  0.00  0.00    -0.293 N 
ATOM     22  H   UNL     1      -3.462  -2.519  -0.080  0.00  0.00    +0.151 HD
BRANCH  17  23
ATOM     23  C   UNL     1      -1.433  -0.534   0.013  0.00  0.00    +0.078 C 
BRANCH  23  25
ATOM     24  C   UNL     1      -0.019   1.526   0.010  0.00  0.00    +0.007 C 
ATOM     25  C   UNL     1       0.002  -0.004   0.002  0.00  0.00    -0.010 C 
ATOM     26  C   UNL     1       0.742  -0.511   1.242  0.00  0.00    +0.007 C 
ENDBRANCH  23  25
ENDBRANCH  17  23
ENDBRANCH   1  20
TORSDOF 4
