REMARK  Name = ZINC05614791
REMARK  7 active torsions:
REMARK  status: ('A' for Active; 'I' for Inactive)
REMARK    1  A    between atoms: C_1  and  C_2
REMARK    2  A    between atoms: C_8  and  C_28
REMARK    3  A    between atoms: C_8  and  C_29
REMARK    4  A    between atoms: N_10  and  C_11
REMARK    5  A    between atoms: C_11  and  C_12
REMARK    6  A    between atoms: C_12  and  C_13
REMARK    7  A    between atoms: C_20  and  N_25
REMARK                            x       y       z     vdW  Elec       q    Type
REMARK                         _______ _______ _______ _____ _____    ______ ____
ROOT
ATOM      1  C   UNL     1       7.747   4.798   5.037  0.00  0.00    +0.044 C 
ATOM      2  C   UNL     1       6.988   4.644   3.744  0.00  0.00    -0.050 A 
ATOM      3  C   UNL     1       7.666   4.748   2.547  0.00  0.00    +0.005 A 
ATOM      4  C   UNL     1       7.022   4.617   1.327  0.00  0.00    +0.024 A 
ATOM      5  C   UNL     1       5.647   4.372   1.353  0.00  0.00    +0.037 A 
ATOM      6  C   UNL     1       4.971   4.266   2.574  0.00  0.00    -0.015 A 
ATOM      7  C   UNL     1       5.620   4.400   3.784  0.00  0.00    +0.009 A 
ATOM      8  C   UNL     1       3.519   3.994   2.281  0.00  0.00    +0.053 C 
ATOM      9  C   UNL     1       3.548   3.570   0.797  0.00  0.00    +0.207 C 
ATOM     10  N   UNL     1       4.778   4.204   0.282  0.00  0.00    -0.288 N 
ATOM     11  C   UNL     1       3.646   2.076   0.694  0.00  0.00    +0.042 C 
ATOM     12  C   UNL     1       2.535   1.345   0.598  0.00  0.00    +0.013 C 
ATOM     13  C   UNL     1       1.237   2.053   0.585  0.00  0.00    +0.019 A 
ATOM     14  C   UNL     1       0.043   1.377   0.811  0.00  0.00    +0.044 A 
ATOM     15  C   UNL     1      -1.151   2.071   0.781  0.00  0.00    +0.127 A 
ATOM     16  C   UNL     1      -1.160   3.434   0.538  0.00  0.00    +0.036 A 
ATOM     17  C   UNL     1       0.023   4.115   0.313  0.00  0.00    +0.048 A 
ATOM     18  C   UNL     1       1.225   3.433   0.336  0.00  0.00    +0.131 A 
ATOM     19  O   UNL     1       2.404   4.074   0.120  0.00  0.00    -0.463 OA
ATOM     20  C   UNL     1       2.682   5.261   2.467  0.00  0.00    +0.022 C 
ATOM     21  C   UNL     1       2.991   2.859   3.160  0.00  0.00    +0.022 C 
ENDROOT
BRANCH  15  22
ATOM     22  N   UNL     1      -2.425   1.356   1.016  0.00  0.00    +0.056 N 
ATOM     23  O   UNL     1      -2.420   0.158   1.234  0.00  0.00    -0.126 OA
ATOM     24  O   UNL     1      -3.479   1.966   0.990  0.00  0.00    -0.126 OA
ENDBRANCH  15  22
BRANCH  10  25
ATOM     25  C   UNL     1       5.392   3.383  -0.770  0.00  0.00    +0.118 C 
BRANCH  25  26
ATOM     26  C   UNL     1       4.452   3.313  -1.976  0.00  0.00    +0.114 C 
BRANCH  26  27
ATOM     27  C   UNL     1       5.135   2.582  -3.103  0.00  0.00    +0.212 C 
ATOM     28  O   UNL     1       6.262   2.158  -2.957  0.00  0.00    -0.276 OA
ATOM     29  N   UNL     1       4.493   2.398  -4.274  0.00  0.00    -0.329 N 
ATOM     30  H   UNL     1       3.591   2.737  -4.391  0.00  0.00    +0.145 HD
ATOM     31  H   UNL     1       4.932   1.927  -4.999  0.00  0.00    +0.145 HD
ENDBRANCH  26  27
ENDBRANCH  25  26
ENDBRANCH  10  25
TORSDOF 4
