REMARK  Name = ZINC21583484
REMARK  12 active torsions:
REMARK  status: ('A' for Active; 'I' for Inactive)
REMARK    1  A    between atoms: C_1  and  C_2
REMARK    2  A    between atoms: C_2  and  O_3
REMARK    3  A    between atoms: O_3  and  C_4
REMARK    4  A    between atoms: C_4  and  C_6
REMARK    5  A    between atoms: C_7  and  C_19
REMARK    6  A    between atoms: C_12  and  C_14
REMARK    7  A    between atoms: C_19  and  N_20
REMARK    8  A    between atoms: C_24  and  C_26
REMARK    9  A    between atoms: C_29  and  O_34
REMARK   10  A    between atoms: C_31  and  O_32
REMARK   11  A    between atoms: O_32  and  C_33
REMARK   12  A    between atoms: O_34  and  C_35
REMARK                            x       y       z     vdW  Elec       q    Type
REMARK                         _______ _______ _______ _____ _____    ______ ____
ROOT
ATOM      1  C   UNL     1      -0.679   5.045  -1.187  0.00  0.00    +0.079 C 
ATOM      2  C   UNL     1      -1.438   4.051  -1.695  0.00  0.00    +0.008 C 
ATOM      3  N   UNL     1      -1.763   2.957  -0.944  0.00  0.00    -0.274 N 
ATOM      4  C   UNL     1      -1.369   2.784   0.324  0.00  0.00    +0.304 C 
ATOM      5  O   UNL     1      -1.709   1.777   0.913  0.00  0.00    -0.252 OA
ATOM      6  N   UNL     1      -0.609   3.691   0.969  0.00  0.00    -0.285 N 
ATOM      7  C   UNL     1      -0.203   4.908   0.245  0.00  0.00    +0.179 C 
ATOM      8  H   UNL     1      -2.381   2.157  -1.376  0.00  0.00    +0.156 HD
ATOM      9  H   UNL     1      -0.291   3.540   2.011  0.00  0.00    +0.151 HD
ENDROOT
BRANCH   7  10
ATOM     10  C   UNL     1      -0.707   6.099   1.019  0.00  0.00    +0.130 A 
ATOM     11  C   UNL     1      -0.039   7.249   1.216  0.00  0.00    +0.047 A 
ATOM     12  C   UNL     1      -0.880   8.086   1.984  0.00  0.00    +0.041 A 
ATOM     13  C   UNL     1      -2.013   7.396   2.211  0.00  0.00    +0.195 A 
ATOM     14  O   UNL     1      -1.903   6.193   1.624  0.00  0.00    -0.466 OA
ENDBRANCH   7  10
BRANCH   1  15
ATOM     15  C   UNL     1      -0.343   6.178  -1.964  0.00  0.00    +0.339 C 
ATOM     16  O   UNL     1      -0.841   6.332  -3.063  0.00  0.00    -0.245 OA
BRANCH  15  17
ATOM     17  O   UNL     1       0.532   7.088  -1.487  0.00  0.00    -0.462 OA
BRANCH  17  19
ATOM     18  C   UNL     1       1.829   9.123  -1.620  0.00  0.00    +0.048 C 
ATOM     19  C   UNL     1       0.827   8.207  -2.325  0.00  0.00    +0.229 C 
ENDBRANCH  17  19
ENDBRANCH  15  17
ENDBRANCH   1  15
BRANCH   2  20
ATOM     20  C   UNL     1      -1.934   4.148  -3.115  0.00  0.00    -0.026 C 
BRANCH  20  21
ATOM     21  N   UNL     1      -3.306   4.671  -3.120  0.00  0.00    +0.388 N 
ATOM     22  C   UNL     1      -3.352   6.045  -2.575  0.00  0.00    -0.078 C 
ATOM     23  C   UNL     1      -4.689   6.190  -1.826  0.00  0.00    -0.020 C 
ATOM     24  C   UNL     1      -5.376   4.811  -1.955  0.00  0.00    -0.012 C 
ATOM     25  C   UNL     1      -4.189   3.858  -2.244  0.00  0.00    -0.034 C 
ATOM     26  H   UNL     1      -3.634   4.643  -4.170  0.00  0.00    -0.080 HD
BRANCH  25  27
ATOM     27  C   UNL     1      -4.661   2.622  -2.965  0.00  0.00    -0.019 A 
ATOM     28  C   UNL     1      -4.628   2.573  -4.345  0.00  0.00    +0.009 A 
ATOM     29  C   UNL     1      -5.056   1.439  -5.009  0.00  0.00    +0.046 A 
ATOM     30  C   UNL     1      -5.530   0.351  -4.290  0.00  0.00    +0.124 A 
ATOM     31  C   UNL     1      -5.569   0.400  -2.905  0.00  0.00    +0.091 A 
ATOM     32  C   UNL     1      -5.135   1.537  -2.242  0.00  0.00    +0.125 A 
BRANCH  32  33
ATOM     33  O   UNL     1      -5.172   1.588  -0.884  0.00  0.00    -0.495 OA
ATOM     34  C   UNL     1      -5.671   0.434  -0.205  0.00  0.00    +0.277 C 
ENDBRANCH  32  33
BRANCH  30  35
ATOM     35  O   UNL     1      -5.956  -0.762  -4.944  0.00  0.00    -0.495 OA
ATOM     36  C   UNL     1      -5.887  -0.743  -6.371  0.00  0.00    +0.277 C 
ENDBRANCH  30  35
ENDBRANCH  25  27
ENDBRANCH  20  21
ENDBRANCH   2  20
TORSDOF 9
