REMARK  Name = ZINC43102889
REMARK  5 active torsions:
REMARK  status: ('A' for Active; 'I' for Inactive)
REMARK    1  A    between atoms: C_1  and  C_2
REMARK    2  A    between atoms: C_2  and  C_4
REMARK    3  A    between atoms: C_2  and  N_22
REMARK    4  A    between atoms: C_4  and  C_6
REMARK    5  A    between atoms: C_4  and  N_11
REMARK                            x       y       z     vdW  Elec       q    Type
REMARK                         _______ _______ _______ _____ _____    ______ ____
ROOT
ATOM      1  C   UNL     1      -1.433  -0.534   0.013  0.00  0.00    +0.079 C 
ENDROOT
BRANCH   1   2
ATOM      2  N   UNL     1      -2.452  -0.117  -0.961  0.00  0.00    -0.294 NA
ATOM      3  C   UNL     1      -2.263  -0.803  -2.246  0.00  0.00    +0.104 C 
ATOM      4  C   UNL     1      -3.224  -0.211  -3.283  0.00  0.00    +0.122 C 
ATOM      5  N   UNL     1      -4.590  -0.272  -2.740  0.00  0.00    -0.307 N 
ATOM      6  C   UNL     1      -4.830   0.273  -1.396  0.00  0.00    +0.122 C 
ATOM      7  C   UNL     1      -3.805  -0.337  -0.433  0.00  0.00    +0.104 C 
ATOM      8  C   UNL     1      -5.624  -0.827  -3.478  0.00  0.00    +0.161 A 
ATOM      9  N   UNL     1      -5.577  -1.358  -4.681  0.00  0.00    -0.233 NA
ATOM     10  C   UNL     1      -6.663  -1.850  -5.252  0.00  0.00    +0.120 A 
ATOM     11  C   UNL     1      -7.816  -1.782  -4.544  0.00  0.00    +0.068 A 
ATOM     12  S   UNL     1      -7.243  -0.993  -3.048  0.00  0.00    -0.061 S 
ENDBRANCH   1   2
BRANCH   1  13
ATOM     13  C   UNL     1      -1.633  -1.987   0.358  0.00  0.00    +0.005 A 
ATOM     14  C   UNL     1      -1.701  -2.573   1.578  0.00  0.00    +0.013 A 
ATOM     15  C   UNL     1      -1.892  -3.940   1.655  0.00  0.00    +0.008 A 
ATOM     16  C   UNL     1      -2.006  -4.654   0.509  0.00  0.00    +0.045 A 
ATOM     17  S   UNL     1      -1.848  -3.382  -0.735  0.00  0.00    -0.100 S 
ENDBRANCH   1  13
BRANCH   1  19
ATOM     18  C   UNL     1       0.162   1.136  -0.941  0.00  0.00    -0.012 C 
ATOM     19  C   UNL     1      -0.041  -0.339  -0.591  0.00  0.00    -0.056 C 
BRANCH  19  20
ATOM     20  N   UNL     1       0.977  -0.756   0.383  0.00  0.00    +0.381 N 
ATOM     21  H   UNL     1       0.892  -0.197   1.218  0.00  0.00    -0.090 HD
ATOM     22  H   UNL     1       0.844  -1.729   0.614  0.00  0.00    -0.090 HD
ATOM     23  H   UNL     1       1.896  -0.627  -0.015  0.00  0.00    -0.090 HD
ENDBRANCH  19  20
ENDBRANCH   1  19
TORSDOF 4
