REMARK  Name = ZINC28567253
REMARK  9 active torsions:
REMARK  status: ('A' for Active; 'I' for Inactive)
REMARK    1  A    between atoms: C_1  and  S_2
REMARK    2  A    between atoms: S_2  and  C_5
REMARK    3  A    between atoms: C_8  and  C_11
REMARK    4  A    between atoms: C_12  and  C_28
REMARK    5  A    between atoms: C_13  and  N_27
REMARK    6  A    between atoms: C_15  and  S_19
REMARK    7  A    between atoms: C_16  and  C_17
REMARK    8  A    between atoms: S_19  and  C_20
REMARK    9  A    between atoms: C_23  and  O_26
REMARK                            x       y       z     vdW  Elec       q    Type
REMARK                         _______ _______ _______ _____ _____    ______ ____
ROOT
ATOM      1  C   UNL     1      -2.682   2.883   5.195  0.00  0.00    +0.023 A 
ATOM      2  C   UNL     1      -4.077   3.071   5.265  0.00  0.00    +0.100 A 
ATOM      3  C   UNL     1      -4.658   3.406   6.502  0.00  0.00    +0.136 A 
ATOM      4  N   UNL     1      -3.913   3.556   7.585  0.00  0.00    -0.223 NA
ATOM      5  C   UNL     1      -2.599   3.396   7.564  0.00  0.00    +0.122 A 
ATOM      6  C   UNL     1      -1.930   3.054   6.373  0.00  0.00    +0.093 A 
ENDROOT
BRANCH   1  10
ATOM      7  C   UNL     1      -0.799   1.851   1.529  0.00  0.00    +0.088 A 
ATOM      8  C   UNL     1      -0.524   3.069   2.126  0.00  0.00    +0.027 A 
ATOM      9  C   UNL     1      -1.136   3.412   3.313  0.00  0.00    +0.010 A 
ATOM     10  C   UNL     1      -2.026   2.523   3.918  0.00  0.00    -0.015 A 
ATOM     11  C   UNL     1      -2.295   1.295   3.314  0.00  0.00    +0.010 A 
ATOM     12  C   UNL     1      -1.680   0.966   2.123  0.00  0.00    +0.027 A 
BRANCH   7  14
ATOM     13  C   UNL     1      -1.139   2.036  -1.280  0.00  0.00    +0.200 C 
ATOM     14  S   UNL     1      -0.018   1.423   0.008  0.00  0.00    -0.006 S 
ATOM     15  O   UNL     1       0.006   0.003   0.000  0.00  0.00    -0.170 OA
ATOM     16  O   UNL     1       1.192   2.169  -0.001  0.00  0.00    -0.170 OA
ENDBRANCH   7  14
ENDBRANCH   1  10
BRANCH   3  17
ATOM     17  N   UNL     1      -6.024   3.587   6.586  0.00  0.00    -0.342 N 
ATOM     18  H   UNL     1      -6.487   3.849   7.549  0.00  0.00    +0.144 HD
ATOM     19  H   UNL     1      -6.651   3.468   5.689  0.00  0.00    +0.144 HD
ENDBRANCH   3  17
BRANCH   6  20
ATOM     20  C   UNL     1      -0.509   2.881   6.361  0.00  0.00    +0.102 C 
ATOM     21  N   UNL     1       0.619   2.744   6.350  0.00  0.00    -0.191 NA
ENDBRANCH   6  20
BRANCH   2  22
ATOM     22  C   UNL     1      -4.891   2.917   4.097  0.00  0.00    +0.103 C 
ATOM     23  N   UNL     1      -5.537   2.795   3.171  0.00  0.00    -0.191 NA
ENDBRANCH   2  22
BRANCH   5  24
ATOM     24  S   UNL     1      -1.673   3.613   9.048  0.00  0.00    -0.069 S 
BRANCH  24  25
ATOM     25  C   UNL     1      -2.951   4.164  10.128  0.00  0.00    +0.014 A 
ATOM     26  C   UNL     1      -3.291   5.510  10.173  0.00  0.00    +0.018 A 
ATOM     27  C   UNL     1      -4.295   5.941  11.017  0.00  0.00    +0.046 A 
ATOM     28  C   UNL     1      -4.960   5.031  11.826  0.00  0.00    +0.117 A 
ATOM     29  C   UNL     1      -4.618   3.687  11.786  0.00  0.00    +0.046 A 
ATOM     30  C   UNL     1      -3.617   3.254  10.939  0.00  0.00    +0.018 A 
BRANCH  28  31
ATOM     31  O   UNL     1      -5.946   5.456  12.660  0.00  0.00    -0.507 OA
ATOM     32  H   UNL     1      -6.473   4.735  13.302  0.00  0.00    +0.292 HD
ENDBRANCH  28  31
ENDBRANCH  24  25
ENDBRANCH   5  24
TORSDOF 8
