REMARK  Name = ZINC13640465
REMARK  11 active torsions:
REMARK  status: ('A' for Active; 'I' for Inactive)
REMARK    1  A    between atoms: C_1  and  C_2
REMARK    2  A    between atoms: C_2  and  N_3
REMARK    3  A    between atoms: N_3  and  C_4
REMARK    4  A    between atoms: N_3  and  C_6
REMARK    5  A    between atoms: C_4  and  C_5
REMARK    6  A    between atoms: C_6  and  C_7
REMARK    7  A    between atoms: C_7  and  N_8
REMARK    8  A    between atoms: N_17  and  C_18
REMARK    9  A    between atoms: C_18  and  C_20
REMARK   10  A    between atoms: C_25  and  O_26
REMARK   11  A    between atoms: O_26  and  C_27
REMARK                            x       y       z     vdW  Elec       q    Type
REMARK                         _______ _______ _______ _____ _____    ______ ____
ROOT
ATOM      1  N   UNL     1      -0.608  -3.777   2.104  0.00  0.00    -0.314 N 
ATOM      2  C   UNL     1      -1.569  -4.483   2.821  0.00  0.00    +0.068 A 
ATOM      3  C   UNL     1      -2.763  -4.112   3.422  0.00  0.00    +0.028 A 
ATOM      4  C   UNL     1      -3.524  -5.058   4.080  0.00  0.00    +0.002 A 
ATOM      5  C   UNL     1      -3.101  -6.375   4.143  0.00  0.00    +0.002 A 
ATOM      6  C   UNL     1      -1.915  -6.754   3.548  0.00  0.00    +0.028 A 
ATOM      7  C   UNL     1      -1.142  -5.811   2.884  0.00  0.00    +0.066 A 
ATOM      8  N   UNL     1       0.069  -5.886   2.204  0.00  0.00    -0.326 N 
ATOM      9  C   UNL     1       0.372  -4.645   1.734  0.00  0.00    +0.201 A 
ATOM     10  N   UNL     1       1.453  -4.331   1.031  0.00  0.00    -0.142 NA
ATOM     11  H   UNL     1       0.604  -6.686   2.082  0.00  0.00    +0.169 HD
ENDROOT
BRANCH  10  12
ATOM     12  C   UNL     1       2.289  -5.294   0.624  0.00  0.00    +0.274 C 
ATOM     13  O   UNL     1       2.011  -6.464   0.818  0.00  0.00    -0.268 OA
BRANCH  12  14
ATOM     14  C   UNL     1       3.550  -4.936  -0.060  0.00  0.00    +0.082 A 
ATOM     15  C   UNL     1       3.875  -3.596  -0.279  0.00  0.00    +0.032 A 
ATOM     16  C   UNL     1       5.053  -3.269  -0.917  0.00  0.00    +0.019 A 
ATOM     17  C   UNL     1       5.917  -4.266  -1.343  0.00  0.00    +0.019 A 
ATOM     18  C   UNL     1       5.606  -5.595  -1.133  0.00  0.00    +0.048 A 
ATOM     19  C   UNL     1       4.428  -5.940  -0.487  0.00  0.00    +0.139 A 
ATOM     20 BR   UNL     1       5.492  -1.454  -1.212  0.00  0.00    -0.050 Br
BRANCH  19  21
ATOM     21  O   UNL     1       4.125  -7.246  -0.275  0.00  0.00    -0.433 OA
BRANCH  21  22
ATOM     22  C   UNL     1       5.068  -8.214  -0.739  0.00  0.00    +0.541 C 
ATOM     23  F   UNL     1       5.227  -8.086  -2.123  0.00  0.00    -0.166 F 
ATOM     24  F   UNL     1       6.298  -8.007  -0.106  0.00  0.00    -0.166 F 
ENDBRANCH  21  22
ENDBRANCH  19  21
ENDBRANCH  12  14
ENDBRANCH  10  12
BRANCH   1  25
ATOM     25  C   UNL     1      -0.648  -2.345   1.794  0.00  0.00    +0.106 C 
BRANCH  25  26
ATOM     26  C   UNL     1      -1.374  -2.131   0.464  0.00  0.00    -0.057 C 
BRANCH  26  27
ATOM     27  N   UNL     1      -1.414  -0.696   0.154  0.00  0.00    +0.380 N 
ATOM     28  H   UNL     1      -1.831  -0.197   0.925  0.00  0.00    -0.082 HD
BRANCH  27  30
ATOM     29  C   UNL     1      -0.075   1.315  -0.248  0.00  0.00    -0.017 C 
ATOM     30  C   UNL     1      -0.047  -0.204  -0.065  0.00  0.00    -0.082 C 
ENDBRANCH  27  30
BRANCH  27  31
ATOM     31  C   UNL     1      -2.213  -0.479  -1.059  0.00  0.00    -0.082 C 
ATOM     32  C   UNL     1      -3.670  -0.859  -0.785  0.00  0.00    -0.017 C 
ENDBRANCH  27  31
ENDBRANCH  26  27
ENDBRANCH  25  26
ENDBRANCH   1  25
TORSDOF 9
