REMARK  Name = ZINC20700611
REMARK  4 active torsions:
REMARK  status: ('A' for Active; 'I' for Inactive)
REMARK    1  A    between atoms: C_5  and  C_7
REMARK    2  A    between atoms: C_18  and  O_23
REMARK    3  A    between atoms: O_23  and  C_24
REMARK    4  A    between atoms: C_24  and  C_25
REMARK                            x       y       z     vdW  Elec       q    Type
REMARK                         _______ _______ _______ _____ _____    ______ ____
ROOT
ATOM      1  C   UNL     1       2.427   5.341   0.008  0.00  0.00    +0.106 C 
ATOM      2  C   UNL     1       1.202   5.799  -0.763  0.00  0.00    +0.029 C 
ATOM      3  C   UNL     1       0.903   7.304  -0.769  0.00  0.00    +0.033 C 
ATOM      4  C   UNL     1      -0.635   7.299  -0.898  0.00  0.00    -0.030 C 
ATOM      5  C   UNL     1      -1.135   6.157  -0.441  0.00  0.00    -0.023 C 
ATOM      6  C   UNL     1      -0.020   5.325   0.079  0.00  0.00    +0.049 C 
ATOM      7  C   UNL     1      -0.059   3.848   0.039  0.00  0.00    -0.016 A 
ATOM      8  C   UNL     1      -1.240   3.139   0.037  0.00  0.00    +0.051 A 
ATOM      9  C   UNL     1      -1.224   1.752   0.017  0.00  0.00    +0.121 A 
ATOM     10  C   UNL     1      -0.013   1.076   0.008  0.00  0.00    +0.047 A 
ATOM     11  C   UNL     1       1.173   1.781   0.000  0.00  0.00    +0.027 A 
ATOM     12  C   UNL     1       1.165   3.170   0.013  0.00  0.00    +0.032 A 
ATOM     13  N   UNL     1       2.385   3.863  -0.016  0.00  0.00    -0.336 N 
ATOM     14  H   UNL     1       3.321   3.287  -0.057  0.00  0.00    +0.147 HD
ENDROOT
BRANCH   1  19
ATOM     15  C   UNL     1       5.463   5.509  -2.229  0.00  0.00    +0.000 A 
ATOM     16  C   UNL     1       5.983   6.747  -1.897  0.00  0.00    +0.001 A 
ATOM     17  C   UNL     1       5.353   7.530  -0.949  0.00  0.00    +0.020 A 
ATOM     18  C   UNL     1       4.201   7.075  -0.332  0.00  0.00    +0.046 A 
ATOM     19  C   UNL     1       3.681   5.837  -0.664  0.00  0.00    -0.009 A 
ATOM     20  C   UNL     1       4.316   5.053  -1.609  0.00  0.00    +0.007 A 
ATOM     21 CL   UNL     1       3.408   8.059   0.859  0.00  0.00    -0.083 Cl
ENDBRANCH   1  19
BRANCH   9  22
ATOM     22  O   UNL     1      -2.393   1.057   0.013  0.00  0.00    -0.489 OA
BRANCH  22  23
ATOM     23  C   UNL     1      -2.299  -0.369  -0.002  0.00  0.00    +0.260 C 
BRANCH  23  24
ATOM     24  C   UNL     1      -3.705  -0.973  -0.005  0.00  0.00    +0.156 C 
ATOM     25  C   UNL     1      -3.615  -2.510   0.100  0.00  0.00    +0.037 C 
ATOM     26  C   UNL     1      -4.742  -2.972  -0.866  0.00  0.00    +0.031 C 
ATOM     27  C   UNL     1      -4.671  -1.868  -1.951  0.00  0.00    +0.160 C 
ATOM     28  O   UNL     1      -4.365  -0.659  -1.238  0.00  0.00    -0.373 OA
ENDBRANCH  23  24
ENDBRANCH  22  23
ENDBRANCH   9  22
TORSDOF 4
