REMARK  Name = ZINC63404947
REMARK  9 active torsions:
REMARK  status: ('A' for Active; 'I' for Inactive)
REMARK    1  A    between atoms: C_1  and  C_2
REMARK    2  A    between atoms: C_2  and  O_3
REMARK    3  A    between atoms: O_3  and  C_4
REMARK    4  A    between atoms: C_8  and  C_10
REMARK    5  A    between atoms: C_10  and  C_11
REMARK    6  A    between atoms: C_10  and  N_12
REMARK    7  A    between atoms: N_15  and  N_16
REMARK    8  A    between atoms: C_17  and  C_19
REMARK    9  A    between atoms: C_19  and  C_20
REMARK                            x       y       z     vdW  Elec       q    Type
REMARK                         _______ _______ _______ _____ _____    ______ ____
ROOT
ATOM      1  N   UNL     1       1.489  -5.428  -4.313  0.00  0.00    -0.292 N 
ATOM      2  C   UNL     1       1.586  -5.795  -5.606  0.00  0.00    +0.316 C 
ATOM      3  O   UNL     1       2.283  -5.154  -6.369  0.00  0.00    -0.251 OA
ATOM      4  N   UNL     1       0.911  -6.872  -6.054  0.00  0.00    -0.218 N 
ATOM      5  H   UNL     1       0.932  -5.939  -3.705  0.00  0.00    +0.151 HD
ATOM      6  H   UNL     1       0.982  -7.136  -6.985  0.00  0.00    +0.174 HD
ENDROOT
BRANCH   4   7
ATOM      7  N   UNL     1       0.108  -7.610  -5.175  0.00  0.00    -0.233 N 
ATOM      8  C   UNL     1      -0.567  -8.687  -5.623  0.00  0.00    +0.234 C 
ATOM      9  O   UNL     1      -0.479  -9.018  -6.787  0.00  0.00    -0.274 OA
ATOM     10  H   UNL     1       0.038  -7.346  -4.245  0.00  0.00    +0.173 HD
BRANCH   8  11
ATOM     11  C   UNL     1      -1.431  -9.482  -4.677  0.00  0.00    +0.134 C 
BRANCH  11  12
ATOM     12  C   UNL     1      -2.070 -10.625  -5.422  0.00  0.00    -0.014 A 
ATOM     13  C   UNL     1      -3.289 -10.630  -5.983  0.00  0.00    +0.087 A 
ATOM     14  N   UNL     1      -3.528 -11.843  -6.571  0.00  0.00    -0.360 N 
ATOM     15  H   UNL     1      -4.342 -12.085  -7.040  0.00  0.00    +0.165 HD
ATOM     16  C   UNL     1      -2.440 -12.669  -6.397  0.00  0.00    +0.047 A 
ATOM     17  C   UNL     1      -1.476 -11.940  -5.675  0.00  0.00    +0.003 A 
ATOM     18  C   UNL     1      -0.253 -12.530  -5.355  0.00  0.00    +0.010 A 
ATOM     19  C   UNL     1       0.005 -13.814  -5.747  0.00  0.00    +0.001 A 
ATOM     20  C   UNL     1      -0.940 -14.536  -6.463  0.00  0.00    +0.002 A 
ATOM     21  C   UNL     1      -2.158 -13.976  -6.782  0.00  0.00    +0.026 A 
ENDBRANCH  11  12
ENDBRANCH   8  11
ENDBRANCH   4   7
BRANCH   1  22
ATOM     22  C   UNL     1       2.222  -4.257  -3.827  0.00  0.00    +0.102 C 
ATOM     23  C   UNL     1       3.647  -4.668  -3.450  0.00  0.00    +0.033 C 
BRANCH  22  28
ATOM     24  C   UNL     1       0.777  -1.810  -1.336  0.00  0.00    +0.121 A 
ATOM     25  C   UNL     1       0.243  -2.669  -0.386  0.00  0.00    +0.045 A 
ATOM     26  C   UNL     1       0.351  -4.036  -0.554  0.00  0.00    +0.004 A 
ATOM     27  C   UNL     1       0.991  -4.548  -1.667  0.00  0.00    +0.006 A 
ATOM     28  C   UNL     1       1.525  -3.695  -2.615  0.00  0.00    -0.024 A 
ATOM     29  C   UNL     1       1.414  -2.327  -2.455  0.00  0.00    +0.051 A 
BRANCH  24  30
ATOM     30  O   UNL     1       0.671  -0.465  -1.174  0.00  0.00    -0.492 OA
BRANCH  30  32
ATOM     31  C   UNL     1      -0.019   1.526   0.010  0.00  0.00    +0.048 C 
ATOM     32  C   UNL     1       0.002  -0.004   0.002  0.00  0.00    +0.225 C 
ENDBRANCH  30  32
ENDBRANCH  24  30
ENDBRANCH  22  28
ENDBRANCH   1  22
TORSDOF 7
