REMARK  Name = ZINC14465798
REMARK  4 active torsions:
REMARK  status: ('A' for Active; 'I' for Inactive)
REMARK    1  A    between atoms: C_5  and  C_7
REMARK    2  A    between atoms: C_18  and  S_23
REMARK    3  A    between atoms: S_23  and  N_26
REMARK    4  A    between atoms: N_26  and  C_27
REMARK                            x       y       z     vdW  Elec       q    Type
REMARK                         _______ _______ _______ _____ _____    ______ ____
ROOT
ATOM      1  C   UNL     1      -0.051   4.272   0.063  0.00  0.00    +0.106 C 
ATOM      2  C   UNL     1      -1.047   3.439   0.850  0.00  0.00    +0.029 C 
ATOM      3  C   UNL     1      -2.497   3.940   0.892  0.00  0.00    +0.033 C 
ATOM      4  C   UNL     1      -3.271   2.629   1.043  0.00  0.00    -0.030 C 
ATOM      5  C   UNL     1      -2.565   1.624   0.540  0.00  0.00    -0.023 C 
ATOM      6  C   UNL     1      -1.274   2.152   0.003  0.00  0.00    +0.049 C 
ATOM      7  C   UNL     1      -0.017   1.374   0.010  0.00  0.00    -0.018 A 
ATOM      8  C   UNL     1       0.002  -0.004   0.002  0.00  0.00    +0.034 A 
ATOM      9  C   UNL     1       1.204  -0.686  -0.029  0.00  0.00    +0.106 A 
ATOM     10  C   UNL     1       2.396   0.015  -0.052  0.00  0.00    +0.030 A 
ATOM     11  C   UNL     1       2.389   1.395  -0.036  0.00  0.00    +0.025 A 
ATOM     12  C   UNL     1       1.186   2.090   0.002  0.00  0.00    +0.031 A 
ATOM     13  N   UNL     1       1.204   3.489   0.051  0.00  0.00    -0.336 N 
ATOM     14  H   UNL     1       2.055   3.953   0.079  0.00  0.00    +0.147 HD
ENDROOT
BRANCH   1  19
ATOM     15  C   UNL     1       1.450   6.986   2.216  0.00  0.00    +0.000 A 
ATOM     16  C   UNL     1       0.575   8.033   1.990  0.00  0.00    +0.001 A 
ATOM     17  C   UNL     1      -0.502   7.864   1.142  0.00  0.00    +0.020 A 
ATOM     18  C   UNL     1      -0.705   6.646   0.517  0.00  0.00    +0.046 A 
ATOM     19  C   UNL     1       0.170   5.599   0.742  0.00  0.00    -0.009 A 
ATOM     20  C   UNL     1       1.245   5.768   1.596  0.00  0.00    +0.007 A 
ATOM     21 CL   UNL     1      -2.059   6.432  -0.549  0.00  0.00    -0.083 Cl
ENDBRANCH   1  19
BRANCH   9  22
ATOM     22  S   UNL     1       1.218  -2.448  -0.040  0.00  0.00    +0.059 S 
ATOM     23  O   UNL     1       2.479  -2.847   0.480  0.00  0.00    -0.153 OA
ATOM     24  O   UNL     1      -0.011  -2.867   0.536  0.00  0.00    -0.153 OA
BRANCH  22  25
ATOM     25  N   UNL     1       1.187  -2.928  -1.625  0.00  0.00    -0.187 NA
ATOM     26  H   UNL     1       0.422  -3.414  -1.969  0.00  0.00    +0.148 HD
BRANCH  25  27
ATOM     27  C   UNL     1       2.315  -2.618  -2.506  0.00  0.00    +0.077 C 
ATOM     28  C   UNL     1       2.024  -1.326  -3.272  0.00  0.00    +0.020 C 
ATOM     29  C   UNL     1       3.202  -1.002  -4.193  0.00  0.00    +0.002 C 
ATOM     30  C   UNL     1       3.404  -2.149  -5.186  0.00  0.00    +0.000 C 
ATOM     31  C   UNL     1       3.695  -3.441  -4.420  0.00  0.00    +0.002 C 
ATOM     32  C   UNL     1       2.517  -3.764  -3.499  0.00  0.00    +0.020 C 
ENDBRANCH  25  27
ENDBRANCH  22  25
ENDBRANCH   9  22
TORSDOF 4
