REMARK  Name = ZINC39912093
REMARK  9 active torsions:
REMARK  status: ('A' for Active; 'I' for Inactive)
REMARK    1  A    between atoms: C_1  and  C_2
REMARK    2  A    between atoms: C_2  and  C_3
REMARK    3  A    between atoms: C_6  and  C_9
REMARK    4  A    between atoms: C_12  and  C_23
REMARK    5  A    between atoms: N_19  and  C_20
REMARK    6  A    between atoms: C_20  and  C_21
REMARK    7  A    between atoms: C_25  and  C_31
REMARK    8  A    between atoms: C_27  and  C_30
REMARK    9  A    between atoms: C_28  and  O_29
REMARK                            x       y       z     vdW  Elec       q    Type
REMARK                         _______ _______ _______ _____ _____    ______ ____
ROOT
ATOM      1  C   UNL     1      -5.108  -1.706  -0.228  0.00  0.00    +0.142 C 
ATOM      2  C   UNL     1      -6.259  -0.738  -0.210  0.00  0.00    +0.035 A 
ATOM      3  C   UNL     1      -6.896   0.326   0.439  0.00  0.00    +0.102 A 
ATOM      4  N   UNL     1      -7.969   0.630  -0.264  0.00  0.00    -0.173 NA
ATOM      5  N   UNL     1      -8.074  -0.135  -1.291  0.00  0.00    -0.272 N 
ATOM      6  H   UNL     1      -8.786  -0.091  -1.948  0.00  0.00    +0.189 HD
ATOM      7  C   UNL     1      -7.033  -1.020  -1.319  0.00  0.00    +0.126 A 
ATOM      8  C   UNL     1      -6.416  -2.134  -2.048  0.00  0.00    +0.266 C 
ATOM      9  O   UNL     1      -6.854  -2.621  -3.072  0.00  0.00    -0.268 OA
ATOM     10  N   UNL     1      -5.296  -2.541  -1.421  0.00  0.00    -0.281 N 
ENDROOT
BRANCH   3  11
ATOM     11  C   UNL     1      -6.445   0.989   1.688  0.00  0.00    +0.044 A 
ATOM     12  C   UNL     1      -5.356   0.485   2.394  0.00  0.00    +0.017 A 
ATOM     13  C   UNL     1      -4.941   1.105   3.555  0.00  0.00    -0.049 A 
ATOM     14  C   UNL     1      -5.604   2.227   4.020  0.00  0.00    +0.010 A 
ATOM     15  C   UNL     1      -6.686   2.736   3.327  0.00  0.00    -0.008 A 
ATOM     16  C   UNL     1      -7.109   2.126   2.157  0.00  0.00    +0.129 A 
ATOM     17  C   UNL     1      -7.402   3.958   3.841  0.00  0.00    +0.047 C 
ATOM     18  C   UNL     1      -3.763   0.558   4.319  0.00  0.00    +0.044 C 
BRANCH  16  19
ATOM     19  O   UNL     1      -8.168   2.629   1.471  0.00  0.00    -0.506 OA
ATOM     20  H   UNL     1      -9.021   2.262   1.741  0.00  0.00    +0.292 HD
ENDBRANCH  16  19
ENDBRANCH   3  11
BRANCH   1  24
ATOM     21  C   UNL     1      -1.410   0.418  -0.487  0.00  0.00    -0.048 A 
ATOM     22  C   UNL     1      -2.278   0.407  -1.563  0.00  0.00    +0.004 A 
ATOM     23  C   UNL     1      -3.474  -0.281  -1.479  0.00  0.00    +0.006 A 
ATOM     24  C   UNL     1      -3.803  -0.957  -0.320  0.00  0.00    -0.022 A 
ATOM     25  C   UNL     1      -2.935  -0.947   0.756  0.00  0.00    +0.006 A 
ATOM     26  C   UNL     1      -1.737  -0.263   0.671  0.00  0.00    +0.004 A 
BRANCH  21  28
ATOM     27  C   UNL     1       0.980   0.237  -1.123  0.00  0.00    +0.009 C 
ATOM     28  C   UNL     1      -0.106   1.167  -0.578  0.00  0.00    +0.032 C 
ENDBRANCH  21  28
ENDBRANCH   1  24
BRANCH  10  29
ATOM     29  C   UNL     1      -4.415  -3.629  -1.854  0.00  0.00    +0.135 C 
BRANCH  29  30
ATOM     30  C   UNL     1      -4.876  -4.924  -1.237  0.00  0.00    -0.016 C 
ATOM     31  C   UNL     1      -5.142  -5.956  -2.000  0.00  0.00    +0.005 C 
ENDBRANCH  29  30
ENDBRANCH  10  29
TORSDOF 6
