REMARK  Name = ZINC28057819
REMARK  2 active torsions:
REMARK  status: ('A' for Active; 'I' for Inactive)
REMARK    1  A    between atoms: C_5  and  C_7
REMARK    2  A    between atoms: C_18  and  C_20
REMARK                            x       y       z     vdW  Elec       q    Type
REMARK                         _______ _______ _______ _____ _____    ______ ____
ROOT
ATOM      1  C   UNL     1      -2.757   5.332   2.344  0.00  0.00    +0.177 C 
ATOM      2  C   UNL     1      -3.100   4.161   1.457  0.00  0.00    +0.026 C 
ATOM      3  C   UNL     1      -3.860   3.147   1.875  0.00  0.00    +0.050 C 
ATOM      4  C   UNL     1      -4.162   2.052   0.922  0.00  0.00    +0.039 A 
ATOM      5  C   UNL     1      -4.645   0.824   1.357  0.00  0.00    +0.033 A 
ATOM      6  C   UNL     1      -4.917  -0.167   0.431  0.00  0.00    +0.042 A 
ATOM      7  C   UNL     1      -4.708   0.062  -0.919  0.00  0.00    +0.023 A 
ATOM      8  C   UNL     1      -4.226   1.282  -1.358  0.00  0.00    +0.048 A 
ATOM      9  C   UNL     1      -3.950   2.281  -0.443  0.00  0.00    +0.131 A 
ATOM     10  O   UNL     1      -3.471   3.489  -0.834  0.00  0.00    -0.479 OA
ATOM     11  C   UNL     1      -2.557   4.141   0.046  0.00  0.00    +0.234 C 
ATOM     12 CL   UNL     1      -5.521  -1.705   0.964  0.00  0.00    -0.084 Cl
ATOM     13  N   UNL     1      -4.390   3.095   3.170  0.00  0.00    -0.282 N 
ATOM     14  C   UNL     1      -4.350   4.259   3.919  0.00  0.00    +0.240 A 
ATOM     15  N   UNL     1      -3.592   5.320   3.537  0.00  0.00    -0.201 N 
ATOM     16  N   UNL     1      -3.806   6.298   4.507  0.00  0.00    -0.042 NA
ATOM     17  N   UNL     1      -4.628   5.790   5.367  0.00  0.00    -0.021 NA
ATOM     18  N   UNL     1      -4.949   4.589   5.027  0.00  0.00    -0.092 NA
ATOM     19  H   UNL     1      -4.815   2.155   3.553  0.00  0.00    +0.155 HD
ENDROOT
BRANCH  11  20
ATOM     20  C   UNL     1      -1.242   3.405   0.031  0.00  0.00    -0.000 A 
ATOM     21  C   UNL     1      -0.058   4.108  -0.102  0.00  0.00    +0.009 A 
ATOM     22  C   UNL     1       1.149   3.434  -0.117  0.00  0.00    +0.023 A 
ATOM     23  C   UNL     1       1.174   2.056   0.002  0.00  0.00    +0.076 A 
ATOM     24  C   UNL     1      -0.012   1.352   0.135  0.00  0.00    +0.142 A 
ATOM     25  C   UNL     1      -1.220   2.028   0.144  0.00  0.00    +0.047 A 
ATOM     26  F   UNL     1       0.011   0.006   0.250  0.00  0.00    -0.204 F 
ATOM     27 CL   UNL     1       2.689   1.210  -0.018  0.00  0.00    -0.081 Cl
ENDBRANCH  11  20
BRANCH   1  32
ATOM     28  C   UNL     1       0.478   4.065   3.821  0.00  0.00    +0.001 A 
ATOM     29  C   UNL     1       1.353   5.083   3.489  0.00  0.00    +0.003 A 
ATOM     30  C   UNL     1       0.899   6.183   2.786  0.00  0.00    +0.039 A 
ATOM     31  C   UNL     1      -0.432   6.262   2.410  0.00  0.00    +0.129 A 
ATOM     32  C   UNL     1      -1.308   5.245   2.748  0.00  0.00    +0.017 A 
ATOM     33  C   UNL     1      -0.851   4.146   3.451  0.00  0.00    +0.009 A 
ATOM     34  F   UNL     1      -0.876   7.334   1.718  0.00  0.00    -0.205 F 
ENDBRANCH   1  32
TORSDOF 2
