REMARK  Name = ZINC20497287
REMARK  7 active torsions:
REMARK  status: ('A' for Active; 'I' for Inactive)
REMARK    1  A    between atoms: C_1  and  C_2
REMARK    2  A    between atoms: C_4  and  N_18
REMARK    3  A    between atoms: C_6  and  C_9
REMARK    4  A    between atoms: C_7  and  O_8
REMARK    5  A    between atoms: C_19  and  C_21
REMARK    6  A    between atoms: C_22  and  C_23
REMARK    7  A    between atoms: C_27  and  N_29
REMARK                            x       y       z     vdW  Elec       q    Type
REMARK                         _______ _______ _______ _____ _____    ______ ____
ROOT
ATOM      1  C   UNL     1      -0.394   0.070  -2.461  0.00  0.00    +0.047 C 
ATOM      2  C   UNL     1      -0.173  -0.692  -1.179  0.00  0.00    -0.007 A 
ATOM      3  C   UNL     1      -0.152  -2.072  -1.192  0.00  0.00    +0.030 A 
ATOM      4  C   UNL     1       0.045  -2.782  -0.013  0.00  0.00    +0.035 A 
ATOM      5  C   UNL     1       0.229  -2.107   1.183  0.00  0.00    +0.037 A 
ATOM      6  C   UNL     1       0.215  -0.712   1.201  0.00  0.00    +0.051 A 
ATOM      7  C   UNL     1       0.015  -0.004   0.009  0.00  0.00    +0.130 A 
ENDROOT
BRANCH   6   8
ATOM      8  C   UNL     1       0.409   0.015   2.473  0.00  0.00    +0.113 A 
ATOM      9  N   UNL     1       0.609  -0.471   3.679  0.00  0.00    -0.239 NA
ATOM     10  C   UNL     1       0.772   0.318   4.759  0.00  0.00    +0.079 A 
ATOM     11  C   UNL     1       0.992  -0.073   6.102  0.00  0.00    +0.029 A 
ATOM     12  C   UNL     1       1.138   0.857   7.083  0.00  0.00    +0.002 A 
ATOM     13  C   UNL     1       1.078   2.217   6.813  0.00  0.00    +0.001 A 
ATOM     14  C   UNL     1       0.864   2.642   5.515  0.00  0.00    +0.017 A 
ATOM     15  C   UNL     1       0.716   1.711   4.516  0.00  0.00    +0.040 A 
ATOM     16  S   UNL     1       0.442   1.778   2.762  0.00  0.00    -0.067 S 
ENDBRANCH   6   8
BRANCH   4  17
ATOM     17  N   UNL     1       0.059  -4.182  -0.034  0.00  0.00    -0.282 N 
ATOM     18  C   UNL     1      -0.415  -4.877   1.019  0.00  0.00    +0.241 C 
ATOM     19  O   UNL     1      -0.942  -4.291   1.947  0.00  0.00    -0.270 OA
ATOM     20  H   UNL     1       0.456  -4.715  -0.911  0.00  0.00    +0.155 HD
BRANCH  18  21
ATOM     21  C   UNL     1      -0.296  -6.335   1.048  0.00  0.00    +0.068 C 
ATOM     22  C   UNL     1      -0.770  -7.030   2.102  0.00  0.00    +0.013 C 
BRANCH  22  23
ATOM     23  C   UNL     1      -0.650  -8.496   2.130  0.00  0.00    -0.023 A 
ATOM     24  C   UNL     1      -0.045  -9.173   1.066  0.00  0.00    +0.009 A 
ATOM     25  C   UNL     1       0.064 -10.546   1.100  0.00  0.00    +0.023 A 
ATOM     26  C   UNL     1      -0.423 -11.257   2.185  0.00  0.00    +0.071 A 
ATOM     27  C   UNL     1      -1.024 -10.594   3.242  0.00  0.00    +0.145 A 
ATOM     28  C   UNL     1      -1.136  -9.220   3.224  0.00  0.00    +0.042 A 
ATOM     29 CL   UNL     1      -0.281 -12.987   2.219  0.00  0.00    -0.081 Cl
BRANCH  27  30
ATOM     30  N   UNL     1      -1.543 -11.361   4.396  0.00  0.00    +0.058 N 
ATOM     31  O   UNL     1      -2.072 -10.780   5.327  0.00  0.00    -0.126 OA
ATOM     32  O   UNL     1      -1.441 -12.575   4.416  0.00  0.00    -0.126 OA
ENDBRANCH  27  30
ENDBRANCH  22  23
ENDBRANCH  18  21
ENDBRANCH   4  17
BRANCH   7  33
ATOM     33  O   UNL     1       0.000   1.354   0.019  0.00  0.00    -0.506 OA
ATOM     34  H   UNL     1       0.150   1.899   0.963  0.00  0.00    +0.292 HD
ENDBRANCH   7  33
TORSDOF 6
