REMARK  Name = ZINC36309954
REMARK  15 active torsions:
REMARK  status: ('A' for Active; 'I' for Inactive)
REMARK    1  A    between atoms: C_1  and  C_2
REMARK    2  A    between atoms: C_2  and  N_3
REMARK    3  A    between atoms: N_3  and  C_4
REMARK    4  A    between atoms: N_3  and  C_17
REMARK    5  A    between atoms: C_4  and  C_5
REMARK    6  A    between atoms: C_5  and  C_7
REMARK    7  A    between atoms: C_5  and  O_16
REMARK    8  A    between atoms: C_7  and  O_8
REMARK    9  A    between atoms: O_8  and  C_9
REMARK   10  A    between atoms: C_14  and  C_15
REMARK   11  A    between atoms: C_17  and  C_18
REMARK   12  A    between atoms: C_28  and  C_30
REMARK   13  A    between atoms: C_30  and  O_31
REMARK   14  A    between atoms: O_31  and  C_32
REMARK   15  A    between atoms: C_37  and  C_38
REMARK                            x       y       z     vdW  Elec       q    Type
REMARK                         _______ _______ _______ _____ _____    ______ ____
ROOT
ATOM      1  C   UNL     1      -0.688  -2.170  -2.028  0.00  0.00    +0.200 C 
ATOM      2  O   UNL     1      -1.554  -1.320  -2.056  0.00  0.00    -0.278 OA
ATOM      3  N   UNL     1      -0.982  -3.442  -2.359  0.00  0.00    -0.292 N 
ATOM      4  C   UNL     1       0.058  -4.481  -2.323  0.00  0.00    +0.113 C 
ATOM      5  C   UNL     1      -0.318  -5.503  -1.239  0.00  0.00    +0.061 C 
ATOM      6  C   UNL     1      -1.780  -5.795  -1.343  0.00  0.00    -0.004 A 
ATOM      7  C   UNL     1      -2.731  -5.078  -2.000  0.00  0.00    -0.014 A 
ATOM      8  C   UNL     1      -4.037  -5.563  -1.937  0.00  0.00    +0.013 A 
ATOM      9  C   UNL     1      -4.303  -6.698  -1.250  0.00  0.00    +0.046 A 
ATOM     10  S   UNL     1      -2.685  -7.151  -0.643  0.00  0.00    -0.101 S 
ATOM     11  C   UNL     1      -2.347  -3.812  -2.756  0.00  0.00    +0.144 C 
ENDROOT
BRANCH   1  12
ATOM     12  C   UNL     1       0.716  -1.801  -1.622  0.00  0.00    +0.019 C 
BRANCH  12  13
ATOM     13  N   UNL     1       0.776  -0.367  -1.312  0.00  0.00    +0.387 N 
ATOM     14  H   UNL     1       0.433   0.162  -2.100  0.00  0.00    -0.081 HD
BRANCH  13  16
ATOM     15  C   UNL     1       0.500  -0.840   1.075  0.00  0.00    -0.017 C 
ATOM     16  C   UNL     1      -0.056  -0.085  -0.134  0.00  0.00    -0.081 C 
ENDBRANCH  13  16
BRANCH  13  17
ATOM     17  C   UNL     1       2.166   0.016  -1.033  0.00  0.00    -0.043 C 
BRANCH  17  18
ATOM     18  C   UNL     1       2.248   1.531  -0.833  0.00  0.00    +0.135 C 
BRANCH  18  19
ATOM     19  O   UNL     1       1.804   2.193  -2.019  0.00  0.00    -0.390 OA
ATOM     20  H   UNL     1       2.325   1.980  -2.806  0.00  0.00    +0.210 HD
ENDBRANCH  18  19
BRANCH  18  21
ATOM     21  C   UNL     1       3.695   1.929  -0.538  0.00  0.00    +0.258 C 
BRANCH  21  22
ATOM     22  O   UNL     1       3.753   3.325  -0.236  0.00  0.00    -0.489 OA
BRANCH  22  23
ATOM     23  C   UNL     1       4.975   3.844   0.052  0.00  0.00    +0.124 A 
ATOM     24  C   UNL     1       6.097   3.028   0.038  0.00  0.00    +0.046 A 
ATOM     25  C   UNL     1       7.339   3.558   0.331  0.00  0.00    +0.004 A 
ATOM     26  C   UNL     1       7.464   4.900   0.636  0.00  0.00    +0.000 A 
ATOM     27  C   UNL     1       6.348   5.716   0.651  0.00  0.00    +0.007 A 
ATOM     28  C   UNL     1       5.105   5.192   0.353  0.00  0.00    -0.009 A 
ATOM     29  C   UNL     1       3.889   6.082   0.363  0.00  0.00    +0.047 C 
ENDBRANCH  22  23
ENDBRANCH  21  22
ENDBRANCH  18  21
ENDBRANCH  17  18
ENDBRANCH  13  17
ENDBRANCH  12  13
ENDBRANCH   1  12
BRANCH  11  30
ATOM     30  C   UNL     1      -2.394  -4.080  -4.262  0.00  0.00    +0.256 C 
BRANCH  30  31
ATOM     31  O   UNL     1      -1.593  -5.222  -4.569  0.00  0.00    -0.490 OA
BRANCH  31  32
ATOM     32  C   UNL     1      -1.526  -5.598  -5.873  0.00  0.00    +0.123 A 
ATOM     33  C   UNL     1      -2.214  -4.877  -6.839  0.00  0.00    +0.046 A 
ATOM     34  C   UNL     1      -2.145  -5.261  -8.164  0.00  0.00    +0.004 A 
ATOM     35  C   UNL     1      -1.391  -6.361  -8.528  0.00  0.00    +0.000 A 
ATOM     36  C   UNL     1      -0.705  -7.080  -7.568  0.00  0.00    +0.007 A 
ATOM     37  C   UNL     1      -0.766  -6.698  -6.242  0.00  0.00    -0.009 A 
ATOM     38  C   UNL     1      -0.013  -7.479  -5.196  0.00  0.00    +0.047 C 
ENDBRANCH  31  32
ENDBRANCH  30  31
ENDBRANCH  11  30
TORSDOF 12
