REMARK  Name = ZINC06894669
REMARK  5 active torsions:
REMARK  status: ('A' for Active; 'I' for Inactive)
REMARK    1  A    between atoms: C_1  and  C_2
REMARK    2  A    between atoms: C_2  and  C_4
REMARK    3  A    between atoms: C_2  and  C_26
REMARK    4  A    between atoms: C_4  and  N_5
REMARK    5  A    between atoms: C_6  and  C_8
REMARK                            x       y       z     vdW  Elec       q    Type
REMARK                         _______ _______ _______ _____ _____    ______ ____
ROOT
ATOM      1  C   UNL     1      -0.013   1.086   0.008  0.00  0.00    +0.076 C 
ATOM      2  C   UNL     1      -0.562   1.649   1.347  0.00  0.00    -0.003 C 
ATOM      3  C   UNL     1       0.692   1.589   2.252  0.00  0.00    -0.066 C 
ATOM      4  C   UNL     1       0.600   2.691   3.319  0.00  0.00    -0.017 C 
ATOM      5  C   UNL     1       1.760   3.662   3.000  0.00  0.00    -0.020 C 
ATOM      6  C   UNL     1       2.027   3.399   1.498  0.00  0.00    -0.077 C 
ATOM      7  C   UNL     1       1.427   1.621  -0.022  0.00  0.00    +0.052 C 
ATOM      8  C   UNL     1       2.360   0.620  -0.648  0.00  0.00    -0.027 A 
ATOM      9  C   UNL     1       2.711  -0.673  -0.327  0.00  0.00    +0.004 A 
ATOM     10  C   UNL     1       3.622  -1.357  -1.112  0.00  0.00    +0.000 A 
ATOM     11  C   UNL     1       4.178  -0.740  -2.218  0.00  0.00    +0.002 A 
ATOM     12  C   UNL     1       3.828   0.554  -2.543  0.00  0.00    +0.023 A 
ATOM     13  C   UNL     1       2.911   1.250  -1.759  0.00  0.00    +0.036 A 
ATOM     14  N   UNL     1       2.401   2.544  -1.882  0.00  0.00    -0.286 N 
ATOM     15  C   UNL     1       1.524   2.840  -0.905  0.00  0.00    +0.212 C 
ATOM     16  O   UNL     1       0.925   3.885  -0.763  0.00  0.00    -0.277 OA
ATOM     17  H   UNL     1       2.651   3.159  -2.589  0.00  0.00    +0.155 HD
ATOM     18  N   UNL     1       1.796   1.948   1.369  0.00  0.00    +0.394 N 
ATOM     19  H   UNL     1       2.644   1.432   1.634  0.00  0.00    -0.079 HD
ENDROOT
BRANCH   1  21
ATOM     20  N   UNL     1      -0.725   1.000  -2.359  0.00  0.00    -0.315 N 
ATOM     21  C   UNL     1      -0.803   1.613  -1.162  0.00  0.00    +0.216 C 
ATOM     22  O   UNL     1      -1.510   2.589  -1.025  0.00  0.00    -0.276 OA
ATOM     23  H   UNL     1      -0.159   0.220  -2.469  0.00  0.00    +0.149 HD
BRANCH  20  24
ATOM     24  C   UNL     1      -1.493   1.513  -3.496  0.00  0.00    +0.112 C 
BRANCH  24  26
ATOM     25  C   UNL     1      -1.764  -0.768  -4.478  0.00  0.00    +0.014 C 
ATOM     26  C   UNL     1      -1.227   0.643  -4.726  0.00  0.00    +0.033 C 
BRANCH  26  27
ATOM     27  C   UNL     1      -1.919   1.240  -5.924  0.00  0.00    -0.043 A 
ATOM     28  C   UNL     1      -3.292   1.396  -5.922  0.00  0.00    +0.004 A 
ATOM     29  C   UNL     1      -3.927   1.948  -7.019  0.00  0.00    +0.000 A 
ATOM     30  C   UNL     1      -3.189   2.336  -8.122  0.00  0.00    +0.000 A 
ATOM     31  C   UNL     1      -1.816   2.175  -8.126  0.00  0.00    +0.000 A 
ATOM     32  C   UNL     1      -1.181   1.627  -7.027  0.00  0.00    +0.004 A 
ENDBRANCH  26  27
ENDBRANCH  24  26
ENDBRANCH  20  24
ENDBRANCH   1  21
TORSDOF 4
