REMARK  Name = ZINC02949328
REMARK  3 active torsions:
REMARK  status: ('A' for Active; 'I' for Inactive)
REMARK    1  A    between atoms: C_6  and  N_11
REMARK    2  A    between atoms: C_12  and  C_18
REMARK    3  A    between atoms: C_23  and  N_24
REMARK                            x       y       z     vdW  Elec       q    Type
REMARK                         _______ _______ _______ _____ _____    ______ ____
ROOT
ATOM      1  N   UNL     1      -0.558   1.627  -1.187  0.00  0.00    -0.254 N 
ATOM      2  C   UNL     1      -0.232   1.022   0.118  0.00  0.00    +0.172 C 
ATOM      3  S   UNL     1       1.508   1.586   0.353  0.00  0.00    -0.124 S 
ATOM      4  C   UNL     1       1.843   1.971  -1.420  0.00  0.00    +0.167 C 
ATOM      5  C   UNL     1       0.423   2.090  -1.950  0.00  0.00    +0.231 C 
ATOM      6  O   UNL     1       0.196   2.590  -3.032  0.00  0.00    -0.274 OA
ENDROOT
BRANCH   1  12
ATOM      7  C   UNL     1      -6.381   3.126  -3.261  0.00  0.00    +0.001 A 
ATOM      8  C   UNL     1      -5.604   4.282  -3.219  0.00  0.00    +0.001 A 
ATOM      9  C   UNL     1      -4.308   4.239  -2.808  0.00  0.00    +0.008 A 
ATOM     10  C   UNL     1      -3.741   3.013  -2.418  0.00  0.00    -0.016 A 
ATOM     11  C   UNL     1      -2.407   2.932  -1.988  0.00  0.00    +0.032 A 
ATOM     12  C   UNL     1      -1.887   1.712  -1.615  0.00  0.00    +0.038 A 
ATOM     13  C   UNL     1      -2.674   0.555  -1.666  0.00  0.00    +0.024 A 
ATOM     14  C   UNL     1      -3.969   0.608  -2.073  0.00  0.00    +0.010 A 
ATOM     15  C   UNL     1      -4.532   1.837  -2.461  0.00  0.00    -0.018 A 
ATOM     16  C   UNL     1      -5.867   1.921  -2.892  0.00  0.00    +0.008 A 
ENDBRANCH   1  12
BRANCH   2  17
ATOM     17  C   UNL     1      -1.127   1.561   1.204  0.00  0.00    +0.014 A 
ATOM     18  C   UNL     1      -1.826   2.737   1.005  0.00  0.00    +0.008 A 
ATOM     19  C   UNL     1      -2.647   3.231   2.001  0.00  0.00    +0.000 A 
ATOM     20  C   UNL     1      -2.770   2.548   3.197  0.00  0.00    +0.002 A 
ATOM     21  C   UNL     1      -2.072   1.372   3.396  0.00  0.00    +0.033 A 
ATOM     22  C   UNL     1      -1.254   0.876   2.398  0.00  0.00    +0.132 A 
BRANCH  22  23
ATOM     23  N   UNL     1      -0.510  -0.387   2.610  0.00  0.00    +0.057 N 
ATOM     24  O   UNL     1      -0.701  -1.044   3.617  0.00  0.00    -0.126 OA
ATOM     25  O   UNL     1       0.291  -0.768   1.776  0.00  0.00    -0.126 OA
ENDBRANCH  22  23
ENDBRANCH   2  17
TORSDOF 3
