REMARK  Name = ZINC39774333
REMARK  2 active torsions:
REMARK  status: ('A' for Active; 'I' for Inactive)
REMARK    1  A    between atoms: C_1  and  C_2
REMARK    2  A    between atoms: N_13  and  N_14
REMARK                            x       y       z     vdW  Elec       q    Type
REMARK                         _______ _______ _______ _____ _____    ______ ____
ROOT
ATOM      1  N   UNL     1       0.034  -3.871  -4.401  0.00  0.00    -0.246 N 
ATOM      2  C   UNL     1       0.024  -3.654  -5.714  0.00  0.00    +0.231 C 
ATOM      3  N   UNL     1       0.008  -2.349  -6.197  0.00  0.00    -0.288 N 
ATOM      4  C   UNL     1       0.654  -2.176  -7.500  0.00  0.00    +0.220 C 
ATOM      5  C   UNL     1       0.178  -3.345  -8.352  0.00  0.00    +0.113 C 
ATOM      6  C   UNL     1      -0.183  -2.790  -9.550  0.00  0.00    +0.025 A 
ATOM      7  C   UNL     1      -0.579  -3.364 -10.779  0.00  0.00    +0.012 A 
ATOM      8  C   UNL     1      -0.896  -2.512 -11.794  0.00  0.00    +0.001 A 
ATOM      9  C   UNL     1      -0.853  -1.119 -11.693  0.00  0.00    +0.002 A 
ATOM     10  C   UNL     1      -0.479  -0.461 -10.563  0.00  0.00    +0.026 A 
ATOM     11  C   UNL     1      -0.110  -1.304  -9.413  0.00  0.00    +0.046 A 
ATOM     12  N   UNL     1       0.296  -0.974  -8.231  0.00  0.00    -0.361 N 
ATOM     13  N   UNL     1       0.024  -4.562  -7.845  0.00  0.00    -0.147 NA
ATOM     14  N   UNL     1       0.035  -4.695  -6.559  0.00  0.00    -0.113 NA
ATOM     15  H   UNL     1       0.353  -0.067  -7.891  0.00  0.00    +0.162 HD
ATOM     16  H   UNL     1      -0.398  -1.615  -5.711  0.00  0.00    +0.151 HD
ATOM     17  H   UNL     1       0.049  -4.778  -4.060  0.00  0.00    +0.192 HD
ENDROOT
BRANCH   1  30
ATOM     18  C   UNL     1      -0.018   1.503   0.010  0.00  0.00    +0.044 C 
ATOM     19  C   UNL     1       0.002  -0.004   0.002  0.00  0.00    -0.049 A 
ATOM     20  C   UNL     1       0.006  -0.686  -1.197  0.00  0.00    +0.015 A 
ATOM     21  C   UNL     1       0.025  -2.079  -1.200  0.00  0.00    +0.030 A 
ATOM     22  C   UNL     1       0.041  -2.790   0.011  0.00  0.00    +0.057 A 
ATOM     23  C   UNL     1       0.037  -2.084   1.208  0.00  0.00    +0.040 A 
ATOM     24  C   UNL     1       0.023  -0.702   1.198  0.00  0.00    +0.020 A 
ATOM     25 BR   UNL     1       0.058  -3.015   2.854  0.00  0.00    -0.048 Br
ATOM     26  N   UNL     1       0.059  -4.153  -0.259  0.00  0.00    -0.279 N 
ATOM     27  C   UNL     1       0.056  -4.390  -1.582  0.00  0.00    +0.269 C 
ATOM     28  O   UNL     1       0.068  -5.485  -2.113  0.00  0.00    -0.268 OA
ATOM     29  C   UNL     1       0.034  -3.089  -2.276  0.00  0.00    +0.155 C 
ATOM     30  N   UNL     1       0.024  -2.873  -3.583  0.00  0.00    -0.166 NA
ATOM     31  H   UNL     1       0.071  -4.845   0.421  0.00  0.00    +0.155 HD
ENDBRANCH   1  30
TORSDOF 1
