REMARK  Name = ZINC36506680
REMARK  8 active torsions:
REMARK  status: ('A' for Active; 'I' for Inactive)
REMARK    1  A    between atoms: C_4  and  C_7
REMARK    2  A    between atoms: C_7  and  C_8
REMARK    3  A    between atoms: N_10  and  C_11
REMARK    4  A    between atoms: N_10  and  C_17
REMARK    5  A    between atoms: C_11  and  C_12
REMARK    6  A    between atoms: C_17  and  C_19
REMARK    7  A    between atoms: C_17  and  C_33
REMARK    8  A    between atoms: N_35  and  C_36
REMARK                            x       y       z     vdW  Elec       q    Type
REMARK                         _______ _______ _______ _____ _____    ______ ____
ROOT
ATOM      1  C   UNL     1       5.606  -1.957   2.954  0.00  0.00    +0.193 C 
ENDROOT
BRANCH   1   2
ATOM      2  C   UNL     1       6.812  -1.092   3.215  0.00  0.00    -0.010 A 
ATOM      3  C   UNL     1       8.025  -1.669   3.338  0.00  0.00    +0.015 A 
ATOM      4  C   UNL     1       9.186  -0.901   3.584  0.00  0.00    -0.017 A 
ATOM      5  C   UNL     1      10.442  -1.511   3.709  0.00  0.00    +0.008 A 
ATOM      6  C   UNL     1      11.546  -0.745   3.946  0.00  0.00    +0.001 A 
ATOM      7  C   UNL     1      11.445   0.636   4.065  0.00  0.00    +0.001 A 
ATOM      8  C   UNL     1      10.236   1.260   3.948  0.00  0.00    +0.009 A 
ATOM      9  C   UNL     1       9.088   0.503   3.705  0.00  0.00    -0.010 A 
ATOM     10  C   UNL     1       7.770   1.131   3.572  0.00  0.00    -0.010 A 
ATOM     11  C   UNL     1       6.649   0.309   3.321  0.00  0.00    -0.012 A 
ATOM     12  C   UNL     1       5.384   0.900   3.187  0.00  0.00    +0.009 A 
ATOM     13  C   UNL     1       5.255   2.254   3.293  0.00  0.00    +0.001 A 
ATOM     14  C   UNL     1       6.362   3.060   3.535  0.00  0.00    +0.001 A 
ATOM     15  C   UNL     1       7.605   2.513   3.682  0.00  0.00    +0.009 A 
ENDBRANCH   1   2
BRANCH   1  16
ATOM     16  C   UNL     1       5.932  -3.388   3.296  0.00  0.00    +0.238 C 
ATOM     17  O   UNL     1       6.045  -4.212   2.412  0.00  0.00    -0.273 OA
ATOM     18  N   UNL     1       6.096  -3.753   4.582  0.00  0.00    -0.311 N 
ATOM     19  H   UNL     1       5.934  -3.113   5.293  0.00  0.00    +0.149 HD
BRANCH  18  20
ATOM     20  C   UNL     1       6.520  -5.117   4.909  0.00  0.00    +0.073 C 
ATOM     21  C   UNL     1       5.296  -6.034   4.958  0.00  0.00    +0.022 C 
ATOM     22  C   UNL     1       5.739  -7.458   5.299  0.00  0.00    +0.002 C 
ATOM     23  C   UNL     1       6.436  -7.463   6.661  0.00  0.00    +0.000 C 
ATOM     24  C   UNL     1       7.660  -6.547   6.611  0.00  0.00    +0.002 C 
ATOM     25  C   UNL     1       7.217  -5.123   6.271  0.00  0.00    +0.022 C 
ENDBRANCH  18  20
ENDBRANCH   1  16
BRANCH   1  28
ATOM     26  C   UNL     1       6.150  -2.131   0.585  0.00  0.00    +0.221 C 
ATOM     27  O   UNL     1       7.279  -2.448   0.897  0.00  0.00    -0.275 OA
ATOM     28  N   UNL     1       5.237  -1.865   1.539  0.00  0.00    -0.278 N 
BRANCH  26  29
ATOM     29  C   UNL     1       5.770  -2.037  -0.870  0.00  0.00    +0.131 C 
BRANCH  29  33
ATOM     30  C   UNL     1       9.148  -3.014  -3.294  0.00  0.00    +0.000 A 
ATOM     31  C   UNL     1       8.276  -4.008  -2.891  0.00  0.00    +0.000 A 
ATOM     32  C   UNL     1       7.183  -3.691  -2.107  0.00  0.00    +0.004 A 
ATOM     33  C   UNL     1       6.962  -2.381  -1.725  0.00  0.00    -0.039 A 
ATOM     34  C   UNL     1       7.835  -1.387  -2.127  0.00  0.00    +0.004 A 
ATOM     35  C   UNL     1       8.927  -1.703  -2.913  0.00  0.00    +0.000 A 
ENDBRANCH  29  33
ENDBRANCH  26  29
BRANCH  28  36
ATOM     36  C   UNL     1       3.874  -1.482   1.162  0.00  0.00    +0.183 C 
BRANCH  36  37
ATOM     37  C   UNL     1       3.021  -2.719   1.037  0.00  0.00    +0.122 A 
ATOM     38  C   UNL     1       2.244  -3.239   2.003  0.00  0.00    +0.046 A 
ATOM     39  C   UNL     1       1.627  -4.389   1.459  0.00  0.00    +0.041 A 
ATOM     40  C   UNL     1       2.065  -4.503   0.192  0.00  0.00    +0.195 A 
ATOM     41  O   UNL     1       2.905  -3.485  -0.060  0.00  0.00    -0.466 OA
ENDBRANCH  36  37
ENDBRANCH  28  36
ENDBRANCH   1  28
TORSDOF 8
