REMARK  Name = ZINC08337051
REMARK  12 active torsions:
REMARK  status: ('A' for Active; 'I' for Inactive)
REMARK    1  A    between atoms: C_1  and  C_2
REMARK    2  A    between atoms: C_2  and  CA_3
REMARK    3  A    between atoms: CA_3  and  C_5
REMARK    4  A    between atoms: CA_3  and  N_47
REMARK    5  A    between atoms: C_5  and  O_6
REMARK    6  A    between atoms: C_7  and  C_8
REMARK    7  A    between atoms: C_7  and  N_47
REMARK    8  A    between atoms: C_11  and  O_16
REMARK    9  A    between atoms: C_12  and  O_14
REMARK   10  A    between atoms: O_14  and  C_15
REMARK   11  A    between atoms: O_16  and  C_17
REMARK   12  A    between atoms: C_17  and  C_18
REMARK                            x       y       z     vdW  Elec       q    Type
REMARK                         _______ _______ _______ _____ _____    ______ ____
ROOT
ATOM      1  C   UNL     1      -0.200   5.198   2.812  0.00  0.00    -0.061 A 
ATOM      2  C   UNL     1      -1.512   5.616   2.685  0.00  0.00    +0.005 A 
ATOM      3  C   UNL     1      -2.259   5.909   3.811  0.00  0.00    +0.049 A 
ATOM      4  C   UNL     1      -1.690   5.794   5.069  0.00  0.00    +0.162 A 
ATOM      5  C   UNL     1      -0.368   5.378   5.196  0.00  0.00    +0.162 A 
ATOM      6  C   UNL     1       0.373   5.082   4.064  0.00  0.00    +0.051 A 
ENDROOT
BRANCH   5   7
ATOM      7  O   UNL     1       0.194   5.263   6.429  0.00  0.00    -0.491 OA
ATOM      8  C   UNL     1       1.555   4.831   6.483  0.00  0.00    +0.277 C 
ENDBRANCH   5   7
BRANCH   1   9
ATOM      9  C   UNL     1       0.608   4.875   1.581  0.00  0.00    -0.046 C 
BRANCH   9  10
ATOM     10  N   UNL     1       0.444   3.445   1.257  0.00  0.00    +0.385 N 
ATOM     11  H1  UNL     1       0.850   2.879   2.011  0.00  0.00    -0.085 HD
ATOM     12  H2  UNL     1      -0.556   3.231   1.168  0.00  0.00    -0.085 HD
BRANCH  10  13
ATOM     13  CA  UNL     1       1.126   3.127  -0.011  0.00  0.00    -0.046 C 
BRANCH  13  15
ATOM     14  C   UNL     1       0.930   3.199  -2.501  0.00  0.00    +0.002 C 
ATOM     15  C   UNL     1       0.181   3.405  -1.182  0.00  0.00    -0.017 C 
ENDBRANCH  13  15
BRANCH  13  16
ATOM     16  C   UNL     1       1.519   1.648  -0.013  0.00  0.00    +0.140 C 
BRANCH  16  17
ATOM     17  O   UNL     1       0.339   0.842   0.003  0.00  0.00    -0.397 OA
ATOM     18  H   UNL     1       0.512  -0.110   0.003  0.00  0.00    +0.209 HD
ENDBRANCH  16  17
ENDBRANCH  13  16
ENDBRANCH  10  13
ENDBRANCH   9  10
ENDBRANCH   1   9
BRANCH   4  19
ATOM     19  O   UNL     1      -2.422   6.085   6.177  0.00  0.00    -0.484 OA
BRANCH  19  20
ATOM     20  C   UNL     1      -3.773   6.506   5.971  0.00  0.00    +0.264 C 
BRANCH  20  21
ATOM     21  C   UNL     1      -4.422   6.783   7.302  0.00  0.00    -0.009 A 
ATOM     22  C   UNL     1      -5.088   5.772   7.970  0.00  0.00    +0.008 A 
ATOM     23  C   UNL     1      -5.679   6.023   9.194  0.00  0.00    +0.022 A 
ATOM     24  C   UNL     1      -5.614   7.290   9.746  0.00  0.00    +0.059 A 
ATOM     25  C   UNL     1      -4.951   8.304   9.075  0.00  0.00    +0.060 A 
ATOM     26  C   UNL     1      -4.356   8.049   7.853  0.00  0.00    +0.028 A 
ATOM     27 CL   UNL     1      -4.868   9.894   9.767  0.00  0.00    -0.082 Cl
ATOM     28 CL   UNL     1      -6.361   7.608  11.280  0.00  0.00    -0.082 Cl
ENDBRANCH  20  21
ENDBRANCH  19  20
ENDBRANCH   4  19
TORSDOF 10
