REMARK  Name = ZINC12881877
REMARK  16 active torsions:
REMARK  status: ('A' for Active; 'I' for Inactive)
REMARK    1  A    between atoms: C_1  and  C_2
REMARK    2  A    between atoms: C_2  and  C_3
REMARK    3  A    between atoms: C_3  and  C_4
REMARK    4  A    between atoms: C_4  and  N_5
REMARK    5  A    between atoms: C_6  and  N_39
REMARK    6  A    between atoms: C_7  and  N_14
REMARK    7  A    between atoms: N_14  and  C_15
REMARK    8  A    between atoms: C_15  and  C_16
REMARK    9  A    between atoms: C_16  and  O_17
REMARK   10  A    between atoms: O_17  and  C_18
REMARK   11  A    between atoms: C_19  and  C_21
REMARK   12  A    between atoms: N_26  and  C_28
REMARK   13  A    between atoms: C_33  and  C_34
REMARK   14  A    between atoms: C_34  and  C_36
REMARK   15  A    between atoms: C_34  and  C_37
REMARK   16  A    between atoms: C_37  and  C_38
REMARK                            x       y       z     vdW  Elec       q    Type
REMARK                         _______ _______ _______ _____ _____    ______ ____
ROOT
ATOM      1  N   UNL     1      -3.192   5.170  -4.340  0.00  0.00    -0.262 N 
ATOM      2  C   UNL     1      -2.334   4.984  -3.315  0.00  0.00    +0.225 C 
ATOM      3  O   UNL     1      -1.151   5.206  -3.466  0.00  0.00    -0.275 OA
ENDROOT
BRANCH   1   6
ATOM      4  N   UNL     1      -1.619   7.103  -7.040  0.00  0.00    -0.280 N 
ATOM      5  C   UNL     1      -2.090   6.768  -5.792  0.00  0.00    +0.127 A 
ATOM      6  C   UNL     1      -2.704   5.545  -5.609  0.00  0.00    +0.140 A 
ATOM      7  C   UNL     1      -2.840   4.682  -6.712  0.00  0.00    +0.277 A 
ATOM      8  O   UNL     1      -3.382   3.598  -6.580  0.00  0.00    -0.266 OA
ATOM      9  N   UNL     1      -2.366   5.061  -7.915  0.00  0.00    -0.273 N 
ATOM     10  H   UNL     1      -2.461   4.448  -8.700  0.00  0.00    +0.173 HD
ATOM     11  C   UNL     1      -1.765   6.254  -8.073  0.00  0.00    +0.331 A 
ATOM     12  O   UNL     1      -1.347   6.571  -9.170  0.00  0.00    -0.246 OA
BRANCH   5  13
ATOM     13  N   UNL     1      -1.946   7.638  -4.738  0.00  0.00    -0.343 N 
ATOM     14  H   UNL     1      -2.216   7.368  -3.846  0.00  0.00    +0.144 HD
ATOM     15  H   UNL     1      -1.574   8.521  -4.886  0.00  0.00    +0.144 HD
ENDBRANCH   5  13
BRANCH   4  16
ATOM     16  C   UNL     1      -0.960   8.395  -7.247  0.00  0.00    +0.128 C 
BRANCH  16  17
ATOM     17  C   UNL     1      -2.004   9.444  -7.631  0.00  0.00    +0.021 C 
BRANCH  17  19
ATOM     18  C   UNL     1      -2.360  11.843  -8.232  0.00  0.00    +0.004 C 
ATOM     19  C   UNL     1      -1.316  10.793  -7.847  0.00  0.00    -0.002 C 
ENDBRANCH  17  19
ENDBRANCH  16  17
ENDBRANCH   4  16
ENDBRANCH   1   6
BRANCH   2  20
ATOM     20  C   UNL     1      -2.846   4.499  -1.983  0.00  0.00    +0.102 C 
ATOM     21  C   UNL     1      -3.109   2.975  -2.013  0.00  0.00    +0.110 C 
ATOM     22  C   UNL     1      -2.686   2.497  -0.641  0.00  0.00    +0.221 C 
ATOM     23  O   UNL     1      -2.981   1.425  -0.157  0.00  0.00    -0.275 OA
ATOM     24  N   UNL     1      -1.937   3.435  -0.035  0.00  0.00    -0.270 N 
ATOM     25  C   UNL     1      -1.752   4.608  -0.898  0.00  0.00    +0.127 C 
BRANCH  24  26
ATOM     26  C   UNL     1      -1.398   3.306   1.249  0.00  0.00    +0.040 A 
ATOM     27  C   UNL     1      -2.121   3.737   2.354  0.00  0.00    +0.024 A 
ATOM     28  C   UNL     1      -1.584   3.614   3.620  0.00  0.00    +0.002 A 
ATOM     29  C   UNL     1      -0.329   3.058   3.789  0.00  0.00    +0.000 A 
ATOM     30  C   UNL     1       0.392   2.624   2.692  0.00  0.00    +0.006 A 
ATOM     31  C   UNL     1      -0.140   2.745   1.423  0.00  0.00    -0.023 A 
BRANCH  31  32
ATOM     32  C   UNL     1       0.647   2.272   0.228  0.00  0.00    +0.017 C 
ATOM     33  C   UNL     1       1.967   3.042   0.149  0.00  0.00    +0.012 C 
BRANCH  32  34
ATOM     34  C   UNL     1       0.937   0.777   0.366  0.00  0.00    +0.004 C 
ATOM     35  C   UNL     1       1.626   0.271  -0.902  0.00  0.00    +0.004 C 
ENDBRANCH  32  34
ENDBRANCH  31  32
ENDBRANCH  24  26
ENDBRANCH   2  20
BRANCH   1  36
ATOM     36  C   UNL     1      -4.630   4.983  -4.134  0.00  0.00    +0.142 C 
BRANCH  36  37
ATOM     37  C   UNL     1      -5.276   6.328  -3.796  0.00  0.00    +0.178 C 
BRANCH  37  38
ATOM     38  O   UNL     1      -5.166   7.205  -4.919  0.00  0.00    -0.381 OA
ATOM     39  C   UNL     1      -5.741   8.496  -4.707  0.00  0.00    +0.194 C 
ENDBRANCH  37  38
ENDBRANCH  36  37
ENDBRANCH   1  36
TORSDOF 12
