REMARK  Name = ZINC01465703
REMARK  8 active torsions:
REMARK  status: ('A' for Active; 'I' for Inactive)
REMARK    1  A    between atoms: C_1  and  C_2
REMARK    2  A    between atoms: C_2  and  O_3
REMARK    3  A    between atoms: O_3  and  C_4
REMARK    4  A    between atoms: C_4  and  C_6
REMARK    5  A    between atoms: C_7  and  C_25
REMARK    6  A    between atoms: C_10  and  N_11
REMARK    7  A    between atoms: C_12  and  C_14
REMARK    8  A    between atoms: C_14  and  C_15
REMARK                            x       y       z     vdW  Elec       q    Type
REMARK                         _______ _______ _______ _____ _____    ______ ____
ROOT
ATOM      1  C   UNL     1      -0.018   1.458   0.010  0.00  0.00    +0.096 A 
ATOM      2  C   UNL     1      -1.264   2.203   0.020  0.00  0.00    +0.012 A 
ATOM      3  C   UNL     1      -1.164   3.558   0.032  0.00  0.00    +0.057 A 
ATOM      4  S   UNL     1       0.594   3.840   0.017  0.00  0.00    -0.080 S 
ATOM      5  C   UNL     1       1.155   2.203   0.003  0.00  0.00    +0.086 A 
ENDROOT
BRANCH   2   6
ATOM      6  C   UNL     1      -2.575   1.521   0.022  0.00  0.00    +0.021 A 
ATOM      7  C   UNL     1      -3.652   1.725   0.842  0.00  0.00    +0.016 A 
ATOM      8  C   UNL     1      -4.783   0.959   0.652  0.00  0.00    +0.008 A 
ATOM      9  C   UNL     1      -4.795   0.031  -0.338  0.00  0.00    +0.046 A 
ATOM     10  S   UNL     1      -3.169   0.223  -1.050  0.00  0.00    -0.097 S 
ENDBRANCH   2   6
BRANCH   5  11
ATOM     11  N   UNL     1       2.462   1.744  -0.012  0.00  0.00    -0.279 N 
ATOM     12  C   UNL     1       3.485   2.622  -0.017  0.00  0.00    +0.222 C 
ATOM     13  O   UNL     1       3.260   3.814  -0.009  0.00  0.00    -0.275 OA
ATOM     14  H   UNL     1       2.642   0.790  -0.019  0.00  0.00    +0.155 HD
BRANCH  12  15
ATOM     15  C   UNL     1       4.906   2.123  -0.034  0.00  0.00    +0.131 C 
BRANCH  15  16
ATOM     16  C   UNL     1       5.851   3.297  -0.036  0.00  0.00    -0.031 A 
ATOM     17  C   UNL     1       6.348   3.772  -1.211  0.00  0.00    +0.005 A 
ATOM     18  C   UNL     1       7.223   4.857  -1.233  0.00  0.00    +0.001 A 
ATOM     19  C   UNL     1       7.604   5.473  -0.081  0.00  0.00    +0.008 A 
ATOM     20  C   UNL     1       7.111   5.011   1.151  0.00  0.00    -0.018 A 
ATOM     21  C   UNL     1       6.218   3.911   1.173  0.00  0.00    -0.014 A 
ATOM     22  C   UNL     1       5.728   3.446   2.406  0.00  0.00    +0.009 A 
ATOM     23  C   UNL     1       6.110   4.062   3.558  0.00  0.00    +0.001 A 
ATOM     24  C   UNL     1       6.986   5.146   3.535  0.00  0.00    +0.001 A 
ATOM     25  C   UNL     1       7.483   5.622   2.361  0.00  0.00    +0.008 A 
ENDBRANCH  15  16
ENDBRANCH  12  15
ENDBRANCH   5  11
BRANCH   1  26
ATOM     26  C   UNL     1       0.002  -0.004   0.002  0.00  0.00    +0.342 C 
ATOM     27  O   UNL     1       0.020  -0.618   1.052  0.00  0.00    -0.245 OA
BRANCH  26  28
ATOM     28  O   UNL     1       0.001  -0.672  -1.170  0.00  0.00    -0.461 OA
BRANCH  28  30
ATOM     29  C   UNL     1       0.016  -2.677  -2.520  0.00  0.00    +0.048 C 
ATOM     30  C   UNL     1       0.021  -2.099  -1.103  0.00  0.00    +0.229 C 
ENDBRANCH  28  30
ENDBRANCH  26  28
ENDBRANCH   1  26
TORSDOF 7
