REMARK  Name = ZINC24201718
REMARK  4 active torsions:
REMARK  status: ('A' for Active; 'I' for Inactive)
REMARK    1  A    between atoms: C_4  and  C_7
REMARK    2  A    between atoms: C_7  and  C_8
REMARK    3  A    between atoms: N_13  and  C_14
REMARK    4  A    between atoms: C_15  and  N_25
REMARK                            x       y       z     vdW  Elec       q    Type
REMARK                         _______ _______ _______ _____ _____    ______ ____
ROOT
ATOM      1  C   UNL     1       3.258   1.325   2.271  0.00  0.00    +0.160 A 
ATOM      2  C   UNL     1       2.476   1.364   3.423  0.00  0.00    +0.230 A 
ATOM      3  C   UNL     1       1.494   2.346   3.536  0.00  0.00    +0.291 A 
ATOM      4  O   UNL     1       0.792   2.407   4.534  0.00  0.00    -0.265 OA
ATOM      5  N   UNL     1       1.329   3.229   2.528  0.00  0.00    -0.266 N 
ATOM      6  C   UNL     1       0.370   4.192   2.630  0.00  0.00    +0.096 A 
ATOM      7  C   UNL     1       0.183   5.089   1.637  0.00  0.00    +0.018 A 
ATOM      8  C   UNL     1       0.977   5.037   0.482  0.00  0.00    +0.005 A 
ATOM      9  C   UNL     1       1.938   4.078   0.369  0.00  0.00    +0.047 A 
ATOM     10  C   UNL     1       2.119   3.154   1.415  0.00  0.00    +0.142 A 
ATOM     11  N   UNL     1       3.061   2.220   1.307  0.00  0.00    -0.212 NA
ENDROOT
BRANCH   1  16
ATOM     12  C   UNL     1       4.080  -0.933   1.454  0.00  0.00    +0.079 C 
ATOM     13  C   UNL     1       5.423  -1.685   1.571  0.00  0.00    +0.024 C 
ATOM     14  C   UNL     1       6.093  -1.010   2.797  0.00  0.00    +0.021 C 
ATOM     15  C   UNL     1       5.625   0.458   2.638  0.00  0.00    +0.107 C 
ATOM     16  N   UNL     1       4.240   0.361   2.132  0.00  0.00    -0.310 N 
BRANCH  12  17
ATOM     17  C   UNL     1       3.736  -0.709  -0.020  0.00  0.00    +0.057 C 
BRANCH  17  21
ATOM     18  C   UNL     1       2.899  -4.465  -1.876  0.00  0.00    +0.000 A 
ATOM     19  C   UNL     1       1.902  -3.794  -1.192  0.00  0.00    +0.000 A 
ATOM     20  C   UNL     1       2.173  -2.579  -0.592  0.00  0.00    +0.004 A 
ATOM     21  C   UNL     1       3.441  -2.035  -0.674  0.00  0.00    -0.046 A 
ATOM     22  C   UNL     1       4.439  -2.706  -1.357  0.00  0.00    +0.004 A 
ATOM     23  C   UNL     1       4.167  -3.920  -1.958  0.00  0.00    +0.000 A 
ENDBRANCH  17  21
ENDBRANCH  12  17
ENDBRANCH   1  16
BRANCH   2  24
ATOM     24  N   UNL     1       2.685   0.380   4.509  0.00  0.00    +0.065 N 
ATOM     25  O   UNL     1       3.468  -0.529   4.359  0.00  0.00    -0.126 OA
ATOM     26  O   UNL     1       2.072   0.484   5.546  0.00  0.00    -0.126 OA
ENDBRANCH   2  24
TORSDOF 4
