REMARK  Name = ZINC33808814
REMARK  6 active torsions:
REMARK  status: ('A' for Active; 'I' for Inactive)
REMARK    1  A    between atoms: C_1  and  C_2
REMARK    2  A    between atoms: C_5  and  C_22
REMARK    3  A    between atoms: C_6  and  C_7
REMARK    4  A    between atoms: C_6  and  C_8
REMARK    5  A    between atoms: N_24  and  N_25
REMARK    6  A    between atoms: C_26  and  C_28
REMARK                            x       y       z     vdW  Elec       q    Type
REMARK                         _______ _______ _______ _____ _____    ______ ____
ROOT
ATOM      1  C   UNL     1      -0.019   1.526   0.010  0.00  0.00    +0.018 C 
ATOM      2  C   UNL     1       0.002  -0.004   0.002  0.00  0.00    +0.018 C 
ATOM      3  C   UNL     1      -1.388  -0.713   0.060  0.00  0.00    +0.015 C 
ATOM      4  C   UNL     1      -1.055  -2.158   0.500  0.00  0.00    +0.024 C 
ATOM      5  C   UNL     1       0.498  -2.159   0.659  0.00  0.00    +0.098 C 
ATOM      6  C   UNL     1       0.727  -0.704   1.210  0.00  0.00    -0.005 C 
ATOM      7  C   UNL     1      -0.005  -0.481   2.535  0.00  0.00    +0.013 C 
ATOM      8  C   UNL     1       2.205  -0.323   1.301  0.00  0.00    +0.013 C 
ATOM      9  C   UNL     1       1.024  -1.990  -0.768  0.00  0.00    +0.079 A 
ATOM     10  C   UNL     1       0.736  -0.664  -1.168  0.00  0.00    +0.071 A 
ATOM     11  N   UNL     1       1.070  -0.222  -2.353  0.00  0.00    -0.248 NA
ATOM     12  C   UNL     1       1.723  -1.028  -3.198  0.00  0.00    +0.093 A 
ATOM     13  C   UNL     1       2.092  -0.585  -4.479  0.00  0.00    +0.079 A 
ATOM     14  C   UNL     1       2.764  -1.423  -5.322  0.00  0.00    +0.168 A 
ATOM     15  C   UNL     1       3.092  -2.731  -4.922  0.00  0.00    +0.168 A 
ATOM     16  C   UNL     1       2.741  -3.190  -3.686  0.00  0.00    +0.079 A 
ATOM     17  C   UNL     1       2.047  -2.350  -2.798  0.00  0.00    +0.093 A 
ATOM     18  N   UNL     1       1.649  -2.809  -1.574  0.00  0.00    -0.247 NA
ATOM     19  O   UNL     1       3.759  -3.339  -5.946  0.00  0.00    -0.453 OA
ATOM     20  C   UNL     1       3.472  -2.550  -7.115  0.00  0.00    +0.466 C 
ATOM     21  O   UNL     1       3.225  -1.232  -6.593  0.00  0.00    -0.453 OA
ENDROOT
BRANCH   5  22
ATOM     22  C   UNL     1       1.083  -3.286   1.471  0.00  0.00    +0.242 C 
ATOM     23  O   UNL     1       1.708  -3.044   2.482  0.00  0.00    -0.273 OA
ATOM     24  N   UNL     1       0.912  -4.562   1.074  0.00  0.00    -0.233 N 
ATOM     25  H   UNL     1       0.412  -4.756   0.265  0.00  0.00    +0.173 HD
BRANCH  24  26
ATOM     26  N   UNL     1       1.456  -5.610   1.829  0.00  0.00    -0.230 N 
ATOM     27  C   UNL     1       1.285  -6.886   1.431  0.00  0.00    +0.262 C 
ATOM     28  O   UNL     1       0.658  -7.129   0.418  0.00  0.00    -0.269 OA
ATOM     29  H   UNL     1       1.956  -5.417   2.637  0.00  0.00    +0.173 HD
BRANCH  27  30
ATOM     30  C   UNL     1       1.859  -7.991   2.227  0.00  0.00    +0.056 A 
ATOM     31  C   UNL     1       2.574  -7.717   3.395  0.00  0.00    +0.014 A 
ATOM     32  C   UNL     1       3.107  -8.752   4.133  0.00  0.00    +0.001 A 
ATOM     33  C   UNL     1       2.935 -10.062   3.720  0.00  0.00    +0.001 A 
ATOM     34  C   UNL     1       2.228 -10.343   2.565  0.00  0.00    +0.021 A 
ATOM     35  C   UNL     1       1.683  -9.316   1.818  0.00  0.00    +0.053 A 
ATOM     36 CL   UNL     1       0.789  -9.669   0.373  0.00  0.00    -0.083 Cl
ENDBRANCH  27  30
ENDBRANCH  24  26
ENDBRANCH   5  22
TORSDOF 3
