REMARK  Name = ZINC28632367
REMARK  7 active torsions:
REMARK  status: ('A' for Active; 'I' for Inactive)
REMARK    1  A    between atoms: C_1  and  C_2
REMARK    2  A    between atoms: C_2  and  C_3
REMARK    3  A    between atoms: C_2  and  C_4
REMARK    4  A    between atoms: C_7  and  C_10
REMARK    5  A    between atoms: N_11  and  N_12
REMARK    6  A    between atoms: C_13  and  C_15
REMARK    7  A    between atoms: C_17  and  C_23
REMARK                            x       y       z     vdW  Elec       q    Type
REMARK                         _______ _______ _______ _____ _____    ______ ____
ROOT
ATOM      1  N   UNL     1       4.115   0.661   5.316  0.00  0.00    -0.206 N 
ATOM      2  C   UNL     1       5.437   0.914   5.386  0.00  0.00    +0.245 C 
ATOM      3  O   UNL     1       6.096   0.453   6.294  0.00  0.00    -0.273 OA
ATOM      4  H   UNL     1       3.518   1.080   4.494  0.00  0.00    +0.177 HD
ENDROOT
BRANCH   2   5
ATOM      5  C   UNL     1       6.096   1.772   4.337  0.00  0.00    +0.171 C 
ATOM      6  C   UNL     1       6.081   3.258   4.764  0.00  0.00    +0.057 C 
ATOM      7  C   UNL     1       7.457   3.403   5.451  0.00  0.00    +0.113 C 
ATOM      8  N   UNL     1       8.305   2.366   4.851  0.00  0.00    -0.314 N 
ATOM      9  C   UNL     1       7.566   1.434   4.224  0.00  0.00    +0.226 C 
ATOM     10  O   UNL     1       8.014   0.463   3.651  0.00  0.00    -0.275 OA
ATOM     11  H   UNL     1       9.399   2.424   4.952  0.00  0.00    +0.149 HD
BRANCH   6  12
ATOM     12  C   UNL     1       4.962   3.528   5.737  0.00  0.00    -0.042 A 
ATOM     13  C   UNL     1       3.714   3.898   5.270  0.00  0.00    +0.004 A 
ATOM     14  C   UNL     1       2.686   4.141   6.162  0.00  0.00    +0.000 A 
ATOM     15  C   UNL     1       2.909   4.023   7.521  0.00  0.00    +0.000 A 
ATOM     16  C   UNL     1       4.157   3.658   7.988  0.00  0.00    +0.000 A 
ATOM     17  C   UNL     1       5.184   3.410   7.096  0.00  0.00    +0.004 A 
ENDBRANCH   6  12
ENDBRANCH   2   5
BRANCH   1  19
ATOM     18  C   UNL     1       2.257  -0.475   6.164  0.00  0.00    +0.138 C 
ATOM     19  N   UNL     1       3.502  -0.137   6.292  0.00  0.00    -0.188 NA
BRANCH  18  23
ATOM     20  C   UNL     1       0.497  -0.677   2.307  0.00  0.00    -0.045 A 
ATOM     21  C   UNL     1      -0.309  -0.666   3.431  0.00  0.00    +0.004 A 
ATOM     22  C   UNL     1       0.256  -0.606   4.688  0.00  0.00    +0.010 A 
ATOM     23  C   UNL     1       1.645  -0.546   4.824  0.00  0.00    -0.005 A 
ATOM     24  C   UNL     1       2.453  -0.552   3.684  0.00  0.00    +0.010 A 
ATOM     25  C   UNL     1       1.874  -0.617   2.433  0.00  0.00    +0.004 A 
BRANCH  20  27
ATOM     26  C   UNL     1      -1.045   0.458   0.731  0.00  0.00    +0.012 C 
ATOM     27  C   UNL     1      -0.127  -0.749   0.937  0.00  0.00    +0.013 C 
ATOM     28  C   UNL     1      -0.944  -2.037   0.816  0.00  0.00    +0.012 C 
ENDBRANCH  20  27
ENDBRANCH  18  23
ENDBRANCH   1  19
TORSDOF 5
