REMARK  Name = ZINC21237769
REMARK  11 active torsions:
REMARK  status: ('A' for Active; 'I' for Inactive)
REMARK    1  A    between atoms: C_1  and  C_2
REMARK    2  A    between atoms: C_2  and  C_26
REMARK    3  A    between atoms: N_5  and  C_9
REMARK    4  A    between atoms: C_9  and  C_10
REMARK    5  A    between atoms: C_10  and  C_12
REMARK    6  A    between atoms: N_21  and  S_22
REMARK    7  A    between atoms: S_22  and  C_25
REMARK    8  A    between atoms: C_29  and  C_32
REMARK    9  A    between atoms: C_32  and  C_33
REMARK   10  A    between atoms: C_32  and  C_34
REMARK   11  A    between atoms: C_32  and  C_35
REMARK                            x       y       z     vdW  Elec       q    Type
REMARK                         _______ _______ _______ _____ _____    ______ ____
ROOT
ATOM      1  C   UNL     1       5.417   0.254  -1.647  0.00  0.00    +0.047 C 
ATOM      2  C   UNL     1       4.088  -0.265  -1.094  0.00  0.00    +0.135 C 
ATOM      3  C   UNL     1       2.947   0.644  -1.507  0.00  0.00    +0.251 C 
ATOM      4  O   UNL     1       2.581   0.893  -2.636  0.00  0.00    -0.272 OA
ATOM      5  N   UNL     1       2.425   1.118  -0.359  0.00  0.00    -0.216 N 
ATOM      6  C   UNL     1       3.073   0.643   0.711  0.00  0.00    +0.310 C 
ATOM      7  O   UNL     1       2.787   0.930   1.857  0.00  0.00    -0.252 OA
ATOM      8  N   UNL     1       4.074  -0.192   0.377  0.00  0.00    -0.281 N 
ATOM      9  H   UNL     1       4.806  -0.766   0.963  0.00  0.00    +0.152 HD
ENDROOT
BRANCH   2  10
ATOM     10  C   UNL     1       3.834  -1.677  -1.557  0.00  0.00    -0.015 A 
ATOM     11  C   UNL     1       3.095  -1.907  -2.703  0.00  0.00    +0.006 A 
ATOM     12  C   UNL     1       2.867  -3.201  -3.130  0.00  0.00    +0.004 A 
ATOM     13  C   UNL     1       3.369  -4.267  -2.406  0.00  0.00    -0.042 A 
ATOM     14  C   UNL     1       4.103  -4.037  -1.257  0.00  0.00    +0.004 A 
ATOM     15  C   UNL     1       4.336  -2.742  -0.833  0.00  0.00    +0.006 A 
BRANCH  13  16
ATOM     16  C   UNL     1       3.115  -5.678  -2.868  0.00  0.00    -0.013 C 
ATOM     17  C   UNL     1       2.352  -6.441  -1.783  0.00  0.00    +0.015 C 
ATOM     18  C   UNL     1       2.284  -5.652  -4.153  0.00  0.00    +0.015 C 
ATOM     19  C   UNL     1       4.450  -6.375  -3.137  0.00  0.00    +0.015 C 
ENDBRANCH  13  16
ENDBRANCH   2  10
BRANCH   5  20
ATOM     20  C   UNL     1       1.291   2.043  -0.290  0.00  0.00    +0.197 C 
BRANCH  20  21
ATOM     21  C   UNL     1       0.006   1.259  -0.221  0.00  0.00    +0.181 C 
ATOM     22  O   UNL     1       0.034   0.046  -0.228  0.00  0.00    -0.290 OA
BRANCH  21  23
ATOM     23  C   UNL     1      -1.280   1.962  -0.151  0.00  0.00    +0.019 A 
ATOM     24  C   UNL     1      -1.316   3.363  -0.143  0.00  0.00    +0.013 A 
ATOM     25  C   UNL     1      -2.515   4.009  -0.076  0.00  0.00    +0.026 A 
ATOM     26  C   UNL     1      -3.704   3.281  -0.018  0.00  0.00    +0.054 A 
ATOM     27  C   UNL     1      -3.676   1.891  -0.028  0.00  0.00    -0.024 A 
ATOM     28  C   UNL     1      -2.475   1.236  -0.098  0.00  0.00    +0.017 A 
ATOM     29  C   UNL     1      -4.943   1.078   0.029  0.00  0.00    +0.038 C 
ATOM     30  C   UNL     1      -6.091   1.917   0.591  0.00  0.00    +0.025 C 
ATOM     31  C   UNL     1      -6.164   3.238  -0.185  0.00  0.00    +0.131 C 
ATOM     32  N   UNL     1      -4.912   3.969   0.053  0.00  0.00    -0.207 N 
BRANCH  32  33
ATOM     33  S   UNL     1      -4.938   5.588   0.402  0.00  0.00    +0.043 S 
ATOM     34  O   UNL     1      -6.272   5.849   0.814  0.00  0.00    -0.155 OA
ATOM     35  O   UNL     1      -3.852   5.783   1.297  0.00  0.00    -0.155 OA
ATOM     36  C   UNL     1      -4.600   6.410  -1.179  0.00  0.00    +0.218 C 
ENDBRANCH  32  33
ENDBRANCH  21  23
ENDBRANCH  20  21
ENDBRANCH   5  20
TORSDOF 6
