REMARK  Name = ZINC00120841
REMARK  9 active torsions:
REMARK  status: ('A' for Active; 'I' for Inactive)
REMARK    1  A    between atoms: C_1  and  C_2
REMARK    2  A    between atoms: C_2  and  C_3
REMARK    3  A    between atoms: C_3  and  S_4
REMARK    4  A    between atoms: S_4  and  C_7
REMARK    5  A    between atoms: C_8  and  C_22
REMARK    6  A    between atoms: C_9  and  C_21
REMARK    7  A    between atoms: N_10  and  C_13
REMARK    8  A    between atoms: C_11  and  N_12
REMARK    9  A    between atoms: C_13  and  C_14
REMARK                            x       y       z     vdW  Elec       q    Type
REMARK                         _______ _______ _______ _____ _____    ______ ____
ROOT
ATOM      1  C   UNL     1       0.082   1.024   2.841  0.00  0.00    +0.130 A 
ATOM      2  C   UNL     1       1.172   1.655   3.475  0.00  0.00    -0.003 A 
ATOM      3  C   UNL     1       1.609   0.831   4.446  0.00  0.00    +0.022 A 
ATOM      4  N   UNL     1       0.827  -0.295   4.439  0.00  0.00    -0.327 N 
ATOM      5  C   UNL     1      -0.111  -0.168   3.456  0.00  0.00    +0.122 A 
ATOM      6  C   UNL     1       2.761   1.100   5.380  0.00  0.00    +0.064 C 
ATOM      7  C   UNL     1       1.744   3.006   3.128  0.00  0.00    +0.047 C 
ENDROOT
BRANCH   1   8
ATOM      8  S   UNL     1      -0.862   1.671   1.500  0.00  0.00    +0.000 S 
ATOM      9  O   UNL     1      -0.735   3.082   1.615  0.00  0.00    -0.169 OA
ATOM     10  O   UNL     1      -2.133   1.046   1.617  0.00  0.00    -0.169 OA
BRANCH   8  11
ATOM     11  C   UNL     1      -0.013   1.086   0.008  0.00  0.00    +0.172 C 
BRANCH  11  13
ATOM     12  C   UNL     1      -0.037   1.099  -2.490  0.00  0.00    +0.005 C 
ATOM     13  C   UNL     1      -0.753   1.593  -1.232  0.00  0.00    +0.020 C 
ENDBRANCH  11  13
ENDBRANCH   8  11
ENDBRANCH   1   8
BRANCH   5  14
ATOM     14  N   UNL     1      -1.096  -1.104   3.138  0.00  0.00    -0.343 N 
ATOM     15  H   UNL     1      -1.720  -0.925   2.418  0.00  0.00    +0.144 HD
ATOM     16  H   UNL     1      -1.156  -1.934   3.637  0.00  0.00    +0.144 HD
ENDBRANCH   5  14
BRANCH   4  17
ATOM     17  C   UNL     1       0.971  -1.441   5.341  0.00  0.00    +0.158 C 
BRANCH  17  18
ATOM     18  C   UNL     1       0.129  -1.220   6.572  0.00  0.00    -0.026 A 
ATOM     19  C   UNL     1       0.671  -0.586   7.675  0.00  0.00    +0.005 A 
ATOM     20  C   UNL     1      -0.102  -0.379   8.802  0.00  0.00    +0.002 A 
ATOM     21  C   UNL     1      -1.413  -0.815   8.831  0.00  0.00    +0.020 A 
ATOM     22  C   UNL     1      -1.954  -1.455   7.730  0.00  0.00    +0.041 A 
ATOM     23  C   UNL     1      -1.181  -1.657   6.600  0.00  0.00    +0.025 A 
ATOM     24 CL   UNL     1      -3.600  -2.003   7.766  0.00  0.00    -0.084 Cl
ENDBRANCH  17  18
ENDBRANCH   4  17
TORSDOF 6
