REMARK  Name = ZINC05793598
REMARK  6 active torsions:
REMARK  status: ('A' for Active; 'I' for Inactive)
REMARK    1  A    between atoms: C_1  and  C_2
REMARK    2  A    between atoms: C_5  and  S_9
REMARK    3  A    between atoms: C_6  and  C_8
REMARK    4  A    between atoms: S_9  and  N_12
REMARK    5  A    between atoms: C_14  and  C_21
REMARK    6  A    between atoms: C_17  and  C_20
REMARK                            x       y       z     vdW  Elec       q    Type
REMARK                         _______ _______ _______ _____ _____    ______ ____
ROOT
ATOM      1  S   UNL     1      -0.042   1.263  -0.093  0.00  0.00    +0.061 S 
ATOM      2  O   UNL     1       0.075   2.430   0.709  0.00  0.00    -0.153 OA
ATOM      3  O   UNL     1      -0.653   0.071   0.380  0.00  0.00    -0.153 OA
ENDROOT
BRANCH   1   8
ATOM      4  C   UNL     1       5.552  -0.226  -1.796  0.00  0.00    +0.044 C 
ATOM      5  C   UNL     1       4.155   0.145  -1.370  0.00  0.00    -0.050 A 
ATOM      6  C   UNL     1       3.952   1.225  -0.530  0.00  0.00    +0.005 A 
ATOM      7  C   UNL     1       2.671   1.566  -0.140  0.00  0.00    +0.029 A 
ATOM      8  C   UNL     1       1.592   0.828  -0.590  0.00  0.00    +0.108 A 
ATOM      9  C   UNL     1       1.795  -0.254  -1.426  0.00  0.00    -0.024 A 
ATOM     10  C   UNL     1       3.076  -0.593  -1.819  0.00  0.00    +0.008 A 
ATOM     11  C   UNL     1       0.619  -1.062  -1.911  0.00  0.00    +0.046 C 
ENDBRANCH   1   8
BRANCH   1  12
ATOM     12  N   UNL     1      -0.867   1.708  -1.458  0.00  0.00    -0.176 NA
ATOM     13  C   UNL     1      -1.736   0.749  -2.154  0.00  0.00    +0.112 C 
ATOM     14  C   UNL     1      -3.129   1.376  -2.311  0.00  0.00    +0.002 C 
ATOM     15  C   UNL     1      -2.997   2.729  -3.014  0.00  0.00    +0.009 C 
ATOM     16  C   UNL     1      -2.140   3.667  -2.162  0.00  0.00    +0.002 C 
ATOM     17  C   UNL     1      -0.740   3.068  -2.000  0.00  0.00    +0.112 C 
ATOM     18  C   UNL     1      -2.785   3.838  -0.784  0.00  0.00    +0.009 C 
ATOM     19  C   UNL     1      -4.013   0.449  -3.148  0.00  0.00    +0.009 C 
ENDBRANCH   1  12
TORSDOF 2
