REMARK  Name = ZINC59100522
REMARK  11 active torsions:
REMARK  status: ('A' for Active; 'I' for Inactive)
REMARK    1  A    between atoms: C_1  and  C_2
REMARK    2  A    between atoms: C_7  and  C_8
REMARK    3  A    between atoms: C_8  and  N_9
REMARK    4  A    between atoms: N_9  and  C_10
REMARK    5  A    between atoms: N_9  and  C_19
REMARK    6  A    between atoms: C_10  and  C_12
REMARK    7  A    between atoms: C_10  and  C_13
REMARK    8  A    between atoms: C_19  and  N_21
REMARK    9  A    between atoms: N_21  and  C_22
REMARK   10  A    between atoms: C_24  and  C_29
REMARK   11  A    between atoms: C_26  and  C_28
REMARK                            x       y       z     vdW  Elec       q    Type
REMARK                         _______ _______ _______ _____ _____    ______ ____
ROOT
ATOM      1  N   UNL     1      -0.974   0.353   2.705  0.00  0.00    -0.301 N 
ENDROOT
BRANCH   1   2
ATOM      2  C   UNL     1      -2.167  -0.206   3.346  0.00  0.00    +0.103 C 
ATOM      3  C   UNL     1      -1.917  -1.674   3.696  0.00  0.00    +0.033 C 
BRANCH   2   4
ATOM      4  C   UNL     1      -2.470   0.566   4.604  0.00  0.00    -0.027 A 
ATOM      5  C   UNL     1      -1.480   1.316   5.210  0.00  0.00    +0.005 A 
ATOM      6  C   UNL     1      -1.758   2.024   6.365  0.00  0.00    +0.000 A 
ATOM      7  C   UNL     1      -3.027   1.982   6.912  0.00  0.00    +0.000 A 
ATOM      8  C   UNL     1      -4.017   1.233   6.306  0.00  0.00    +0.000 A 
ATOM      9  C   UNL     1      -3.740   0.528   5.149  0.00  0.00    +0.005 A 
ENDBRANCH   2   4
ENDBRANCH   1   2
BRANCH   1  10
ATOM     10  C   UNL     1      -1.011   1.592   2.177  0.00  0.00    +0.138 C 
ATOM     11  S   UNL     1      -2.404   2.567   2.378  0.00  0.00    -0.018 S 
BRANCH  10  12
ATOM     12  N   UNL     1       0.049   2.064   1.491  0.00  0.00    -0.297 N 
ATOM     13  H   UNL     1       0.675   2.668   1.920  0.00  0.00    +0.154 HD
BRANCH  12  14
ATOM     14  C   UNL     1       0.245   1.683   0.159  0.00  0.00    +0.033 A 
ATOM     15  C   UNL     1      -0.696   0.892  -0.485  0.00  0.00    +0.026 A 
ATOM     16  C   UNL     1      -0.500   0.518  -1.800  0.00  0.00    -0.048 A 
ATOM     17  C   UNL     1       0.634   0.931  -2.475  0.00  0.00    +0.006 A 
ATOM     18  C   UNL     1       1.574   1.720  -1.837  0.00  0.00    -0.048 A 
ATOM     19  C   UNL     1       1.380   2.102  -0.524  0.00  0.00    +0.026 A 
ATOM     20  C   UNL     1       2.808   2.167  -2.577  0.00  0.00    +0.044 C 
ATOM     21  C   UNL     1      -1.521  -0.341  -2.499  0.00  0.00    +0.044 C 
ENDBRANCH  12  14
ENDBRANCH  10  12
ENDBRANCH   1  10
BRANCH   1  22
ATOM     22  C   UNL     1       0.259  -0.435   2.640  0.00  0.00    +0.142 C 
BRANCH  22  29
ATOM     23  C   UNL     1       0.488  -0.619   5.514  0.00  0.00    +0.044 C 
ATOM     24  C   UNL     1       1.473   0.211   4.731  0.00  0.00    -0.046 A 
ATOM     25  C   UNL     1       2.489   0.880   5.388  0.00  0.00    +0.003 A 
ATOM     26  C   UNL     1       3.392   1.641   4.671  0.00  0.00    +0.000 A 
ATOM     27  C   UNL     1       3.280   1.733   3.296  0.00  0.00    +0.000 A 
ATOM     28  C   UNL     1       2.264   1.064   2.639  0.00  0.00    +0.005 A 
ATOM     29  C   UNL     1       1.363   0.299   3.356  0.00  0.00    -0.027 A 
ENDBRANCH  22  29
ENDBRANCH   1  22
TORSDOF 7
