REMARK  Name = ZINC19647230
REMARK  2 active torsions:
REMARK  status: ('A' for Active; 'I' for Inactive)
REMARK    1  A    between atoms: C_7  and  C_11
REMARK    2  A    between atoms: C_16  and  C_21
REMARK                            x       y       z     vdW  Elec       q    Type
REMARK                         _______ _______ _______ _____ _____    ______ ____
ROOT
ATOM      1  C   UNL     1      -2.497   1.025  -0.008  0.00  0.00    +0.158 C 
ATOM      2  C   UNL     1      -1.251   1.883   0.018  0.00  0.00    +0.039 C 
ATOM      3  C   UNL     1      -1.306   3.230   0.061  0.00  0.00    +0.020 C 
ATOM      4  C   UNL     1      -0.043   4.058   0.086  0.00  0.00    +0.060 C 
ATOM      5  C   UNL     1       1.068   3.325  -0.668  0.00  0.00    +0.032 C 
ATOM      6  C   UNL     1       1.287   1.964   0.000  0.00  0.00    +0.088 C 
ATOM      7  C   UNL     1      -0.014   1.211   0.009  0.00  0.00    +0.164 C 
ATOM      8  O   UNL     1       0.002  -0.004   0.002  0.00  0.00    -0.292 OA
ATOM      9  N   UNL     1      -2.502   3.907   0.085  0.00  0.00    -0.290 N 
ATOM     10  C   UNL     1      -3.650   3.197   0.392  0.00  0.00    +0.179 A 
ATOM     11  N   UNL     1      -3.665   1.821   0.357  0.00  0.00    -0.301 N 
ATOM     12  C   UNL     1      -4.922   1.422   0.713  0.00  0.00    +0.069 A 
ATOM     13  C   UNL     1      -5.512   0.172   0.854  0.00  0.00    +0.028 A 
ATOM     14  C   UNL     1      -6.843   0.142   1.238  0.00  0.00    +0.002 A 
ATOM     15  C   UNL     1      -7.564   1.299   1.476  0.00  0.00    +0.002 A 
ATOM     16  C   UNL     1      -7.000   2.555   1.344  0.00  0.00    +0.028 A 
ATOM     17  C   UNL     1      -5.657   2.610   0.956  0.00  0.00    +0.066 A 
ATOM     18  N   UNL     1      -4.824   3.648   0.740  0.00  0.00    -0.327 N 
ATOM     19  H   UNL     1      -2.529   4.984  -0.135  0.00  0.00    +0.155 HD
ATOM     20  H   UNL     1      -4.997   4.732   0.816  0.00  0.00    +0.169 HD
ENDROOT
BRANCH   1  27
ATOM     21  C   UNL     1      -2.658  -3.331  -1.733  0.00  0.00    +0.001 A 
ATOM     22  C   UNL     1      -2.852  -3.361  -3.107  0.00  0.00    +0.002 A 
ATOM     23  C   UNL     1      -2.976  -2.192  -3.825  0.00  0.00    +0.026 A 
ATOM     24  C   UNL     1      -2.907  -0.968  -3.169  0.00  0.00    +0.047 A 
ATOM     25  C   UNL     1      -2.704  -0.942  -1.777  0.00  0.00    +0.005 A 
ATOM     26  C   UNL     1      -2.586  -2.139  -1.068  0.00  0.00    +0.010 A 
ATOM     27  C   UNL     1      -2.683   0.473  -1.398  0.00  0.00    +0.005 A 
ATOM     28  C   UNL     1      -2.856   1.184  -2.523  0.00  0.00    +0.089 A 
ATOM     29  N   UNL     1      -2.992   0.340  -3.592  0.00  0.00    -0.360 N 
ATOM     30  H   UNL     1      -3.147   0.565  -4.657  0.00  0.00    +0.165 HD
ENDBRANCH   1  27
BRANCH   5  31
ATOM     31  C   UNL     1       2.340   4.131  -0.609  0.00  0.00    -0.043 A 
ATOM     32  C   UNL     1       2.896   4.454   0.615  0.00  0.00    +0.007 A 
ATOM     33  C   UNL     1       4.066   5.188   0.671  0.00  0.00    +0.038 A 
ATOM     34  C   UNL     1       4.675   5.609  -0.499  0.00  0.00    +0.123 A 
ATOM     35  C   UNL     1       4.114   5.290  -1.724  0.00  0.00    +0.038 A 
ATOM     36  C   UNL     1       2.947   4.551  -1.778  0.00  0.00    +0.007 A 
ATOM     37  F   UNL     1       5.815   6.332  -0.446  0.00  0.00    -0.205 F 
ENDBRANCH   5  31
TORSDOF 2
