REMARK  Name = ZINC40254794
REMARK  5 active torsions:
REMARK  status: ('A' for Active; 'I' for Inactive)
REMARK    1  A    between atoms: C_1  and  C_2
REMARK    2  A    between atoms: C_2  and  C_3
REMARK    3  A    between atoms: C_6  and  C_9
REMARK    4  A    between atoms: C_9  and  C_11
REMARK    5  A    between atoms: C_9  and  O_22
REMARK                            x       y       z     vdW  Elec       q    Type
REMARK                         _______ _______ _______ _____ _____    ______ ____
ROOT
ATOM      1  C   UNL     1      -5.419  -2.005   0.043  0.00  0.00    +0.188 C 
ENDROOT
BRANCH   1   2
ATOM      2  C   UNL     1      -5.400  -3.529  -0.085  0.00  0.00    +0.244 C 
ATOM      3  C   UNL     1      -6.837  -4.069  -0.060  0.00  0.00    +0.276 C 
ATOM      4  O   UNL     1      -6.782  -5.495  -0.168  0.00  0.00    -0.485 OA
ATOM      5  C   UNL     1      -5.880  -6.134   0.626  0.00  0.00    +0.162 A 
ATOM      6  C   UNL     1      -6.013  -7.497   0.847  0.00  0.00    +0.049 A 
ATOM      7  C   UNL     1      -5.103  -8.160   1.648  0.00  0.00    +0.004 A 
ATOM      8  C   UNL     1      -4.058  -7.468   2.231  0.00  0.00    +0.004 A 
ATOM      9  C   UNL     1      -3.921  -6.109   2.016  0.00  0.00    +0.049 A 
ATOM     10  C   UNL     1      -4.832  -5.437   1.215  0.00  0.00    +0.163 A 
ATOM     11  O   UNL     1      -4.688  -4.098   1.019  0.00  0.00    -0.479 OA
ENDBRANCH   1   2
BRANCH   1  15
ATOM     12  C   UNL     1      -1.412  -0.526   0.013  0.00  0.00    -0.048 A 
ATOM     13  C   UNL     1      -2.051  -0.766   1.215  0.00  0.00    +0.004 A 
ATOM     14  C   UNL     1      -3.348  -1.244   1.225  0.00  0.00    +0.006 A 
ATOM     15  C   UNL     1      -4.006  -1.482   0.032  0.00  0.00    -0.015 A 
ATOM     16  C   UNL     1      -3.367  -1.241  -1.170  0.00  0.00    +0.006 A 
ATOM     17  C   UNL     1      -2.072  -0.758  -1.179  0.00  0.00    +0.004 A 
BRANCH  12  19
ATOM     18  C   UNL     1      -0.019   1.526   0.010  0.00  0.00    +0.009 C 
ATOM     19  C   UNL     1       0.002  -0.004   0.002  0.00  0.00    +0.032 C 
ENDBRANCH  12  19
ENDBRANCH   1  15
BRANCH   1  20
ATOM     20  O   UNL     1      -6.143  -1.443  -1.054  0.00  0.00    -0.383 OA
ATOM     21  H   UNL     1      -5.768  -1.652  -1.920  0.00  0.00    +0.210 HD
ENDBRANCH   1  20
TORSDOF 4
