REMARK  Name = ZINC45606871
REMARK  7 active torsions:
REMARK  status: ('A' for Active; 'I' for Inactive)
REMARK    1  A    between atoms: C_1  and  C_2
REMARK    2  A    between atoms: C_2  and  C_4
REMARK    3  A    between atoms: C_2  and  N_13
REMARK    4  A    between atoms: C_4  and  C_5
REMARK    5  A    between atoms: C_5  and  C_6
REMARK    6  A    between atoms: C_9  and  O_12
REMARK    7  A    between atoms: N_19  and  C_22
REMARK                            x       y       z     vdW  Elec       q    Type
REMARK                         _______ _______ _______ _____ _____    ______ ____
ROOT
ATOM      1  N   UNL     1      -1.364  -0.530  -0.005  0.00  0.00    -0.297 N 
ATOM      2  C   UNL     1      -2.051  -0.642  -1.158  0.00  0.00    +0.303 C 
ATOM      3  O   UNL     1      -1.565  -0.238  -2.197  0.00  0.00    -0.253 OA
ATOM      4  N   UNL     1      -3.277  -1.202  -1.161  0.00  0.00    -0.283 N 
ATOM      5  C   UNL     1      -3.929  -1.581   0.101  0.00  0.00    +0.128 C 
ATOM      6  C   UNL     1      -5.299  -0.897   0.170  0.00  0.00    +0.124 C 
ATOM      7  N   UNL     1      -6.009  -1.139  -1.095  0.00  0.00    -0.327 N 
ATOM      8  C   UNL     1      -5.357  -0.759  -2.356  0.00  0.00    +0.124 C 
ATOM      9  C   UNL     1      -3.989  -1.439  -2.425  0.00  0.00    +0.128 C 
ATOM     10  H   UNL     1      -1.779  -0.786   0.834  0.00  0.00    +0.151 HD
ENDROOT
BRANCH   7  11
ATOM     11  C   UNL     1      -7.279  -1.719  -1.097  0.00  0.00    +0.030 A 
ATOM     12  C   UNL     1      -7.937  -1.961   0.103  0.00  0.00    +0.023 A 
ATOM     13  C   UNL     1      -9.193  -2.534   0.097  0.00  0.00    +0.002 A 
ATOM     14  C   UNL     1      -9.796  -2.869  -1.102  0.00  0.00    +0.000 A 
ATOM     15  C   UNL     1      -9.145  -2.629  -2.298  0.00  0.00    +0.002 A 
ATOM     16  C   UNL     1      -7.891  -2.051  -2.300  0.00  0.00    +0.023 A 
ENDBRANCH   7  11
BRANCH   1  18
ATOM     17  C   UNL     1      -0.011   1.508   0.018  0.00  0.00    +0.028 C 
ATOM     18  C   UNL     1       0.010  -0.022  -0.017  0.00  0.00    +0.072 C 
BRANCH  18  19
ATOM     19  C   UNL     1       0.760  -0.550   1.208  0.00  0.00    +0.026 C 
BRANCH  19  20
ATOM     20  C   UNL     1       0.890  -2.071   1.110  0.00  0.00    +0.037 C 
BRANCH  20  21
ATOM     21  C   UNL     1       1.629  -2.591   2.316  0.00  0.00    -0.047 A 
ATOM     22  C   UNL     1       3.007  -2.697   2.289  0.00  0.00    +0.007 A 
ATOM     23  C   UNL     1       3.687  -3.174   3.393  0.00  0.00    +0.045 A 
ATOM     24  C   UNL     1       2.985  -3.545   4.531  0.00  0.00    +0.117 A 
ATOM     25  C   UNL     1       1.602  -3.437   4.556  0.00  0.00    +0.045 A 
ATOM     26  C   UNL     1       0.927  -2.955   3.451  0.00  0.00    +0.007 A 
BRANCH  24  27
ATOM     27  O   UNL     1       3.651  -4.014   5.619  0.00  0.00    -0.507 OA
ATOM     28  H   UNL     1       3.914  -3.327   6.246  0.00  0.00    +0.292 HD
ENDBRANCH  24  27
ENDBRANCH  20  21
ENDBRANCH  19  20
ENDBRANCH  18  19
ENDBRANCH   1  18
TORSDOF 6
