REMARK  Name = ZINC01959662
REMARK  7 active torsions:
REMARK  status: ('A' for Active; 'I' for Inactive)
REMARK    1  A    between atoms: C_1  and  C_2
REMARK    2  A    between atoms: C_9  and  N_13
REMARK    3  A    between atoms: C_10  and  C_11
REMARK    4  A    between atoms: C_14  and  C_16
REMARK    5  A    between atoms: C_17  and  C_18
REMARK    6  A    between atoms: C_21  and  O_24
REMARK    7  A    between atoms: O_24  and  C_25
REMARK                            x       y       z     vdW  Elec       q    Type
REMARK                         _______ _______ _______ _____ _____    ______ ____
ROOT
ATOM      1  N   UNL     1       1.934  -5.845  -1.733  0.00  0.00    -0.275 N 
ATOM      2  C   UNL     1       2.232  -6.106  -3.021  0.00  0.00    +0.241 C 
ATOM      3  O   UNL     1       2.203  -5.212  -3.847  0.00  0.00    -0.270 OA
ATOM      4  H   UNL     1       1.958  -6.557  -1.076  0.00  0.00    +0.156 HD
ENDROOT
BRANCH   1  12
ATOM      5  C   UNL     1      -0.019   1.526   0.010  0.00  0.00    +0.008 C 
ATOM      6  C   UNL     1       0.002  -0.004   0.002  0.00  0.00    -0.009 C 
ATOM      7  C   UNL     1       0.742  -0.514   1.242  0.00  0.00    +0.008 C 
ATOM      8  C   UNL     1       0.556  -2.027   1.373  0.00  0.00    +0.037 C 
ATOM      9  C   UNL     1       0.941  -2.684   0.054  0.00  0.00    -0.018 A 
ATOM     10  C   UNL     1       1.008  -1.965  -1.089  0.00  0.00    -0.004 A 
ATOM     11  S   UNL     1       1.486  -3.133  -2.331  0.00  0.00    -0.077 S 
ATOM     12  C   UNL     1       1.594  -4.557  -1.349  0.00  0.00    +0.090 A 
ATOM     13  C   UNL     1       1.259  -4.095  -0.084  0.00  0.00    +0.084 A 
ATOM     14  C   UNL     1       0.736  -0.502  -1.252  0.00  0.00    +0.046 C 
BRANCH  13  15
ATOM     15  C   UNL     1       1.228  -4.977   1.044  0.00  0.00    +0.102 C 
ATOM     16  N   UNL     1       1.203  -5.676   1.939  0.00  0.00    -0.191 NA
ENDBRANCH  13  15
ENDBRANCH   1  12
BRANCH   2  17
ATOM     17  C   UNL     1       2.591  -7.464  -3.427  0.00  0.00    +0.068 C 
ATOM     18  C   UNL     1       2.890  -7.727  -4.717  0.00  0.00    +0.013 C 
BRANCH  18  19
ATOM     19  C   UNL     1       3.251  -9.092  -5.125  0.00  0.00    -0.025 A 
ATOM     20  C   UNL     1       3.290 -10.121  -4.177  0.00  0.00    +0.011 A 
ATOM     21  C   UNL     1       3.623 -11.399  -4.565  0.00  0.00    +0.046 A 
ATOM     22  C   UNL     1       3.931 -11.667  -5.894  0.00  0.00    +0.120 A 
ATOM     23  C   UNL     1       3.898 -10.648  -6.839  0.00  0.00    +0.046 A 
ATOM     24  C   UNL     1       3.561  -9.367  -6.462  0.00  0.00    +0.011 A 
BRANCH  22  25
ATOM     25  O   UNL     1       4.264 -12.927  -6.271  0.00  0.00    -0.495 OA
ATOM     26  C   UNL     1       4.279 -13.927  -5.249  0.00  0.00    +0.277 C 
ENDBRANCH  22  25
ENDBRANCH  18  19
ENDBRANCH   2  17
TORSDOF 5
