REMARK  Name = ZINC11898515
REMARK  9 active torsions:
REMARK  status: ('A' for Active; 'I' for Inactive)
REMARK    1  A    between atoms: C_1  and  C_2
REMARK    2  A    between atoms: C_5  and  N_32
REMARK    3  A    between atoms: C_7  and  N_8
REMARK    4  A    between atoms: C_9  and  C_11
REMARK    5  A    between atoms: N_13  and  C_14
REMARK    6  A    between atoms: C_14  and  C_15
REMARK    7  A    between atoms: C_15  and  C_17
REMARK    8  A    between atoms: C_15  and  N_61
REMARK    9  A    between atoms: N_21  and  C_22
REMARK                            x       y       z     vdW  Elec       q    Type
REMARK                         _______ _______ _______ _____ _____    ______ ____
ROOT
ATOM      1  C   UNL     1      -4.135   2.263   0.105  0.00  0.00    +0.095 C 
ENDROOT
BRANCH   1   4
ATOM      2  C   UNL     1      -4.447   3.617   2.107  0.00  0.00    +0.299 C 
ATOM      3  O   UNL     1      -3.567   4.353   1.711  0.00  0.00    -0.265 OA
ATOM      4  N   UNL     1      -4.806   2.543   1.377  0.00  0.00    -0.309 N 
ATOM      5  H   UNL     1      -5.509   1.954   1.694  0.00  0.00    +0.149 HD
BRANCH   2   7
ATOM      6  N   UNL     1      -4.768   4.973   4.136  0.00  0.00    -0.277 N 
ATOM      7  C   UNL     1      -5.131   3.902   3.404  0.00  0.00    +0.303 C 
ATOM      8  O   UNL     1      -6.011   3.166   3.800  0.00  0.00    -0.265 OA
ATOM      9  H   UNL     1      -4.015   5.518   3.858  0.00  0.00    +0.155 HD
BRANCH   6  16
ATOM     10  C   UNL     1      -3.458   6.545   6.112  0.00  0.00    +0.045 C 
ATOM     11  C   UNL     1      -4.875   6.065   6.286  0.00  0.00    -0.029 A 
ATOM     12  C   UNL     1      -5.579   6.386   7.431  0.00  0.00    +0.007 A 
ATOM     13  C   UNL     1      -6.880   5.946   7.591  0.00  0.00    +0.033 A 
ATOM     14  C   UNL     1      -7.481   5.184   6.606  0.00  0.00    +0.128 A 
ATOM     15  C   UNL     1      -6.786   4.863   5.457  0.00  0.00    +0.056 A 
ATOM     16  C   UNL     1      -5.477   5.300   5.295  0.00  0.00    +0.039 A 
BRANCH  14  17
ATOM     17  N   UNL     1      -8.874   4.715   6.782  0.00  0.00    +0.056 N 
ATOM     18  O   UNL     1      -9.490   5.002   7.793  0.00  0.00    -0.126 OA
ATOM     19  O   UNL     1      -9.405   4.044   5.915  0.00  0.00    -0.126 OA
ENDBRANCH  14  17
ENDBRANCH   6  16
ENDBRANCH   2   7
ENDBRANCH   1   4
BRANCH   1  20
ATOM     20  C   UNL     1      -4.809   1.070  -0.576  0.00  0.00    -0.003 C 
BRANCH  20  30
ATOM     21  C   UNL     1      -3.535  -0.305   0.960  0.00  0.00    -0.073 C 
ATOM     22  C   UNL     1      -3.714  -1.227   2.166  0.00  0.00    +0.017 C 
ATOM     23  C   UNL     1      -4.527  -2.434   1.775  0.00  0.00    -0.048 A 
ATOM     24  C   UNL     1      -4.505  -3.544   2.606  0.00  0.00    +0.004 A 
ATOM     25  C   UNL     1      -5.242  -4.667   2.289  0.00  0.00    +0.000 A 
ATOM     26  C   UNL     1      -6.006  -4.686   1.136  0.00  0.00    +0.000 A 
ATOM     27  C   UNL     1      -6.027  -3.583   0.308  0.00  0.00    +0.002 A 
ATOM     28  C   UNL     1      -5.285  -2.453   0.624  0.00  0.00    -0.061 A 
ATOM     29  C   UNL     1      -5.337  -1.276  -0.314  0.00  0.00    -0.042 C 
ATOM     30  N   UNL     1      -4.870  -0.062   0.376  0.00  0.00    +0.389 N 
ATOM     31  H   UNL     1      -5.528   0.170   1.129  0.00  0.00    -0.080 HD
ENDBRANCH  20  30
BRANCH  20  32
ATOM     32  C   UNL     1      -6.211   1.448  -0.978  0.00  0.00    +0.006 A 
ATOM     33  C   UNL     1      -7.346   0.909  -0.488  0.00  0.00    +0.021 A 
ATOM     34  C   UNL     1      -8.427   1.545  -1.131  0.00  0.00    +0.019 A 
ATOM     35  C   UNL     1      -7.911   2.448  -1.989  0.00  0.00    +0.085 A 
ATOM     36  N   UNL     1      -6.552   2.397  -1.895  0.00  0.00    -0.355 N 
ATOM     37  C   UNL     1      -5.612   3.224  -2.657  0.00  0.00    +0.148 C 
ENDBRANCH  20  32
ENDBRANCH   1  20
TORSDOF 7
