REMARK  Name = ZINC13729316
REMARK  5 active torsions:
REMARK  status: ('A' for Active; 'I' for Inactive)
REMARK    1  A    between atoms: C_3  and  C_9
REMARK    2  A    between atoms: C_12  and  C_14
REMARK    3  A    between atoms: C_14  and  N_15
REMARK    4  A    between atoms: N_15  and  C_16
REMARK    5  A    between atoms: C_25  and  O_28
REMARK                            x       y       z     vdW  Elec       q    Type
REMARK                         _______ _______ _______ _____ _____    ______ ____
ROOT
ATOM      1  N   UNL     1      -0.065   1.119  -2.440  0.00  0.00    +0.388 N 
ATOM      2  H   UNL     1      -0.050   0.019  -2.429  0.00  0.00    -0.084 HD
ATOM      3  H   UNL     1       0.967   1.500  -2.431  0.00  0.00    -0.084 HD
ENDROOT
BRANCH   1   4
ATOM      4  C   UNL     1      -0.753   1.593  -1.232  0.00  0.00    -0.065 C 
ATOM      5  C   UNL     1      -0.773   3.123  -1.223  0.00  0.00    -0.009 C 
ATOM      6  C   UNL     1      -1.490   3.616   0.036  0.00  0.00    -0.009 C 
ATOM      7  C   UNL     1      -2.925   3.086   0.047  0.00  0.00    +0.007 C 
ATOM      8  C   UNL     1      -2.904   1.556   0.038  0.00  0.00    -0.009 C 
ATOM      9  C   UNL     1      -2.188   1.063  -1.221  0.00  0.00    -0.009 C 
ATOM     10  C   UNL     1      -2.164   1.050   1.278  0.00  0.00    +0.038 C 
ATOM     11  C   UNL     1      -0.729   1.579   1.267  0.00  0.00    +0.065 C 
ATOM     12  C   UNL     1      -0.750   3.109   1.275  0.00  0.00    +0.038 C 
ATOM     13  C   UNL     1      -0.013   1.086   0.008  0.00  0.00    +0.022 C 
BRANCH  11  14
ATOM     14  O   UNL     1      -0.038   1.106   2.425  0.00  0.00    -0.389 OA
ATOM     15  H   UNL     1       1.013   1.385   2.590  0.00  0.00    +0.210 HD
ENDBRANCH  11  14
ENDBRANCH   1   4
BRANCH   1  16
ATOM     16  C   UNL     1      -0.749   1.587  -3.653  0.00  0.00    -0.006 C 
BRANCH  16  20
ATOM     17  C   UNL     1       1.396   0.977  -6.547  0.00  0.00    +0.136 A 
ATOM     18  C   UNL     1       0.649  -0.158  -6.581  0.00  0.00    +0.050 A 
ATOM     19  C   UNL     1      -0.255  -0.082  -5.502  0.00  0.00    +0.043 A 
ATOM     20  C   UNL     1      -0.017   1.083  -4.869  0.00  0.00    +0.089 A 
ATOM     21  O   UNL     1       0.978   1.723  -5.506  0.00  0.00    -0.462 OA
BRANCH  17  24
ATOM     22  C   UNL     1       4.496   0.754  -8.655  0.00  0.00    +0.015 A 
ATOM     23  C   UNL     1       3.492   0.418  -7.770  0.00  0.00    +0.014 A 
ATOM     24  C   UNL     1       2.477   1.333  -7.490  0.00  0.00    +0.036 A 
ATOM     25  C   UNL     1       2.489   2.590  -8.100  0.00  0.00    +0.053 A 
ATOM     26  C   UNL     1       3.502   2.916  -8.980  0.00  0.00    +0.035 A 
ATOM     27  C   UNL     1       4.503   2.001  -9.257  0.00  0.00    +0.015 A 
ATOM     28  I   UNL     1       6.036   2.505 -10.592  0.00  0.00    -0.044 I 
ATOM     29 CL   UNL     1       1.234   3.738  -7.754  0.00  0.00    -0.083 Cl
ENDBRANCH  17  24
ENDBRANCH  16  20
ENDBRANCH   1  16
TORSDOF 5
