REMARK  Name = ZINC65033262
REMARK  8 active torsions:
REMARK  status: ('A' for Active; 'I' for Inactive)
REMARK    1  A    between atoms: C_1  and  C_2
REMARK    2  A    between atoms: C_2  and  C_3
REMARK    3  A    between atoms: C_2  and  C_4
REMARK    4  A    between atoms: C_2  and  N_5
REMARK    5  A    between atoms: N_5  and  S_6
REMARK    6  A    between atoms: S_6  and  C_9
REMARK    7  A    between atoms: C_14  and  C_15
REMARK    8  A    between atoms: C_15  and  N_16
REMARK                            x       y       z     vdW  Elec       q    Type
REMARK                         _______ _______ _______ _____ _____    ______ ____
ROOT
ATOM      1  C   UNL     1       2.595  -1.220   0.160  0.00  0.00    +0.110 A 
ATOM      2  C   UNL     1       3.495  -2.089  -0.427  0.00  0.00    +0.029 A 
ATOM      3  C   UNL     1       4.414  -2.764   0.354  0.00  0.00    +0.002 A 
ATOM      4  C   UNL     1       4.434  -2.568   1.723  0.00  0.00    +0.000 A 
ATOM      5  C   UNL     1       3.535  -1.699   2.309  0.00  0.00    +0.007 A 
ATOM      6  C   UNL     1       2.618  -1.021   1.528  0.00  0.00    -0.004 A 
ENDROOT
BRANCH   1   7
ATOM      7  S   UNL     1       1.423  -0.360  -0.836  0.00  0.00    +0.059 S 
ATOM      8  O   UNL     1       0.152  -0.560  -0.232  0.00  0.00    -0.153 OA
ATOM      9  O   UNL     1       1.692  -0.722  -2.183  0.00  0.00    -0.153 OA
BRANCH   7  10
ATOM     10  N   UNL     1       1.760   1.256  -0.704  0.00  0.00    -0.185 NA
ATOM     11  H   UNL     1       1.116   1.854  -0.292  0.00  0.00    +0.149 HD
BRANCH  10  13
ATOM     12  C   UNL     1       3.186   1.411  -2.684  0.00  0.00    +0.029 C 
ATOM     13  C   UNL     1       3.030   1.783  -1.208  0.00  0.00    +0.032 C 
ATOM     14  C   UNL     1       4.186   1.182  -0.406  0.00  0.00    +0.029 C 
ATOM     15  C   UNL     1       3.045   3.306  -1.062  0.00  0.00    +0.029 C 
ENDBRANCH  10  13
ENDBRANCH   7  10
ENDBRANCH   1   7
BRANCH   6  16
ATOM     16  C   UNL     1       1.641  -0.068   2.167  0.00  0.00    +0.143 C 
BRANCH  16  17
ATOM     17  N   UNL     1       0.350  -0.739   2.345  0.00  0.00    -0.295 N 
ATOM     18  C   UNL     1      -0.710  -0.048   2.811  0.00  0.00    +0.302 C 
ATOM     19  O   UNL     1      -0.620   1.150   2.998  0.00  0.00    -0.253 OA
ATOM     20  N   UNL     1      -1.869  -0.686   3.069  0.00  0.00    -0.286 N 
ATOM     21  C   UNL     1      -1.954  -2.148   2.950  0.00  0.00    +0.109 C 
ATOM     22  C   UNL     1      -1.118  -2.787   4.051  0.00  0.00    +0.019 C 
ATOM     23  C   UNL     1      -1.837  -2.609   5.399  0.00  0.00    +0.002 C 
ATOM     24  C   UNL     1      -1.628  -1.185   5.902  0.00  0.00    +0.000 C 
ATOM     25  C   UNL     1      -2.960  -0.413   5.920  0.00  0.00    +0.002 C 
ATOM     26  C   UNL     1      -3.727  -0.678   4.624  0.00  0.00    +0.019 C 
ATOM     27  C   UNL     1      -3.045   0.065   3.473  0.00  0.00    +0.109 C 
ATOM     28  H   UNL     1       0.259  -1.680   2.128  0.00  0.00    +0.151 HD
ENDBRANCH  16  17
ENDBRANCH   6  16
TORSDOF 5
