REMARK  Name = ZINC39533929
REMARK  11 active torsions:
REMARK  status: ('A' for Active; 'I' for Inactive)
REMARK    1  A    between atoms: C_1  and  C_2
REMARK    2  A    between atoms: C_2  and  C_3
REMARK    3  A    between atoms: C_2  and  S_4
REMARK    4  A    between atoms: S_4  and  C_7
REMARK    5  A    between atoms: N_10  and  C_14
REMARK    6  A    between atoms: C_14  and  C_16
REMARK    7  A    between atoms: C_14  and  C_27
REMARK    8  A    between atoms: C_16  and  N_17
REMARK    9  A    between atoms: N_17  and  S_18
REMARK   10  A    between atoms: S_18  and  C_21
REMARK   11  A    between atoms: C_30  and  C_33
REMARK                            x       y       z     vdW  Elec       q    Type
REMARK                         _______ _______ _______ _____ _____    ______ ____
ROOT
ATOM      1  C   UNL     1      -3.916  -5.294   0.346  0.00  0.00    +0.102 C 
ENDROOT
BRANCH   1   4
ATOM      2  C   UNL     1      -1.060  -2.912   0.945  0.00  0.00    +0.212 C 
ATOM      3  C   UNL     1      -2.502  -3.358   0.688  0.00  0.00    +0.127 C 
ATOM      4  N   UNL     1      -2.561  -4.826   0.665  0.00  0.00    -0.290 NA
ATOM      5  C   UNL     1      -2.096  -5.389   1.941  0.00  0.00    +0.100 C 
ATOM      6  C   UNL     1      -0.655  -4.943   2.198  0.00  0.00    +0.098 C 
ATOM      7  N   UNL     1      -0.595  -3.475   2.220  0.00  0.00    -0.293 NA
ATOM      8  H   UNL     1       0.336  -3.153   2.439  0.00  0.00    +0.124 HD
BRANCH   2   9
ATOM      9  S   UNL     1      -0.992  -1.101   1.021  0.00  0.00    -0.012 S 
ATOM     10  O   UNL     1      -1.642  -0.676   2.211  0.00  0.00    -0.173 OA
ATOM     11  O   UNL     1      -1.428  -0.581  -0.227  0.00  0.00    -0.173 OA
BRANCH   9  13
ATOM     12  C   UNL     1       1.530  -1.376  -0.003  0.00  0.00    +0.031 C 
ATOM     13  C   UNL     1       0.785  -0.774   1.190  0.00  0.00    +0.126 C 
ATOM     14  C   UNL     1       1.023   0.737   1.231  0.00  0.00    +0.031 C 
ENDBRANCH   9  13
ENDBRANCH   2   9
ENDBRANCH   1   4
BRANCH   1  15
ATOM     15  C   UNL     1      -4.853  -4.921   1.466  0.00  0.00    -0.029 A 
ATOM     16  C   UNL     1      -5.797  -3.929   1.274  0.00  0.00    +0.006 A 
ATOM     17  C   UNL     1      -6.657  -3.584   2.297  0.00  0.00    +0.009 A 
ATOM     18  C   UNL     1      -6.573  -4.238   3.525  0.00  0.00    -0.018 A 
ATOM     19  C   UNL     1      -5.620  -5.236   3.713  0.00  0.00    +0.009 A 
ATOM     20  C   UNL     1      -4.769  -5.577   2.681  0.00  0.00    +0.006 A 
BRANCH  18  21
ATOM     21  C   UNL     1      -7.495  -3.871   4.628  0.00  0.00    -0.018 A 
ATOM     22  C   UNL     1      -8.452  -2.876   4.438  0.00  0.00    +0.008 A 
ATOM     23  C   UNL     1      -9.307  -2.538   5.467  0.00  0.00    +0.001 A 
ATOM     24  C   UNL     1      -9.216  -3.186   6.686  0.00  0.00    +0.000 A 
ATOM     25  C   UNL     1      -8.268  -4.175   6.880  0.00  0.00    +0.001 A 
ATOM     26  C   UNL     1      -7.412  -4.524   5.856  0.00  0.00    +0.008 A 
ENDBRANCH  18  21
ENDBRANCH   1  15
BRANCH   1  27
ATOM     27  C   UNL     1      -3.904  -6.814   0.175  0.00  0.00    +0.129 C 
BRANCH  27  28
ATOM     28  N   UNL     1      -2.906  -7.185  -0.831  0.00  0.00    -0.188 NA
ATOM     29  H   UNL     1      -2.538  -6.508  -1.421  0.00  0.00    +0.148 HD
BRANCH  28  30
ATOM     30  S   UNL     1      -2.407  -8.758  -0.962  0.00  0.00    +0.058 S 
ATOM     31  O   UNL     1      -1.470  -8.800  -2.030  0.00  0.00    -0.153 OA
ATOM     32  O   UNL     1      -2.083  -9.192   0.352  0.00  0.00    -0.153 OA
BRANCH  30  33
ATOM     33  C   UNL     1      -3.800  -9.706  -1.477  0.00  0.00    +0.105 A 
ATOM     34  C   UNL     1      -4.644 -10.262  -0.534  0.00  0.00    +0.028 A 
ATOM     35  C   UNL     1      -5.737 -11.005  -0.938  0.00  0.00    +0.002 A 
ATOM     36  C   UNL     1      -5.986 -11.193  -2.285  0.00  0.00    +0.000 A 
ATOM     37  C   UNL     1      -5.142 -10.636  -3.228  0.00  0.00    +0.002 A 
ATOM     38  C   UNL     1      -4.052  -9.889  -2.824  0.00  0.00    +0.028 A 
ENDBRANCH  30  33
ENDBRANCH  28  30
ENDBRANCH  27  28
ENDBRANCH   1  27
TORSDOF 9
