REMARK  Name = ZINC19861340
REMARK  7 active torsions:
REMARK  status: ('A' for Active; 'I' for Inactive)
REMARK    1  A    between atoms: C_1  and  C_2
REMARK    2  A    between atoms: C_5  and  N_8
REMARK    3  A    between atoms: C_17  and  S_18
REMARK    4  A    between atoms: S_18  and  C_19
REMARK    5  A    between atoms: C_19  and  C_20
REMARK    6  A    between atoms: N_22  and  N_23
REMARK    7  A    between atoms: N_23  and  C_24
REMARK                            x       y       z     vdW  Elec       q    Type
REMARK                         _______ _______ _______ _____ _____    ______ ____
ROOT
ATOM      1  N   UNL     1      -0.032  -4.150  -0.016  0.00  0.00    -0.255 N 
ATOM      2  C   UNL     1       0.106  -4.811   1.148  0.00  0.00    +0.268 A 
ATOM      3  O   UNL     1       0.158  -4.202   2.202  0.00  0.00    -0.267 OA
ATOM      4  C   UNL     1       0.191  -6.239   1.131  0.00  0.00    +0.076 A 
ATOM      5  C   UNL     1       0.343  -7.152   2.265  0.00  0.00    -0.023 A 
ATOM      6  C   UNL     1       0.399  -8.470   1.986  0.00  0.00    -0.004 A 
ATOM      7  S   UNL     1       0.254  -8.575   0.223  0.00  0.00    -0.073 S 
ATOM      8  C   UNL     1       0.120  -6.842  -0.137  0.00  0.00    +0.117 A 
ATOM      9  N   UNL     1      -0.016  -6.132  -1.250  0.00  0.00    -0.215 NA
ATOM     10  C   UNL     1      -0.098  -4.818  -1.207  0.00  0.00    +0.178 A 
ATOM     11  C   UNL     1       0.551  -9.599   2.961  0.00  0.00    +0.043 C 
ATOM     12  C   UNL     1       1.010  -9.018   4.306  0.00  0.00    +0.005 C 
ATOM     13  C   UNL     1       0.124  -7.817   4.649  0.00  0.00    +0.005 C 
ATOM     14  C   UNL     1       0.437  -6.655   3.705  0.00  0.00    +0.037 C 
ENDROOT
BRANCH   1  19
ATOM     15  C   UNL     1      -0.371   1.515   0.021  0.00  0.00    +0.044 C 
ATOM     16  C   UNL     1      -0.281   0.010   0.011  0.00  0.00    -0.050 A 
ATOM     17  C   UNL     1       0.937  -0.607  -0.206  0.00  0.00    +0.005 A 
ATOM     18  C   UNL     1       1.023  -1.985  -0.216  0.00  0.00    +0.026 A 
ATOM     19  C   UNL     1      -0.116  -2.751  -0.007  0.00  0.00    +0.052 A 
ATOM     20  C   UNL     1      -1.337  -2.129   0.212  0.00  0.00    +0.026 A 
ATOM     21  C   UNL     1      -1.416  -0.750   0.225  0.00  0.00    +0.005 A 
ENDBRANCH   1  19
BRANCH  10  22
ATOM     22  S   UNL     1      -0.287  -3.908  -2.705  0.00  0.00    -0.078 S 
BRANCH  22  23
ATOM     23  C   UNL     1      -0.325  -5.186  -3.992  0.00  0.00    +0.174 C 
BRANCH  23  24
ATOM     24  C   UNL     1      -0.485  -4.534  -5.341  0.00  0.00    +0.239 C 
ATOM     25  O   UNL     1      -0.566  -3.327  -5.426  0.00  0.00    -0.273 OA
ATOM     26  N   UNL     1      -0.538  -5.293  -6.454  0.00  0.00    -0.236 N 
ATOM     27  H   UNL     1      -0.474  -6.258  -6.386  0.00  0.00    +0.173 HD
BRANCH  26  28
ATOM     28  N   UNL     1      -0.687  -4.687  -7.708  0.00  0.00    -0.271 N 
ATOM     29  H   UNL     1      -0.752  -3.722  -7.776  0.00  0.00    +0.169 HD
BRANCH  28  30
ATOM     30  C   UNL     1      -0.741  -5.442  -8.816  0.00  0.00    +0.099 C 
ATOM     31  C   UNL     1      -0.760  -4.837 -10.074  0.00  0.00    +0.037 C 
ATOM     32  C   UNL     1      -0.968  -5.604 -11.242  0.00  0.00    +0.013 C 
ATOM     33  C   UNL     1      -0.984  -4.996 -12.457  0.00  0.00    +0.001 C 
ATOM     34  C   UNL     1      -0.799  -3.622 -12.586  0.00  0.00    +0.004 C 
ATOM     35  C   UNL     1      -0.594  -2.826 -11.501  0.00  0.00    +0.051 C 
ATOM     36  C   UNL     1      -0.571  -3.387 -10.213  0.00  0.00    +0.187 C 
ATOM     37  O   UNL     1      -0.393  -2.683  -9.228  0.00  0.00    -0.287 OA
ENDBRANCH  28  30
ENDBRANCH  26  28
ENDBRANCH  23  24
ENDBRANCH  22  23
ENDBRANCH  10  22
TORSDOF 6
