REMARK  Name = ZINC48874336
REMARK  3 active torsions:
REMARK  status: ('A' for Active; 'I' for Inactive)
REMARK    1  A    between atoms: C_5  and  C_13
REMARK    2  A    between atoms: C_13  and  S_14
REMARK    3  A    between atoms: S_14  and  C_15
REMARK                            x       y       z     vdW  Elec       q    Type
REMARK                         _______ _______ _______ _____ _____    ______ ____
ROOT
ATOM      1  C   UNL     1      -0.017   1.398   0.010  0.00  0.00    +0.020 A 
ATOM      2  C   UNL     1       1.159   2.087   0.002  0.00  0.00    +0.048 A 
ATOM      3  C   UNL     1       2.375   1.379  -0.013  0.00  0.00    +0.141 A 
ATOM      4  N   UNL     1       3.525   2.050  -0.020  0.00  0.00    -0.233 NA
ATOM      5  C   UNL     1       4.690   1.421  -0.035  0.00  0.00    +0.059 A 
ATOM      6  C   UNL     1       4.730   0.041  -0.043  0.00  0.00    +0.094 A 
ATOM      7  C   UNL     1       3.526  -0.672  -0.035  0.00  0.00    +0.259 A 
ATOM      8  O   UNL     1       3.527  -1.893  -0.042  0.00  0.00    -0.267 OA
ATOM      9  N   UNL     1       2.362   0.012  -0.020  0.00  0.00    -0.267 N 
ATOM     10  C   UNL     1       1.181  -0.667  -0.011  0.00  0.00    +0.111 A 
ATOM     11  C   UNL     1       0.002  -0.004   0.002  0.00  0.00    +0.035 A 
ATOM     12 BR   UNL     1      -1.624  -0.970   0.012  0.00  0.00    -0.049 Br
ENDROOT
BRANCH   5  13
ATOM     13  C   UNL     1       5.973   2.212  -0.043  0.00  0.00    +0.132 C 
BRANCH  13  14
ATOM     14  S   UNL     1       6.239   2.915  -1.694  0.00  0.00    -0.093 S 
BRANCH  14  15
ATOM     15  C   UNL     1       7.756   3.797  -1.542  0.00  0.00    +0.135 A 
ATOM     16  N   UNL     1       8.530   3.920  -0.483  0.00  0.00    -0.241 NA
ATOM     17  C   UNL     1       9.647   4.623  -0.532  0.00  0.00    +0.120 A 
ATOM     18  C   UNL     1       9.955   5.208  -1.715  0.00  0.00    +0.067 A 
ATOM     19  S   UNL     1       8.574   4.683  -2.717  0.00  0.00    -0.069 S 
ENDBRANCH  14  15
ENDBRANCH  13  14
ENDBRANCH   5  13
TORSDOF 3
