REMARK  Name = ZINC40288247
REMARK  4 active torsions:
REMARK  status: ('A' for Active; 'I' for Inactive)
REMARK    1  A    between atoms: N_7  and  C_8
REMARK    2  A    between atoms: C_8  and  C_9
REMARK    3  A    between atoms: C_9  and  C_10
REMARK    4  A    between atoms: C_15  and  C_18
REMARK                            x       y       z     vdW  Elec       q    Type
REMARK                         _______ _______ _______ _____ _____    ______ ____
ROOT
ATOM      1  C   UNL     1       4.607   5.220   1.420  0.00  0.00    +0.217 C 
ATOM      2  O   UNL     1       4.862   5.778   0.374  0.00  0.00    -0.276 OA
ATOM      3  N   UNL     1       4.719   5.889   2.585  0.00  0.00    -0.301 N 
ATOM      4  C   UNL     1       4.419   5.225   3.861  0.00  0.00    +0.108 C 
ATOM      5  C   UNL     1       3.392   6.066   4.625  0.00  0.00    +0.032 C 
ATOM      6  C   UNL     1       3.916   7.497   4.769  0.00  0.00    +0.078 C 
ATOM      7  C   UNL     1       4.109   8.113   3.381  0.00  0.00    +0.032 C 
ATOM      8  C   UNL     1       5.149   7.293   2.604  0.00  0.00    +0.108 C 
ENDROOT
BRANCH   6   9
ATOM      9  C   UNL     1       2.923   8.319   5.550  0.00  0.00    +0.214 C 
ATOM     10  O   UNL     1       1.898   7.811   5.952  0.00  0.00    -0.276 OA
ATOM     11  N   UNL     1       3.175   9.619   5.801  0.00  0.00    -0.329 N 
ATOM     12  H   UNL     1       3.995  10.025   5.480  0.00  0.00    +0.145 HD
ATOM     13  H   UNL     1       2.536  10.148   6.304  0.00  0.00    +0.145 HD
ENDBRANCH   6   9
BRANCH   1  14
ATOM     14  C   UNL     1       4.164   3.780   1.418  0.00  0.00    +0.117 C 
BRANCH  14  15
ATOM     15  C   UNL     1       4.120   3.262  -0.021  0.00  0.00    +0.131 C 
BRANCH  15  22
ATOM     16  C   UNL     1      -0.017   1.384   0.010  0.00  0.00    +0.003 A 
ATOM     17  C   UNL     1       1.158   2.103   0.002  0.00  0.00    +0.026 A 
ATOM     18  C   UNL     1       2.379   1.437  -0.013  0.00  0.00    +0.050 A 
ATOM     19  C   UNL     1       2.400   0.030  -0.021  0.00  0.00    +0.014 A 
ATOM     20  C   UNL     1       3.813  -0.354  -0.037  0.00  0.00    +0.028 A 
ATOM     21  C   UNL     1       4.529   0.781  -0.038  0.00  0.00    +0.087 A 
ATOM     22  N   UNL     1       3.689   1.862  -0.024  0.00  0.00    -0.346 N 
ATOM     23  C   UNL     1       1.200  -0.684  -0.013  0.00  0.00    +0.027 A 
ATOM     24  C   UNL     1       0.002  -0.004   0.002  0.00  0.00    +0.016 A 
ATOM     25 BR   UNL     1       1.219  -2.575  -0.024  0.00  0.00    -0.050 Br
ENDBRANCH  15  22
ENDBRANCH  14  15
ENDBRANCH   1  14
TORSDOF 4
