REMARK  Name = ZINC64622814
REMARK  6 active torsions:
REMARK  status: ('A' for Active; 'I' for Inactive)
REMARK    1  A    between atoms: C_1  and  C_2
REMARK    2  A    between atoms: C_2  and  O_3
REMARK    3  A    between atoms: O_3  and  C_4
REMARK    4  A    between atoms: C_4  and  C_6
REMARK    5  A    between atoms: C_11  and  N_12
REMARK    6  A    between atoms: C_28  and  C_30
REMARK                            x       y       z     vdW  Elec       q    Type
REMARK                         _______ _______ _______ _____ _____    ______ ____
ROOT
ATOM      1  N   UNL     1      -1.989  -4.781   0.189  0.00  0.00    -0.269 N 
ATOM      2  C   UNL     1      -2.207  -6.069  -0.139  0.00  0.00    +0.307 C 
ATOM      3  O   UNL     1      -3.341  -6.463  -0.334  0.00  0.00    -0.252 OA
ATOM      4  N   UNL     1      -1.169  -6.922  -0.249  0.00  0.00    -0.276 N 
ATOM      5  C   UNL     1       0.201  -6.418  -0.111  0.00  0.00    +0.114 C 
ATOM      6  C   UNL     1       0.910  -7.171   1.030  0.00  0.00    +0.052 C 
ATOM      7  C   UNL     1       0.601  -8.635   0.841  0.00  0.00    -0.035 C 
ATOM      8  C   UNL     1       1.391  -9.699   0.781  0.00  0.00    -0.001 A 
ATOM      9  C   UNL     1       2.841  -9.855   0.984  0.00  0.00    +0.010 A 
ATOM     10  C   UNL     1       3.337 -11.110   0.822  0.00  0.00    +0.001 A 
ATOM     11  C   UNL     1       2.546 -12.213   0.483  0.00  0.00    +0.002 A 
ATOM     12  C   UNL     1       1.205 -12.162   0.285  0.00  0.00    +0.026 A 
ATOM     13  C   UNL     1       0.566 -10.897   0.436  0.00  0.00    +0.043 A 
ATOM     14  N   UNL     1      -0.688 -10.569   0.330  0.00  0.00    -0.375 N 
ATOM     15  C   UNL     1      -0.822  -9.148   0.653  0.00  0.00    +0.131 C 
ATOM     16  C   UNL     1      -1.423  -8.349  -0.502  0.00  0.00    +0.137 C 
ATOM     17  H   UNL     1      -1.081  -4.449   0.273  0.00  0.00    +0.156 HD
ATOM     18  H   UNL     1      -1.411 -11.165   0.079  0.00  0.00    +0.160 HD
ENDROOT
BRANCH  16  19
ATOM     19  C   UNL     1      -2.908  -8.599  -0.574  0.00  0.00    +0.010 A 
ATOM     20  C   UNL     1      -3.597  -8.998   0.556  0.00  0.00    +0.008 A 
ATOM     21  C   UNL     1      -4.959  -9.226   0.490  0.00  0.00    +0.000 A 
ATOM     22  C   UNL     1      -5.633  -9.056  -0.705  0.00  0.00    +0.003 A 
ATOM     23  C   UNL     1      -4.946  -8.657  -1.835  0.00  0.00    +0.039 A 
ATOM     24  C   UNL     1      -3.583  -8.422  -1.770  0.00  0.00    +0.128 A 
ATOM     25  F   UNL     1      -2.911  -8.027  -2.873  0.00  0.00    -0.205 F 
ENDBRANCH  16  19
BRANCH   1  31
ATOM     26  C   UNL     1      -2.977  -2.573   0.046  0.00  0.00    +0.080 A 
ATOM     27  C   UNL     1      -4.068  -1.727   0.266  0.00  0.00    +0.017 A 
ATOM     28  C   UNL     1      -5.217  -2.223   0.841  0.00  0.00    +0.001 A 
ATOM     29  C   UNL     1      -5.299  -3.558   1.203  0.00  0.00    +0.002 A 
ATOM     30  C   UNL     1      -4.231  -4.406   0.992  0.00  0.00    +0.024 A 
ATOM     31  C   UNL     1      -3.066  -3.926   0.408  0.00  0.00    +0.049 A 
BRANCH  26  32
ATOM     32  C   UNL     1      -1.745  -2.049  -0.569  0.00  0.00    +0.341 C 
ATOM     33  O   UNL     1      -0.771  -2.767  -0.684  0.00  0.00    -0.245 OA
BRANCH  32  34
ATOM     34  O   UNL     1      -1.697  -0.774  -1.003  0.00  0.00    -0.461 OA
BRANCH  34  36
ATOM     35  C   UNL     1      -0.607   1.129  -2.017  0.00  0.00    +0.048 C 
ATOM     36  C   UNL     1      -0.471  -0.333  -1.588  0.00  0.00    +0.229 C 
ENDBRANCH  34  36
ENDBRANCH  32  34
ENDBRANCH  26  32
ENDBRANCH   1  31
TORSDOF 5
