REMARK  Name = ZINC00884399
REMARK  8 active torsions:
REMARK  status: ('A' for Active; 'I' for Inactive)
REMARK    1  A    between atoms: C_1  and  C_2
REMARK    2  A    between atoms: C_9  and  C_14
REMARK    3  A    between atoms: C_14  and  N_15
REMARK    4  A    between atoms: N_15  and  C_16
REMARK    5  A    between atoms: N_15  and  C_22
REMARK    6  A    between atoms: C_16  and  C_17
REMARK    7  A    between atoms: C_22  and  N_24
REMARK    8  A    between atoms: N_24  and  C_25
REMARK                            x       y       z     vdW  Elec       q    Type
REMARK                         _______ _______ _______ _____ _____    ______ ____
ROOT
ATOM      1  N   UNL     1      -1.082  -0.981   1.178  0.00  0.00    -0.303 N 
ENDROOT
BRANCH   1   2
ATOM      2  C   UNL     1      -1.976  -0.230   1.851  0.00  0.00    +0.138 C 
ATOM      3  S   UNL     1      -1.851  -0.066   3.550  0.00  0.00    -0.018 S 
BRANCH   2   4
ATOM      4  N   UNL     1      -2.969   0.393   1.185  0.00  0.00    -0.297 N 
ATOM      5  H   UNL     1      -3.090   0.236   0.236  0.00  0.00    +0.154 HD
BRANCH   4   6
ATOM      6  C   UNL     1      -3.826   1.267   1.865  0.00  0.00    +0.033 A 
ATOM      7  C   UNL     1      -5.189   1.252   1.598  0.00  0.00    +0.026 A 
ATOM      8  C   UNL     1      -6.033   2.111   2.273  0.00  0.00    +0.040 A 
ATOM      9  C   UNL     1      -5.521   2.996   3.207  0.00  0.00    +0.124 A 
ATOM     10  C   UNL     1      -4.161   3.016   3.471  0.00  0.00    +0.040 A 
ATOM     11  C   UNL     1      -3.314   2.155   2.802  0.00  0.00    +0.026 A 
ATOM     12  F   UNL     1      -6.348   3.840   3.862  0.00  0.00    -0.205 F 
ENDBRANCH   4   6
ENDBRANCH   2   4
ENDBRANCH   1   2
BRANCH   1  13
ATOM     13  C   UNL     1      -0.046  -1.715   1.908  0.00  0.00    +0.147 C 
BRANCH  13  22
ATOM     14  C   UNL     1      -0.158  -8.913  -0.038  0.00  0.00    +0.044 C 
ATOM     15  C   UNL     1      -0.578  -7.793   0.878  0.00  0.00    -0.050 A 
ATOM     16  C   UNL     1      -1.407  -8.062   1.959  0.00  0.00    +0.005 A 
ATOM     17  C   UNL     1      -1.803  -7.053   2.810  0.00  0.00    +0.026 A 
ATOM     18  C   UNL     1      -1.370  -5.750   2.585  0.00  0.00    +0.049 A 
ATOM     19  C   UNL     1      -0.529  -5.481   1.488  0.00  0.00    -0.001 A 
ATOM     20  C   UNL     1      -0.140  -6.522   0.638  0.00  0.00    +0.013 A 
ATOM     21  C   UNL     1      -0.084  -4.106   1.256  0.00  0.00    +0.020 A 
ATOM     22  C   UNL     1      -0.490  -3.140   2.116  0.00  0.00    +0.035 A 
ATOM     23  C   UNL     1      -1.333  -3.462   3.201  0.00  0.00    +0.254 A 
ATOM     24  O   UNL     1      -1.690  -2.578   3.959  0.00  0.00    -0.268 OA
ATOM     25  N   UNL     1      -1.752  -4.721   3.419  0.00  0.00    -0.322 N 
ATOM     26  H   UNL     1      -2.330  -4.909   4.174  0.00  0.00    +0.169 HD
ENDBRANCH  13  22
ENDBRANCH   1  13
BRANCH   1  27
ATOM     27  C   UNL     1      -1.147  -1.065  -0.283  0.00  0.00    +0.149 C 
BRANCH  27  28
ATOM     28  C   UNL     1      -0.279   0.009  -0.886  0.00  0.00    +0.007 A 
ATOM     29  C   UNL     1       1.051  -0.016  -1.147  0.00  0.00    +0.013 A 
ATOM     30  C   UNL     1       1.645   1.098  -1.711  0.00  0.00    +0.008 A 
ATOM     31  C   UNL     1       0.879   2.183  -1.985  0.00  0.00    +0.045 A 
ATOM     32  S   UNL     1      -0.734   1.643  -1.443  0.00  0.00    -0.100 S 
ENDBRANCH  27  28
ENDBRANCH   1  27
TORSDOF 7
