REMARK  Name = ZINC05192138
REMARK  3 active torsions:
REMARK  status: ('A' for Active; 'I' for Inactive)
REMARK    1  A    between atoms: C_5  and  C_7
REMARK    2  A    between atoms: N_11  and  C_15
REMARK    3  A    between atoms: C_19  and  N_21
REMARK                            x       y       z     vdW  Elec       q    Type
REMARK                         _______ _______ _______ _____ _____    ______ ____
ROOT
ATOM      1  C   UNL     1       6.066   1.449  -0.229  0.00  0.00    +0.031 C 
ATOM      2  C   UNL     1       4.790   1.063  -0.486  0.00  0.00    +0.078 C 
ATOM      3  C   UNL     1       3.570   1.882  -0.633  0.00  0.00    +0.263 C 
ATOM      4  O   UNL     1       3.597   3.094  -0.529  0.00  0.00    -0.269 OA
ATOM      5  N   UNL     1       2.447   1.231  -0.884  0.00  0.00    -0.224 N 
ATOM      6  C   UNL     1       2.420  -0.113  -0.994  0.00  0.00    +0.125 C 
ATOM      7  S   UNL     1       1.077  -1.128  -1.306  0.00  0.00    -0.027 S 
ATOM      8  S   UNL     1       4.125  -0.577  -0.737  0.00  0.00    -0.061 S 
ENDROOT
BRANCH   1  13
ATOM      9  C   UNL     1       8.010  -1.632  -1.112  0.00  0.00    +0.001 A 
ATOM     10  C   UNL     1       9.230  -1.361  -0.515  0.00  0.00    +0.003 A 
ATOM     11  C   UNL     1       9.424  -0.178   0.174  0.00  0.00    +0.039 A 
ATOM     12  C   UNL     1       8.401   0.746   0.269  0.00  0.00    +0.131 A 
ATOM     13  C   UNL     1       7.162   0.475  -0.328  0.00  0.00    +0.011 A 
ATOM     14  C   UNL     1       6.977  -0.725  -1.024  0.00  0.00    +0.011 A 
ATOM     15  F   UNL     1       8.592   1.904   0.938  0.00  0.00    -0.205 F 
ENDBRANCH   1  13
BRANCH   5  16
ATOM     16  C   UNL     1       1.256   1.954  -1.034  0.00  0.00    +0.045 A 
ATOM     17  C   UNL     1       0.674   2.572   0.065  0.00  0.00    +0.024 A 
ATOM     18  C   UNL     1      -0.500   3.284  -0.086  0.00  0.00    +0.004 A 
ATOM     19  C   UNL     1      -1.096   3.382  -1.331  0.00  0.00    +0.033 A 
ATOM     20  C   UNL     1      -0.516   2.772  -2.428  0.00  0.00    +0.128 A 
ATOM     21  C   UNL     1       0.655   2.054  -2.282  0.00  0.00    +0.056 A 
BRANCH  20  22
ATOM     22  N   UNL     1      -1.154   2.884  -3.759  0.00  0.00    +0.056 N 
ATOM     23  O   UNL     1      -0.646   2.343  -4.725  0.00  0.00    -0.126 OA
ATOM     24  O   UNL     1      -2.186   3.517  -3.888  0.00  0.00    -0.126 OA
ENDBRANCH  20  22
ENDBRANCH   5  16
TORSDOF 3
