REMARK  Name = ZINC42441031
REMARK  7 active torsions:
REMARK  status: ('A' for Active; 'I' for Inactive)
REMARK    1  A    between atoms: C_1  and  C_2
REMARK    2  A    between atoms: C_3  and  N_18
REMARK    3  A    between atoms: C_4  and  N_8
REMARK    4  A    between atoms: N_5  and  C_7
REMARK    5  A    between atoms: N_8  and  C_9
REMARK    6  A    between atoms: N_8  and  C_10
REMARK    7  A    between atoms: C_10  and  C_11
REMARK                            x       y       z     vdW  Elec       q    Type
REMARK                         _______ _______ _______ _____ _____    ______ ____
ROOT
ATOM      1  C   UNL     1      -1.546   0.532   1.299  0.00  0.00    +0.067 C 
ATOM      2  C   UNL     1      -0.651  -0.425   0.555  0.00  0.00    +0.054 A 
ATOM      3  C   UNL     1      -1.078  -1.509  -0.221  0.00  0.00    +0.085 A 
ATOM      4  C   UNL     1       0.030  -2.123  -0.725  0.00  0.00    +0.139 A 
ATOM      5  N   UNL     1       1.117  -1.438  -0.274  0.00  0.00    -0.275 N 
ATOM      6  N   UNL     1       0.657  -0.379   0.519  0.00  0.00    -0.299 N 
ATOM      7  C   UNL     1       2.517  -1.750  -0.571  0.00  0.00    +0.172 C 
ATOM      8  H   UNL     1       1.214   0.276   0.968  0.00  0.00    +0.187 HD
ENDROOT
BRANCH   3   9
ATOM      9  N   UNL     1      -2.419  -1.899  -0.441  0.00  0.00    -0.354 N 
ATOM     10  H   UNL     1      -3.139  -1.441   0.020  0.00  0.00    +0.142 HD
ATOM     11  H   UNL     1      -2.619  -2.624  -1.053  0.00  0.00    +0.142 HD
ENDBRANCH   3   9
BRANCH   4  12
ATOM     12  N   UNL     1       0.048  -3.249  -1.552  0.00  0.00    -0.313 N 
ATOM     13  C   UNL     1      -0.039  -4.589  -0.967  0.00  0.00    +0.131 C 
BRANCH  12  14
ATOM     14  C   UNL     1       0.152  -3.089  -3.005  0.00  0.00    +0.142 C 
BRANCH  14  15
ATOM     15  C   UNL     1      -1.220  -2.863  -3.585  0.00  0.00    -0.016 A 
ATOM     16  C   UNL     1      -1.947  -3.931  -4.077  0.00  0.00    +0.006 A 
ATOM     17  C   UNL     1      -3.206  -3.723  -4.609  0.00  0.00    +0.000 A 
ATOM     18  C   UNL     1      -3.739  -2.448  -4.649  0.00  0.00    +0.001 A 
ATOM     19  C   UNL     1      -3.012  -1.380  -4.157  0.00  0.00    +0.015 A 
ATOM     20  C   UNL     1      -1.754  -1.588  -3.620  0.00  0.00    +0.023 A 
ATOM     21 BR   UNL     1      -0.763  -0.128  -2.941  0.00  0.00    -0.050 Br
ENDBRANCH  14  15
ENDBRANCH  12  14
ENDBRANCH   4  12
TORSDOF 4
