REMARK  Name = ZINC36027215
REMARK  8 active torsions:
REMARK  status: ('A' for Active; 'I' for Inactive)
REMARK    1  A    between atoms: C_1  and  C_2
REMARK    2  A    between atoms: C_2  and  C_3
REMARK    3  A    between atoms: C_3  and  C_5
REMARK    4  A    between atoms: C_3  and  C_6
REMARK    5  A    between atoms: C_6  and  N_7
REMARK    6  A    between atoms: C_10  and  C_30
REMARK    7  A    between atoms: N_16  and  S_19
REMARK    8  A    between atoms: S_19  and  C_22
REMARK                            x       y       z     vdW  Elec       q    Type
REMARK                         _______ _______ _______ _____ _____    ______ ____
ROOT
ATOM      1  N   UNL     1       1.152  -2.561   2.573  0.00  0.00    -0.313 N 
ATOM      2  C   UNL     1       2.437  -2.876   2.838  0.00  0.00    +0.200 C 
ATOM      3  O   UNL     1       3.367  -2.768   2.067  0.00  0.00    -0.277 OA
ATOM      4  C   UNL     1       2.523  -3.385   4.261  0.00  0.00    +0.016 C 
ATOM      5  N   UNL     1       1.125  -3.714   4.630  0.00  0.00    +0.401 N 
ATOM      6  C   UNL     1       0.331  -2.818   3.760  0.00  0.00    +0.006 C 
ATOM      7  C   UNL     1       0.036  -1.510   4.492  0.00  0.00    +0.023 C 
ATOM      8  C   UNL     1      -0.753  -0.578   3.567  0.00  0.00    +0.109 C 
ATOM      9  N   UNL     1      -1.943  -1.290   3.081  0.00  0.00    -0.177 NA
ATOM     10  C   UNL     1      -1.769  -2.594   2.428  0.00  0.00    +0.109 C 
ATOM     11  C   UNL     1      -0.971  -3.510   3.362  0.00  0.00    +0.023 C 
ATOM     12  C   UNL     1       3.402  -4.636   4.326  0.00  0.00    -0.004 C 
ATOM     13  H   UNL     1       0.922  -4.682   4.431  0.00  0.00    -0.082 HD
ATOM     14  H   UNL     1       0.955  -3.505   5.602  0.00  0.00    -0.082 HD
ENDROOT
BRANCH   9  15
ATOM     15  S   UNL     1      -3.453  -0.634   3.266  0.00  0.00    +0.061 S 
ATOM     16  O   UNL     1      -4.372  -1.717   3.239  0.00  0.00    -0.153 OA
ATOM     17  O   UNL     1      -3.372   0.269   4.360  0.00  0.00    -0.153 OA
BRANCH  15  18
ATOM     18  C   UNL     1      -3.777   0.339   1.833  0.00  0.00    +0.107 A 
ATOM     19  C   UNL     1      -3.418   1.674   1.809  0.00  0.00    +0.030 A 
ATOM     20  C   UNL     1      -3.673   2.438   0.686  0.00  0.00    +0.023 A 
ATOM     21  C   UNL     1      -4.287   1.867  -0.415  0.00  0.00    +0.059 A 
ATOM     22  C   UNL     1      -4.645   0.530  -0.391  0.00  0.00    +0.061 A 
ATOM     23  C   UNL     1      -4.385  -0.234   0.733  0.00  0.00    +0.050 A 
ATOM     24 CL   UNL     1      -5.416  -0.187  -1.771  0.00  0.00    -0.082 Cl
ATOM     25 CL   UNL     1      -4.607   2.827  -1.826  0.00  0.00    -0.082 Cl
ENDBRANCH  15  18
ENDBRANCH   9  15
BRANCH   1  26
ATOM     26  C   UNL     1       0.655  -2.037   1.299  0.00  0.00    +0.109 C 
BRANCH  26  27
ATOM     27  C   UNL     1       0.506  -3.186   0.299  0.00  0.00    +0.003 C 
ATOM     28  C   UNL     1      -0.192  -4.366   0.978  0.00  0.00    +0.009 C 
BRANCH  27  30
ATOM     29  C   UNL     1      -0.374  -3.824  -1.951  0.00  0.00    +0.004 C 
ATOM     30  C   UNL     1      -0.329  -2.718  -0.895  0.00  0.00    +0.001 C 
ENDBRANCH  27  30
ENDBRANCH  26  27
ENDBRANCH   1  26
TORSDOF 5
