REMARK  Name = ZINC39528096
REMARK  7 active torsions:
REMARK  status: ('A' for Active; 'I' for Inactive)
REMARK    1  A    between atoms: C_1  and  S_2
REMARK    2  A    between atoms: S_2  and  C_3
REMARK    3  A    between atoms: N_6  and  C_10
REMARK    4  A    between atoms: C_13  and  C_23
REMARK    5  A    between atoms: C_15  and  C_16
REMARK    6  A    between atoms: C_16  and  C_17
REMARK    7  A    between atoms: C_28  and  O_29
REMARK                            x       y       z     vdW  Elec       q    Type
REMARK                         _______ _______ _______ _____ _____    ______ ____
ROOT
ATOM      1  C   UNL     1       4.441  -1.876  -2.252  0.00  0.00    +0.033 A 
ATOM      2  C   UNL     1       5.478  -2.781  -2.061  0.00  0.00    +0.024 A 
ATOM      3  C   UNL     1       6.787  -2.357  -2.133  0.00  0.00    +0.010 A 
ATOM      4  C   UNL     1       7.071  -1.017  -2.398  0.00  0.00    -0.014 A 
ATOM      5  C   UNL     1       6.029  -0.111  -2.590  0.00  0.00    +0.014 A 
ATOM      6  C   UNL     1       4.721  -0.541  -2.522  0.00  0.00    -0.021 A 
ENDROOT
BRANCH   1   9
ATOM      7  C   UNL     1       1.684  -3.889  -3.360  0.00  0.00    +0.129 C 
ATOM      8  C   UNL     1       2.312  -2.491  -3.397  0.00  0.00    +0.134 C 
ATOM      9  N   UNL     1       3.115  -2.308  -2.178  0.00  0.00    -0.326 N 
ATOM     10  C   UNL     1       2.485  -2.593  -0.880  0.00  0.00    +0.120 C 
ATOM     11  C   UNL     1       1.850  -3.986  -0.942  0.00  0.00    +0.101 C 
ATOM     12  N   UNL     1       0.948  -4.059  -2.100  0.00  0.00    -0.302 NA
ATOM     13  H   UNL     1       0.204  -3.382  -2.021  0.00  0.00    +0.123 HD
BRANCH   7  15
ATOM     14  C   UNL     1       0.941  -5.711  -5.433  0.00  0.00    +0.086 C 
ATOM     15  S   UNL     1       0.542  -4.076  -4.757  0.00  0.00    -0.144 S 
ENDBRANCH   7  15
ENDBRANCH   1   9
BRANCH   4  16
ATOM     16  C   UNL     1       8.479  -0.558  -2.476  0.00  0.00    +0.024 A 
ATOM     17  C   UNL     1       8.908   0.203  -3.561  0.00  0.00    +0.012 A 
ATOM     18  C   UNL     1      10.219   0.628  -3.629  0.00  0.00    +0.001 A 
ATOM     19  C   UNL     1      11.111   0.301  -2.623  0.00  0.00    +0.004 A 
ATOM     20  C   UNL     1      10.696  -0.454  -1.542  0.00  0.00    +0.046 A 
ATOM     21  C   UNL     1       9.381  -0.882  -1.458  0.00  0.00    +0.125 A 
BRANCH  21  22
ATOM     22  O   UNL     1       8.970  -1.618  -0.392  0.00  0.00    -0.506 OA
ATOM     23  H   UNL     1       9.069  -2.573  -0.512  0.00  0.00    +0.292 HD
ENDBRANCH  21  22
ENDBRANCH   4  16
BRANCH   6  24
ATOM     24  C   UNL     1       3.595   0.437  -2.735  0.00  0.00    +0.072 C 
BRANCH  24  25
ATOM     25  C   UNL     1       3.175   1.016  -1.408  0.00  0.00    -0.043 A 
ATOM     26  C   UNL     1       1.999   0.599  -0.813  0.00  0.00    +0.004 A 
ATOM     27  C   UNL     1       1.614   1.131   0.404  0.00  0.00    +0.000 A 
ATOM     28  C   UNL     1       2.405   2.079   1.025  0.00  0.00    +0.000 A 
ATOM     29  C   UNL     1       3.582   2.495   0.430  0.00  0.00    +0.000 A 
ATOM     30  C   UNL     1       3.969   1.960  -0.784  0.00  0.00    +0.004 A 
ENDBRANCH  24  25
ENDBRANCH   6  24
TORSDOF 6
