REMARK  Name = ZINC39355078
REMARK  9 active torsions:
REMARK  status: ('A' for Active; 'I' for Inactive)
REMARK    1  A    between atoms: C_1  and  C_2
REMARK    2  A    between atoms: C_2  and  N_3
REMARK    3  A    between atoms: C_7  and  C_11
REMARK    4  A    between atoms: C_12  and  C_14
REMARK    5  A    between atoms: C_14  and  C_15
REMARK    6  A    between atoms: C_15  and  C_16
REMARK    7  A    between atoms: C_20  and  C_23
REMARK    8  A    between atoms: C_23  and  C_24
REMARK    9  A    between atoms: C_24  and  C_25
REMARK                            x       y       z     vdW  Elec       q    Type
REMARK                         _______ _______ _______ _____ _____    ______ ____
ROOT
ATOM      1  C   UNL     1      -6.473  -4.767   2.814  0.00  0.00    +0.202 C 
ATOM      2  N   UNL     1      -7.189  -6.060   2.733  0.00  0.00    -0.227 NA
ATOM      3  N   UNL     1      -8.306  -5.900   3.680  0.00  0.00    -0.227 NA
ATOM      4  C   UNL     1      -8.669  -4.470   3.502  0.00  0.00    +0.202 C 
ATOM      5  O   UNL     1      -7.408  -3.795   3.305  0.00  0.00    -0.342 OA
ATOM      6  H   UNL     1      -6.589  -6.824   3.007  0.00  0.00    +0.143 HD
ATOM      7  H   UNL     1      -8.006  -6.083   4.626  0.00  0.00    +0.143 HD
ENDROOT
BRANCH   1   8
ATOM      8  C   UNL     1      -5.976  -4.357   1.426  0.00  0.00    +0.058 C 
BRANCH   8   9
ATOM      9  C   UNL     1      -5.142  -3.080   1.539  0.00  0.00    +0.100 C 
BRANCH   9  18
ATOM     10  N   UNL     1      -1.372  -0.511   0.012  0.00  0.00    -0.299 N 
ATOM     11  C   UNL     1      -1.997  -0.747   1.307  0.00  0.00    +0.126 C 
ATOM     12  C   UNL     1      -3.522  -0.740   1.182  0.00  0.00    +0.127 C 
ATOM     13  N   UNL     1      -3.893  -1.574   0.026  0.00  0.00    -0.289 N 
ATOM     14  C   UNL     1      -3.400  -1.153  -1.294  0.00  0.00    +0.159 C 
ATOM     15  C   UNL     1      -1.965  -0.720  -1.164  0.00  0.00    +0.236 C 
ATOM     16  O   UNL     1      -1.317  -0.557  -2.176  0.00  0.00    -0.274 OA
ATOM     17  C   UNL     1      -4.242   0.018  -1.806  0.00  0.00    +0.038 C 
ATOM     18  C   UNL     1      -4.653  -2.677   0.171  0.00  0.00    +0.216 C 
ATOM     19  O   UNL     1      -4.943  -3.345  -0.798  0.00  0.00    -0.276 OA
BRANCH  10  21
ATOM     20  C   UNL     1      -0.019   1.526   0.010  0.00  0.00    +0.024 C 
ATOM     21  C   UNL     1       0.002  -0.004   0.002  0.00  0.00    +0.104 C 
ENDBRANCH  10  21
ENDBRANCH   9  18
ENDBRANCH   8   9
ENDBRANCH   1   8
BRANCH   4  22
ATOM     22  C   UNL     1      -9.368  -3.938   4.755  0.00  0.00    +0.054 C 
BRANCH  22  23
ATOM     23  C   UNL     1      -9.843  -2.505   4.504  0.00  0.00    +0.041 C 
BRANCH  23  24
ATOM     24  C   UNL     1     -10.532  -1.981   5.737  0.00  0.00    -0.022 A 
ATOM     25  C   UNL     1      -9.889  -1.358   6.897  0.00  0.00    +0.003 A 
ATOM     26  C   UNL     1      -8.566  -1.064   7.231  0.00  0.00    +0.010 A 
ATOM     27  C   UNL     1      -8.285  -0.461   8.424  0.00  0.00    +0.001 A 
ATOM     28  C   UNL     1      -9.305  -0.139   9.308  0.00  0.00    +0.002 A 
ATOM     29  C   UNL     1     -10.618  -0.420   8.999  0.00  0.00    +0.026 A 
ATOM     30  C   UNL     1     -10.927  -1.033   7.789  0.00  0.00    +0.047 A 
ATOM     31  N   UNL     1     -12.106  -1.434   7.203  0.00  0.00    -0.360 N 
ATOM     32  C   UNL     1     -11.852  -1.991   5.979  0.00  0.00    +0.087 A 
ATOM     33  H   UNL     1     -12.987  -1.333   7.597  0.00  0.00    +0.165 HD
ENDBRANCH  23  24
ENDBRANCH  22  23
ENDBRANCH   4  22
TORSDOF 7
