REMARK  Name = ZINC10325322
REMARK  6 active torsions:
REMARK  status: ('A' for Active; 'I' for Inactive)
REMARK    1  A    between atoms: C_1  and  C_2
REMARK    2  A    between atoms: C_2  and  C_3
REMARK    3  A    between atoms: C_4  and  C_25
REMARK    4  A    between atoms: C_14  and  C_24
REMARK    5  A    between atoms: C_17  and  C_23
REMARK    6  A    between atoms: C_19  and  C_22
REMARK                            x       y       z     vdW  Elec       q    Type
REMARK                         _______ _______ _______ _____ _____    ______ ____
ROOT
ATOM      1  C   UNL     1       1.245  -0.663  -0.013  0.00  0.00    +0.038 A 
ATOM      2  C   UNL     1       2.387   0.084  -0.020  0.00  0.00    +0.050 A 
ATOM      3  N   UNL     1       2.315   1.413  -0.012  0.00  0.00    -0.221 NA
ATOM      4  C   UNL     1       1.155   2.038   0.002  0.00  0.00    +0.202 A 
ATOM      5  N   UNL     1      -0.016   1.346   0.009  0.00  0.00    -0.295 N 
ATOM      6  H   UNL     1      -0.862   1.821   0.016  0.00  0.00    +0.172 HD
ATOM      7  C   UNL     1       0.002  -0.004   0.002  0.00  0.00    +0.256 A 
ATOM      8  O   UNL     1      -1.039  -0.640   0.009  0.00  0.00    -0.267 OA
ATOM      9  N   UNL     1       1.128   3.410   0.010  0.00  0.00    -0.254 N 
ATOM     10  C   UNL     1       2.316   4.127   0.002  0.00  0.00    +0.222 A 
ATOM     11  N   UNL     1       3.466   3.457  -0.013  0.00  0.00    -0.219 NA
ATOM     12  C   UNL     1       4.626   4.080  -0.021  0.00  0.00    +0.051 A 
ATOM     13  C   UNL     1       4.632   5.487  -0.014  0.00  0.00    +0.022 A 
ATOM     14  C   UNL     1       5.823   6.227  -0.021  0.00  0.00    +0.015 A 
ATOM     15  C   UNL     1       5.768   7.588  -0.013  0.00  0.00    -0.049 A 
ATOM     16  C   UNL     1       4.546   8.256   0.002  0.00  0.00    +0.008 A 
ATOM     17  C   UNL     1       3.369   7.569   0.010  0.00  0.00    -0.024 A 
ATOM     18  C   UNL     1       3.386   6.166   0.002  0.00  0.00    +0.079 A 
ATOM     19  N   UNL     1       2.259   5.444   0.004  0.00  0.00    -0.214 NA
ATOM     20  C   UNL     1       2.058   8.311   0.026  0.00  0.00    +0.046 C 
ATOM     21  C   UNL     1       7.048   8.383  -0.022  0.00  0.00    +0.044 C 
ATOM     22  C   UNL     1       5.918   3.304  -0.037  0.00  0.00    +0.066 C 
ATOM     23  C   UNL     1       3.731  -0.597  -0.037  0.00  0.00    +0.066 C 
ATOM     24  H   UNL     1       0.279   3.878   0.020  0.00  0.00    +0.158 HD
ENDROOT
BRANCH   1  26
ATOM     25  C   UNL     1       1.225  -2.691   1.414  0.00  0.00    +0.009 C 
ATOM     26  C   UNL     1       1.313  -2.168  -0.022  0.00  0.00    +0.039 C 
ENDBRANCH   1  26
TORSDOF 1
