REMARK  Name = ZINC02146561
REMARK  4 active torsions:
REMARK  status: ('A' for Active; 'I' for Inactive)
REMARK    1  A    between atoms: C_1  and  C_2
REMARK    2  A    between atoms: C_2  and  C_3
REMARK    3  A    between atoms: C_3  and  N_4
REMARK    4  A    between atoms: C_20  and  C_25
REMARK                            x       y       z     vdW  Elec       q    Type
REMARK                         _______ _______ _______ _____ _____    ______ ____
ROOT
ATOM      1  N   UNL     1       2.127   0.893   0.003  0.00  0.00    -0.252 N 
ATOM      2  C   UNL     1       1.502  -0.301  -0.025  0.00  0.00    +0.242 C 
ATOM      3  O   UNL     1       2.019  -1.396  -0.087  0.00  0.00    -0.273 OA
ATOM      4  C   UNL     1       0.019   0.006   0.039  0.00  0.00    +0.167 C 
ATOM      5  C   UNL     1      -0.685  -0.481  -1.234  0.00  0.00    +0.069 C 
ATOM      6  C   UNL     1      -1.934   0.334  -1.458  0.00  0.00    -0.015 A 
ATOM      7  C   UNL     1      -3.075  -0.013  -2.285  0.00  0.00    +0.003 A 
ATOM      8  C   UNL     1      -3.365  -1.130  -3.075  0.00  0.00    +0.010 A 
ATOM      9  C   UNL     1      -4.566  -1.123  -3.740  0.00  0.00    +0.001 A 
ATOM     10  C   UNL     1      -5.456  -0.067  -3.642  0.00  0.00    +0.002 A 
ATOM     11  C   UNL     1      -5.195   1.050  -2.866  0.00  0.00    +0.026 A 
ATOM     12  C   UNL     1      -3.983   1.071  -2.179  0.00  0.00    +0.047 A 
ATOM     13  N   UNL     1      -3.419   1.992  -1.345  0.00  0.00    -0.356 N 
ATOM     14  H   UNL     1      -3.822   2.838  -1.092  0.00  0.00    +0.166 HD
ATOM     15  C   UNL     1      -2.198   1.542  -0.918  0.00  0.00    +0.046 A 
ATOM     16  C   UNL     1      -1.257   2.263   0.006  0.00  0.00    +0.153 C 
ATOM     17  N   UNL     1      -0.013   1.485   0.040  0.00  0.00    -0.288 N 
ATOM     18  C   UNL     1       1.253   1.909   0.056  0.00  0.00    +0.143 C 
ATOM     19  S   UNL     1       1.707   3.557   0.134  0.00  0.00    -0.018 S 
ENDROOT
BRANCH  16  20
ATOM     20  C   UNL     1      -0.982   3.659  -0.488  0.00  0.00    -0.021 A 
ATOM     21  C   UNL     1      -1.343   4.749   0.283  0.00  0.00    +0.006 A 
ATOM     22  C   UNL     1      -1.086   6.030  -0.168  0.00  0.00    +0.000 A 
ATOM     23  C   UNL     1      -0.476   6.222  -1.393  0.00  0.00    +0.000 A 
ATOM     24  C   UNL     1      -0.119   5.133  -2.166  0.00  0.00    +0.000 A 
ATOM     25  C   UNL     1      -0.372   3.852  -1.714  0.00  0.00    +0.006 A 
ENDBRANCH  16  20
BRANCH   1  26
ATOM     26  C   UNL     1       3.582   1.061  -0.023  0.00  0.00    +0.115 C 
BRANCH  26  28
ATOM     27  C   UNL     1       5.577   1.344  -1.500  0.00  0.00    +0.005 C 
ATOM     28  C   UNL     1       4.057   1.169  -1.473  0.00  0.00    +0.016 C 
ENDBRANCH  26  28
ENDBRANCH   1  26
TORSDOF 3
