REMARK  Name = ZINC16846617
REMARK  4 active torsions:
REMARK  status: ('A' for Active; 'I' for Inactive)
REMARK    1  A    between atoms: C_1  and  C_2
REMARK    2  A    between atoms: N_11  and  C_21
REMARK    3  A    between atoms: C_15  and  S_19
REMARK    4  A    between atoms: S_19  and  C_20
REMARK                            x       y       z     vdW  Elec       q    Type
REMARK                         _______ _______ _______ _____ _____    ______ ____
ROOT
ATOM      1  C   UNL     1       4.090  -0.590  -3.798  0.00  0.00    +0.008 C 
ATOM      2  C   UNL     1       3.784   0.735  -3.097  0.00  0.00    -0.009 C 
ATOM      3  C   UNL     1       4.998   1.164  -2.268  0.00  0.00    +0.009 C 
ATOM      4  C   UNL     1       4.781   2.605  -1.782  0.00  0.00    +0.043 C 
ATOM      5  C   UNL     1       3.402   2.703  -1.204  0.00  0.00    -0.004 A 
ATOM      6  C   UNL     1       2.391   1.824  -1.355  0.00  0.00    -0.023 A 
ATOM      7  C   UNL     1       1.139   2.165  -0.676  0.00  0.00    +0.075 A 
ATOM      8  C   UNL     1      -0.128   1.399  -0.663  0.00  0.00    +0.268 A 
ATOM      9  O   UNL     1      -0.213   0.347  -1.270  0.00  0.00    -0.266 OA
ATOM     10  N   UNL     1      -1.185   1.872   0.018  0.00  0.00    -0.245 N 
ATOM     11  C   UNL     1      -1.117   3.063   0.724  0.00  0.00    +0.245 A 
ATOM     12  N   UNL     1      -2.007   3.700   1.448  0.00  0.00    -0.109 NA
ATOM     13  N   UNL     1      -1.414   4.871   1.935  0.00  0.00    -0.120 NA
ATOM     14  C   UNL     1      -0.181   4.916   1.494  0.00  0.00    +0.198 A 
ATOM     15  N   UNL     1       0.040   3.799   0.732  0.00  0.00    -0.249 N 
ATOM     16  C   UNL     1       1.146   3.355   0.043  0.00  0.00    +0.102 A 
ATOM     17  S   UNL     1       2.737   3.984  -0.178  0.00  0.00    -0.074 S 
ATOM     18  C   UNL     1       2.567   0.559  -2.186  0.00  0.00    +0.040 C 
ENDROOT
BRANCH  10  19
ATOM     19  C   UNL     1      -2.381   1.143   0.019  0.00  0.00    +0.053 A 
ATOM     20  C   UNL     1      -2.609   0.183   0.996  0.00  0.00    +0.026 A 
ATOM     21  C   UNL     1      -3.791  -0.531   0.997  0.00  0.00    +0.002 A 
ATOM     22  C   UNL     1      -4.743  -0.297   0.021  0.00  0.00    +0.000 A 
ATOM     23  C   UNL     1      -4.516   0.654  -0.956  0.00  0.00    +0.002 A 
ATOM     24  C   UNL     1      -3.338   1.375  -0.960  0.00  0.00    +0.026 A 
ENDBRANCH  10  19
BRANCH  14  25
ATOM     25  S   UNL     1       0.990   6.191   1.823  0.00  0.00    -0.089 S 
ATOM     26  C   UNL     1       0.084   7.358   2.876  0.00  0.00    +0.093 C 
ENDBRANCH  14  25
TORSDOF 2
