REMARK  Name = ZINC17015026
REMARK  3 active torsions:
REMARK  status: ('A' for Active; 'I' for Inactive)
REMARK    1  A    between atoms: C_1  and  C_2
REMARK    2  A    between atoms: C_10  and  C_11
REMARK    3  A    between atoms: N_16  and  C_17
REMARK                            x       y       z     vdW  Elec       q    Type
REMARK                         _______ _______ _______ _____ _____    ______ ____
ROOT
ATOM      1  C   UNL     1      -0.336  -0.375   2.514  0.00  0.00    +0.180 A 
ATOM      2  N   UNL     1      -0.568   0.889   2.827  0.00  0.00    -0.194 NA
ATOM      3  C   UNL     1      -0.582   1.284   4.103  0.00  0.00    +0.218 A 
ATOM      4  N   UNL     1      -0.365   0.427   5.089  0.00  0.00    -0.181 NA
ATOM      5  C   UNL     1      -0.126  -0.864   4.823  0.00  0.00    +0.211 A 
ATOM      6  N   UNL     1       0.091  -1.722   5.808  0.00  0.00    -0.326 N 
ATOM      7  N   UNL     1      -0.113  -1.291   3.510  0.00  0.00    -0.307 N 
ATOM      8  N   UNL     1      -0.825   2.606   4.398  0.00  0.00    -0.327 N 
ATOM      9  H   UNL     1      -0.985   3.241   3.682  0.00  0.00    +0.145 HD
ATOM     10  H   UNL     1      -0.837   2.902   5.321  0.00  0.00    +0.145 HD
ATOM     11  H   UNL     1       0.055  -2.222   3.296  0.00  0.00    +0.170 HD
ATOM     12  H   UNL     1       0.173  -2.669   5.617  0.00  0.00    +0.169 HD
ENDROOT
BRANCH   1  22
ATOM     13  C   UNL     1      -0.813   1.503   0.080  0.00  0.00    +0.048 C 
ATOM     14  C   UNL     1      -0.533   0.023   0.043  0.00  0.00    +0.006 A 
ATOM     15  C   UNL     1      -0.424  -0.822  -1.146  0.00  0.00    +0.024 A 
ATOM     16  C   UNL     1      -0.528  -0.588  -2.519  0.00  0.00    +0.012 A 
ATOM     17  C   UNL     1      -0.369  -1.624  -3.396  0.00  0.00    +0.001 A 
ATOM     18  C   UNL     1      -0.105  -2.905  -2.932  0.00  0.00    +0.004 A 
ATOM     19  C   UNL     1       0.002  -3.156  -1.581  0.00  0.00    +0.047 A 
ATOM     20  C   UNL     1      -0.155  -2.119  -0.669  0.00  0.00    +0.136 A 
ATOM     21  O   UNL     1      -0.108  -2.057   0.676  0.00  0.00    -0.451 OA
ATOM     22  C   UNL     1      -0.324  -0.797   1.107  0.00  0.00    +0.174 A 
ENDBRANCH   1  22
BRANCH   6  23
ATOM     23  C   UNL     1       0.200  -1.272   7.094  0.00  0.00    +0.042 A 
ATOM     24  C   UNL     1      -0.273  -2.053   8.153  0.00  0.00    +0.026 A 
ATOM     25  C   UNL     1      -0.160  -1.592   9.448  0.00  0.00    +0.002 A 
ATOM     26  C   UNL     1       0.420  -0.361   9.700  0.00  0.00    +0.000 A 
ATOM     27  C   UNL     1       0.890   0.417   8.657  0.00  0.00    +0.002 A 
ATOM     28  C   UNL     1       0.789  -0.033   7.357  0.00  0.00    +0.026 A 
ENDBRANCH   6  23
TORSDOF 2
