REMARK  Name = ZINC66199902
REMARK  15 active torsions:
REMARK  status: ('A' for Active; 'I' for Inactive)
REMARK    1  A    between atoms: C_1  and  C_2
REMARK    2  A    between atoms: C_2  and  C_3
REMARK    3  A    between atoms: C_3  and  C_5
REMARK    4  A    between atoms: C_3  and  N_6
REMARK    5  A    between atoms: C_7  and  C_9
REMARK    6  A    between atoms: C_14  and  N_15
REMARK    7  A    between atoms: N_15  and  C_16
REMARK    8  A    between atoms: C_16  and  N_18
REMARK    9  A    between atoms: C_19  and  C_21
REMARK   10  A    between atoms: C_21  and  C_23
REMARK   11  A    between atoms: C_21  and  C_24
REMARK   12  A    between atoms: C_27  and  C_30
REMARK   13  A    between atoms: C_30  and  C_31
REMARK   14  A    between atoms: C_31  and  C_32
REMARK   15  A    between atoms: C_31  and  C_33
REMARK                            x       y       z     vdW  Elec       q    Type
REMARK                         _______ _______ _______ _____ _____    ______ ____
ROOT
ATOM      1  C   UNL     1       2.506   0.013   7.263  0.00  0.00    +0.141 C 
ATOM      2  S   UNL     1       1.620   0.183   8.718  0.00  0.00    -0.018 S 
ENDROOT
BRANCH   1   3
ATOM      3  N   UNL     1       3.838  -0.191   7.306  0.00  0.00    -0.267 N 
ATOM      4  C   UNL     1       4.471  -0.263   8.493  0.00  0.00    +0.226 C 
ATOM      5  O   UNL     1       3.843  -0.143   9.523  0.00  0.00    -0.275 OA
ATOM      6  H   UNL     1       4.340  -0.287   6.481  0.00  0.00    +0.157 HD
BRANCH   4   7
ATOM      7  C   UNL     1       5.960  -0.492   8.540  0.00  0.00    +0.102 C 
ATOM      8  C   UNL     1       6.675   0.646   7.809  0.00  0.00    +0.022 C 
BRANCH   7   9
ATOM      9  C   UNL     1       6.417  -0.531   9.976  0.00  0.00    -0.036 A 
ATOM     10  C   UNL     1       6.217   0.564  10.795  0.00  0.00    +0.004 A 
ATOM     11  C   UNL     1       6.636   0.528  12.112  0.00  0.00    +0.004 A 
ATOM     12  C   UNL     1       7.255  -0.603  12.610  0.00  0.00    -0.047 A 
ATOM     13  C   UNL     1       7.454  -1.699  11.791  0.00  0.00    +0.004 A 
ATOM     14  C   UNL     1       7.031  -1.665  10.475  0.00  0.00    +0.004 A 
BRANCH  12  15
ATOM     15  C   UNL     1       7.712  -0.642  14.045  0.00  0.00    +0.038 C 
BRANCH  15  16
ATOM     16  C   UNL     1       6.584  -1.183  14.926  0.00  0.00    -0.013 C 
ATOM     17  C   UNL     1       7.089  -1.340  16.362  0.00  0.00    +0.007 C 
ATOM     18  C   UNL     1       5.406  -0.207  14.903  0.00  0.00    +0.007 C 
ENDBRANCH  15  16
ENDBRANCH  12  15
ENDBRANCH   7   9
ENDBRANCH   4   7
ENDBRANCH   1   3
BRANCH   1  19
ATOM     19  N   UNL     1       1.873   0.085   6.076  0.00  0.00    -0.296 N 
ATOM     20  H   UNL     1       2.361  -0.085   5.255  0.00  0.00    +0.154 HD
BRANCH  19  26
ATOM     21  C   UNL     1       0.041   1.306   5.065  0.00  0.00    +0.058 A 
ATOM     22  C   UNL     1      -1.321   1.613   5.024  0.00  0.00    +0.015 A 
ATOM     23  C   UNL     1      -2.184   1.034   5.929  0.00  0.00    +0.001 A 
ATOM     24  C   UNL     1      -1.708   0.149   6.882  0.00  0.00    +0.002 A 
ATOM     25  C   UNL     1      -0.365  -0.164   6.936  0.00  0.00    +0.024 A 
ATOM     26  C   UNL     1       0.519   0.404   6.027  0.00  0.00    +0.045 A 
BRANCH  21  28
ATOM     27  N   UNL     1       0.492   2.693   3.102  0.00  0.00    -0.309 N 
ATOM     28  C   UNL     1       0.970   1.922   4.099  0.00  0.00    +0.246 C 
ATOM     29  O   UNL     1       2.167   1.734   4.202  0.00  0.00    -0.270 OA
ATOM     30  H   UNL     1      -0.462   2.843   3.020  0.00  0.00    +0.149 HD
BRANCH  27  31
ATOM     31  C   UNL     1       1.415   3.304   2.143  0.00  0.00    +0.070 C 
ATOM     32  C   UNL     1       1.724   2.306   1.025  0.00  0.00    +0.028 C 
BRANCH  31  34
ATOM     33  C   UNL     1       0.578   5.605   2.643  0.00  0.00    +0.005 C 
ATOM     34  C   UNL     1       0.772   4.557   1.544  0.00  0.00    +0.018 C 
ENDBRANCH  31  34
ENDBRANCH  27  31
ENDBRANCH  21  28
ENDBRANCH  19  26
ENDBRANCH   1  19
TORSDOF 10
