REMARK  Name = ZINC01833160
REMARK  2 active torsions:
REMARK  status: ('A' for Active; 'I' for Inactive)
REMARK    1  A    between atoms: N_14  and  N_15
REMARK    2  A    between atoms: N_15  and  C_16
REMARK                            x       y       z     vdW  Elec       q    Type
REMARK                         _______ _______ _______ _____ _____    ______ ____
ROOT
ATOM      1  C   UNL     1       0.065   1.357   0.199  0.00  0.00    +0.001 A 
ATOM      2  C   UNL     1       1.240   2.063   0.424  0.00  0.00    +0.001 A 
ATOM      3  C   UNL     1       2.426   1.400   0.646  0.00  0.00    +0.012 A 
ATOM      4  C   UNL     1       2.446   0.006   0.645  0.00  0.00    +0.031 A 
ATOM      5  C   UNL     1       1.252  -0.713   0.416  0.00  0.00    +0.029 A 
ATOM      6  C   UNL     1       0.062  -0.020   0.193  0.00  0.00    +0.012 A 
ATOM      7  C   UNL     1       1.302  -2.180   0.419  0.00  0.00    +0.164 A 
ATOM      8  N   UNL     1       2.431  -2.801   0.630  0.00  0.00    -0.147 NA
ATOM      9  N   UNL     1       3.628  -2.123   0.860  0.00  0.00    -0.198 N 
ATOM     10  C   UNL     1       3.679  -0.754   0.875  0.00  0.00    +0.185 A 
ATOM     11  N   UNL     1       4.929  -0.414   1.113  0.00  0.00    -0.128 NA
ATOM     12  N   UNL     1       5.642  -1.477   1.243  0.00  0.00    -0.136 NA
ATOM     13  C   UNL     1       4.893  -2.541   1.099  0.00  0.00    +0.249 A 
ATOM     14  N   UNL     1       0.143  -2.911   0.197  0.00  0.00    -0.249 N 
ATOM     15  H   UNL     1      -0.697  -2.452   0.041  0.00  0.00    +0.171 HD
ENDROOT
BRANCH  14  16
ATOM     16  N   UNL     1       0.187  -4.311   0.200  0.00  0.00    -0.272 N 
ATOM     17  H   UNL     1       1.027  -4.770   0.357  0.00  0.00    +0.169 HD
BRANCH  16  18
ATOM     18  C   UNL     1      -0.940  -5.022  -0.016  0.00  0.00    +0.097 C 
ATOM     19  C   UNL     1      -0.878  -6.398  -0.129  0.00  0.00    +0.017 C 
ATOM     20  C   UNL     1      -1.962  -7.306  -0.243  0.00  0.00    +0.121 C 
ATOM     21  N   UNL     1      -1.501  -8.524  -0.329  0.00  0.00    -0.254 NA
ATOM     22  C   UNL     1      -0.149  -8.567  -0.285  0.00  0.00    +0.072 A 
ATOM     23  C   UNL     1       0.330  -7.245  -0.163  0.00  0.00    +0.010 A 
ATOM     24  C   UNL     1       1.695  -6.997  -0.101  0.00  0.00    +0.011 A 
ATOM     25  C   UNL     1       2.584  -8.049  -0.162  0.00  0.00    +0.001 A 
ATOM     26  C   UNL     1       2.122  -9.352  -0.285  0.00  0.00    +0.002 A 
ATOM     27  C   UNL     1       0.773  -9.619  -0.340  0.00  0.00    +0.028 A 
ENDBRANCH  16  18
ENDBRANCH  14  16
TORSDOF 2
