REMARK  Name = ZINC01357670
REMARK  8 active torsions:
REMARK  status: ('A' for Active; 'I' for Inactive)
REMARK    1  A    between atoms: C_1  and  C_2
REMARK    2  A    between atoms: C_2  and  C_3
REMARK    3  A    between atoms: C_6  and  N_9
REMARK    4  A    between atoms: N_9  and  C_10
REMARK    5  A    between atoms: C_10  and  C_12
REMARK    6  A    between atoms: C_10  and  C_17
REMARK    7  A    between atoms: N_19  and  C_20
REMARK    8  A    between atoms: C_25  and  C_27
REMARK                            x       y       z     vdW  Elec       q    Type
REMARK                         _______ _______ _______ _____ _____    ______ ____
ROOT
ATOM      1  N   UNL     1      -2.662   2.927   4.641  0.00  0.00    -0.247 N 
ATOM      2  C   UNL     1      -3.643   2.234   5.253  0.00  0.00    +0.273 C 
ATOM      3  O   UNL     1      -4.163   2.676   6.259  0.00  0.00    -0.268 OA
ENDROOT
BRANCH   1   7
ATOM      4  C   UNL     1      -1.162   1.626   0.980  0.00  0.00    -0.048 A 
ATOM      5  C   UNL     1      -0.716   1.046   2.153  0.00  0.00    +0.005 A 
ATOM      6  C   UNL     1      -1.208   1.478   3.369  0.00  0.00    +0.024 A 
ATOM      7  C   UNL     1      -2.159   2.490   3.412  0.00  0.00    +0.038 A 
ATOM      8  C   UNL     1      -2.608   3.067   2.231  0.00  0.00    +0.024 A 
ATOM      9  C   UNL     1      -2.108   2.633   1.019  0.00  0.00    +0.005 A 
BRANCH   4  11
ATOM     10  C   UNL     1       0.616   1.980  -0.713  0.00  0.00    +0.009 C 
ATOM     11  C   UNL     1      -0.619   1.155  -0.345  0.00  0.00    +0.032 C 
ENDBRANCH   4  11
ENDBRANCH   1   7
BRANCH   2  12
ATOM     12  C   UNL     1      -4.085   0.941   4.701  0.00  0.00    +0.157 A 
ATOM     13  C   UNL     1      -5.037   0.136   5.311  0.00  0.00    +0.101 A 
ATOM     14  S   UNL     1      -5.106  -1.193   4.202  0.00  0.00    +0.029 S 
ATOM     15  N   UNL     1      -4.041  -0.704   3.146  0.00  0.00    -0.110 NA
ATOM     16  N   UNL     1      -3.618   0.431   3.568  0.00  0.00    -0.136 NA
ENDBRANCH   2  12
BRANCH   1  17
ATOM     17  C   UNL     1      -2.123   4.139   5.264  0.00  0.00    +0.233 C 
BRANCH  17  18
ATOM     18  C   UNL     1      -1.510   3.789   6.596  0.00  0.00    +0.135 A 
ATOM     19  C   UNL     1      -0.367   4.295   7.093  0.00  0.00    +0.047 A 
ATOM     20  C   UNL     1      -0.169   3.694   8.357  0.00  0.00    +0.041 A 
ATOM     21  C   UNL     1      -1.203   2.857   8.557  0.00  0.00    +0.195 A 
ATOM     22  O   UNL     1      -2.015   2.923   7.490  0.00  0.00    -0.465 OA
ENDBRANCH  17  18
BRANCH  17  23
ATOM     23  C   UNL     1      -3.235   5.135   5.470  0.00  0.00    +0.242 C 
ATOM     24  O   UNL     1      -4.366   4.861   5.129  0.00  0.00    -0.273 OA
ATOM     25  N   UNL     1      -2.972   6.332   6.032  0.00  0.00    -0.311 N 
ATOM     26  H   UNL     1      -2.067   6.551   6.304  0.00  0.00    +0.149 HD
BRANCH  25  27
ATOM     27  C   UNL     1      -4.053   7.300   6.232  0.00  0.00    +0.073 C 
ATOM     28  C   UNL     1      -4.219   8.174   4.971  0.00  0.00    +0.022 C 
ATOM     29  C   UNL     1      -4.558   9.580   5.525  0.00  0.00    +0.002 C 
ATOM     30  C   UNL     1      -3.661   9.676   6.784  0.00  0.00    +0.002 C 
ATOM     31  C   UNL     1      -3.698   8.256   7.384  0.00  0.00    +0.022 C 
ENDBRANCH  25  27
ENDBRANCH  17  23
ENDBRANCH   1  17
TORSDOF 7
