REMARK  Name = ZINC49620085
REMARK  6 active torsions:
REMARK  status: ('A' for Active; 'I' for Inactive)
REMARK    1  A    between atoms: C_4  and  C_17
REMARK    2  A    between atoms: C_6  and  C_7
REMARK    3  A    between atoms: C_7  and  O_8
REMARK    4  A    between atoms: O_8  and  C_9
REMARK    5  A    between atoms: C_18  and  C_19
REMARK    6  A    between atoms: C_19  and  O_20
REMARK                            x       y       z     vdW  Elec       q    Type
REMARK                         _______ _______ _______ _____ _____    ______ ____
ROOT
ATOM      1  C   UNL     1      -0.017   1.379   0.010  0.00  0.00    +0.010 A 
ATOM      2  C   UNL     1       1.168   2.094   0.002  0.00  0.00    +0.040 A 
ATOM      3  C   UNL     1       2.379   1.428  -0.013  0.00  0.00    +0.139 A 
ATOM      4  C   UNL     1       2.403   0.030  -0.021  0.00  0.00    +0.060 A 
ATOM      5  C   UNL     1       1.204  -0.682  -0.013  0.00  0.00    +0.026 A 
ATOM      6  C   UNL     1       0.002  -0.004   0.002  0.00  0.00    -0.009 A 
ATOM      7  F   UNL     1       3.535   2.126  -0.021  0.00  0.00    -0.204 F 
ENDROOT
BRANCH   4   8
ATOM      8  C   UNL     1       3.654  -0.667  -0.037  0.00  0.00    -0.061 C 
ATOM      9  C   UNL     1       4.679  -1.239  -0.050  0.00  0.00    -0.069 C 
BRANCH   9  10
ATOM     10  C   UNL     1       5.965  -1.955  -0.067  0.00  0.00    +0.244 C 
BRANCH  10  11
ATOM     11  O   UNL     1       5.725  -3.364  -0.072  0.00  0.00    -0.383 OA
ATOM     12  H   UNL     1       6.529  -3.900  -0.083  0.00  0.00    +0.211 HD
ENDBRANCH  10  11
ENDBRANCH   9  10
ENDBRANCH   4   8
BRANCH   6  13
ATOM     13  C   UNL     1      -1.294  -0.773   0.010  0.00  0.00    +0.264 C 
BRANCH  13  14
ATOM     14  O   UNL     1      -1.716  -1.009  -1.334  0.00  0.00    -0.486 OA
BRANCH  14  15
ATOM     15  C   UNL     1      -2.877  -1.696  -1.505  0.00  0.00    +0.141 A 
ATOM     16  C   UNL     1      -3.597  -2.128  -0.401  0.00  0.00    +0.067 A 
ATOM     17  C   UNL     1      -4.777  -2.826  -0.578  0.00  0.00    +0.045 A 
ATOM     18  C   UNL     1      -5.241  -3.093  -1.854  0.00  0.00    +0.021 A 
ATOM     19  C   UNL     1      -4.525  -2.663  -2.955  0.00  0.00    +0.025 A 
ATOM     20  C   UNL     1      -3.347  -1.960  -2.784  0.00  0.00    +0.083 A 
ATOM     21 CL   UNL     1      -2.452  -1.414  -4.168  0.00  0.00    -0.080 Cl
ATOM     22 CL   UNL     1      -5.679  -3.368   0.803  0.00  0.00    -0.083 Cl
ENDBRANCH  14  15
ENDBRANCH  13  14
ENDBRANCH   6  13
TORSDOF 6
