REMARK  Name = ZINC20699956
REMARK  4 active torsions:
REMARK  status: ('A' for Active; 'I' for Inactive)
REMARK    1  A    between atoms: C_5  and  O_7
REMARK    2  A    between atoms: O_7  and  C_8
REMARK    3  A    between atoms: C_8  and  C_9
REMARK    4  A    between atoms: C_16  and  C_25
REMARK                            x       y       z     vdW  Elec       q    Type
REMARK                         _______ _______ _______ _____ _____    ______ ____
ROOT
ATOM      1  C   UNL     1       3.325   2.381  -1.158  0.00  0.00    +0.004 A 
ATOM      2  C   UNL     1       2.014   1.946  -1.172  0.00  0.00    +0.006 A 
ATOM      3  C   UNL     1       1.386   1.569  -0.003  0.00  0.00    -0.016 A 
ATOM      4  C   UNL     1       2.062   1.632   1.217  0.00  0.00    +0.074 A 
ATOM      5  C   UNL     1       3.393   2.068   1.217  0.00  0.00    +0.142 A 
ATOM      6  C   UNL     1       4.014   2.439   0.040  0.00  0.00    +0.047 A 
ATOM      7  N   UNL     1       1.493   1.295   2.446  0.00  0.00    -0.334 N 
ATOM      8  C   UNL     1       0.121   0.764   2.416  0.00  0.00    +0.105 C 
ATOM      9  C   UNL     1      -0.635   1.547   1.363  0.00  0.00    +0.029 C 
ATOM     10  C   UNL     1      -0.013   1.086   0.008  0.00  0.00    +0.049 C 
ATOM     11  C   UNL     1      -1.023   1.542  -0.978  0.00  0.00    -0.023 C 
ATOM     12  C   UNL     1      -2.206   1.566  -0.415  0.00  0.00    -0.030 C 
ATOM     13  C   UNL     1      -2.085   1.154   1.055  0.00  0.00    +0.033 C 
ATOM     14  H   UNL     1       2.018   1.408   3.406  0.00  0.00    +0.147 HD
ENDROOT
BRANCH   8  15
ATOM     15  C   UNL     1      -0.532   0.951   3.762  0.00  0.00    -0.027 A 
ATOM     16  C   UNL     1      -0.322   2.116   4.476  0.00  0.00    +0.007 A 
ATOM     17  C   UNL     1      -0.924   2.290   5.708  0.00  0.00    +0.020 A 
ATOM     18  C   UNL     1      -1.728   1.293   6.231  0.00  0.00    +0.041 A 
ATOM     19  C   UNL     1      -1.934   0.125   5.518  0.00  0.00    +0.020 A 
ATOM     20  C   UNL     1      -1.335  -0.045   4.284  0.00  0.00    +0.007 A 
ATOM     21 CL   UNL     1      -2.479   1.508   7.781  0.00  0.00    -0.084 Cl
ENDBRANCH   8  15
BRANCH   5  22
ATOM     22  O   UNL     1       4.081   2.128   2.388  0.00  0.00    -0.488 OA
BRANCH  22  23
ATOM     23  C   UNL     1       5.434   2.582   2.323  0.00  0.00    +0.260 C 
BRANCH  23  24
ATOM     24  C   UNL     1       6.040   2.582   3.728  0.00  0.00    +0.156 C 
ATOM     25  C   UNL     1       7.461   3.184   3.686  0.00  0.00    +0.037 C 
ATOM     26  C   UNL     1       8.233   2.273   4.681  0.00  0.00    +0.031 C 
ATOM     27  C   UNL     1       7.531   0.912   4.441  0.00  0.00    +0.160 C 
ATOM     28  O   UNL     1       6.152   1.238   4.210  0.00  0.00    -0.373 OA
ENDBRANCH  23  24
ENDBRANCH  22  23
ENDBRANCH   5  22
TORSDOF 4
