REMARK  Name = ZINC59385529
REMARK  8 active torsions:
REMARK  status: ('A' for Active; 'I' for Inactive)
REMARK    1  A    between atoms: C_1  and  C_2
REMARK    2  A    between atoms: C_3  and  C_19
REMARK    3  A    between atoms: C_4  and  C_10
REMARK    4  A    between atoms: C_13  and  O_18
REMARK    5  A    between atoms: C_14  and  O_16
REMARK    6  A    between atoms: O_16  and  C_17
REMARK    7  A    between atoms: N_21  and  N_22
REMARK    8  A    between atoms: C_23  and  C_24
REMARK                            x       y       z     vdW  Elec       q    Type
REMARK                         _______ _______ _______ _____ _____    ______ ____
ROOT
ATOM      1  C   UNL     1      -0.130   1.450   0.374  0.00  0.00    +0.061 C 
ATOM      2  C   UNL     1      -0.041  -0.042   0.181  0.00  0.00    +0.019 C 
ATOM      3  C   UNL     1      -1.160  -0.743  -0.099  0.00  0.00    +0.057 C 
ATOM      4  C   UNL     1      -1.027  -2.240  -0.286  0.00  0.00    +0.142 C 
ATOM      5  N   UNL     1       0.323  -2.813  -0.146  0.00  0.00    -0.288 N 
ATOM      6  C   UNL     1       1.346  -1.982   0.136  0.00  0.00    +0.304 C 
ATOM      7  O   UNL     1       2.464  -2.445   0.254  0.00  0.00    -0.252 OA
ATOM      8  N   UNL     1       1.172  -0.663   0.286  0.00  0.00    -0.273 N 
ATOM      9  H   UNL     1       0.471  -3.765  -0.254  0.00  0.00    +0.151 HD
ATOM     10  H   UNL     1       1.950  -0.118   0.484  0.00  0.00    +0.156 HD
ENDROOT
BRANCH   4  11
ATOM     11  C   UNL     1      -1.536  -2.584  -1.662  0.00  0.00    -0.019 A 
ATOM     12  C   UNL     1      -2.649  -3.391  -1.804  0.00  0.00    +0.009 A 
ATOM     13  C   UNL     1      -3.120  -3.709  -3.064  0.00  0.00    +0.049 A 
ATOM     14  C   UNL     1      -2.476  -3.218  -4.189  0.00  0.00    +0.158 A 
ATOM     15  C   UNL     1      -1.356  -2.405  -4.046  0.00  0.00    +0.162 A 
ATOM     16  C   UNL     1      -0.892  -2.086  -2.780  0.00  0.00    +0.055 A 
BRANCH  15  17
ATOM     17  O   UNL     1      -0.720  -1.921  -5.146  0.00  0.00    -0.491 OA
ATOM     18  C   UNL     1       0.486  -1.187  -4.928  0.00  0.00    +0.277 C 
ENDBRANCH  15  17
BRANCH  14  19
ATOM     19  O   UNL     1      -2.938  -3.530  -5.429  0.00  0.00    -0.503 OA
ATOM     20  H   UNL     1      -3.592  -2.906  -5.774  0.00  0.00    +0.292 HD
ENDBRANCH  14  19
ENDBRANCH   4  11
BRANCH   3  21
ATOM     21  C   UNL     1      -2.417  -0.099  -0.214  0.00  0.00    +0.263 C 
ATOM     22  O   UNL     1      -2.485   1.116  -0.179  0.00  0.00    -0.269 OA
ATOM     23  N   UNL     1      -3.538  -0.833  -0.361  0.00  0.00    -0.203 N 
ATOM     24  H   UNL     1      -3.495  -1.800  -0.311  0.00  0.00    +0.178 HD
BRANCH  23  25
ATOM     25  N   UNL     1      -4.766  -0.197  -0.587  0.00  0.00    -0.187 NA
ATOM     26  C   UNL     1      -5.860  -0.895  -0.631  0.00  0.00    +0.139 C 
BRANCH  26  27
ATOM     27  C   UNL     1      -7.136  -0.244  -0.978  0.00  0.00    +0.013 A 
ATOM     28  C   UNL     1      -8.316  -0.991  -1.021  0.00  0.00    +0.012 A 
ATOM     29  C   UNL     1      -9.507  -0.376  -1.347  0.00  0.00    +0.021 A 
ATOM     30  C   UNL     1      -9.535   0.979  -1.632  0.00  0.00    +0.042 A 
ATOM     31  C   UNL     1      -8.370   1.726  -1.592  0.00  0.00    +0.040 A 
ATOM     32  C   UNL     1      -7.172   1.125  -1.262  0.00  0.00    +0.051 A 
ATOM     33 CL   UNL     1      -5.713   2.064  -1.205  0.00  0.00    -0.083 Cl
ATOM     34 CL   UNL     1     -11.039   1.744  -2.042  0.00  0.00    -0.083 Cl
ENDBRANCH  26  27
ENDBRANCH  23  25
ENDBRANCH   3  21
TORSDOF 6
