REMARK  Name = ZINC38660843
REMARK  11 active torsions:
REMARK  status: ('A' for Active; 'I' for Inactive)
REMARK    1  A    between atoms: C_1  and  O_2
REMARK    2  A    between atoms: O_2  and  C_3
REMARK    3  A    between atoms: C_6  and  C_9
REMARK    4  A    between atoms: C_10  and  C_11
REMARK    5  A    between atoms: C_11  and  O_13
REMARK    6  A    between atoms: O_13  and  C_14
REMARK    7  A    between atoms: C_21  and  N_40
REMARK    8  A    between atoms: C_22  and  C_38
REMARK    9  A    between atoms: C_23  and  C_25
REMARK   10  A    between atoms: C_29  and  O_31
REMARK   11  A    between atoms: O_31  and  C_32
REMARK                            x       y       z     vdW  Elec       q    Type
REMARK                         _______ _______ _______ _____ _____    ______ ____
ROOT
ATOM      1  C   UNL     1       4.237  -6.844   6.405  0.00  0.00    +0.135 A 
ATOM      2  C   UNL     1       4.772  -6.099   7.447  0.00  0.00    +0.047 A 
ATOM      3  C   UNL     1       5.381  -6.737   8.510  0.00  0.00    +0.012 A 
ATOM      4  C   UNL     1       5.460  -8.118   8.541  0.00  0.00    +0.008 A 
ATOM      5  C   UNL     1       4.927  -8.867   7.504  0.00  0.00    +0.138 A 
ATOM      6  C   UNL     1       4.310  -8.227   6.437  0.00  0.00    +0.093 A 
ATOM      7  O   UNL     1       4.995 -10.221   7.517  0.00  0.00    -0.441 OA
ATOM      8  C   UNL     1       5.889 -10.840   8.305  0.00  0.00    +0.199 C 
ATOM      9  C   UNL     1       6.465 -10.218   9.362  0.00  0.00    +0.098 C 
ATOM     10  C   UNL     1       6.128  -8.795   9.709  0.00  0.00    +0.098 C 
ENDROOT
BRANCH  10  11
ATOM     11  C   UNL     1       5.198  -8.777  10.895  0.00  0.00    -0.031 A 
ATOM     12  C   UNL     1       3.963  -9.395  10.814  0.00  0.00    +0.005 A 
ATOM     13  C   UNL     1       3.108  -9.381  11.900  0.00  0.00    +0.004 A 
ATOM     14  C   UNL     1       3.484  -8.748  13.069  0.00  0.00    +0.046 A 
ATOM     15  C   UNL     1       4.722  -8.126  13.153  0.00  0.00    +0.129 A 
ATOM     16  C   UNL     1       5.581  -8.147  12.063  0.00  0.00    +0.050 A 
BRANCH  15  17
ATOM     17  O   UNL     1       5.095  -7.503  14.301  0.00  0.00    -0.456 OA
BRANCH  17  18
ATOM     18  C   UNL     1       6.258  -6.801  14.297  0.00  0.00    +0.128 A 
ATOM     19  C   UNL     1       6.368  -5.642  13.543  0.00  0.00    +0.046 A 
ATOM     20  C   UNL     1       7.551  -4.930  13.540  0.00  0.00    +0.004 A 
ATOM     21  C   UNL     1       8.627  -5.372  14.289  0.00  0.00    +0.000 A 
ATOM     22  C   UNL     1       8.520  -6.527  15.042  0.00  0.00    +0.004 A 
ATOM     23  C   UNL     1       7.336  -7.239  15.053  0.00  0.00    +0.046 A 
ENDBRANCH  17  18
ENDBRANCH  15  17
ENDBRANCH  10  11
BRANCH   8  24
ATOM     24  N   UNL     1       6.230 -12.141   8.032  0.00  0.00    -0.328 N 
ATOM     25  H   UNL     1       5.827 -12.600   7.279  0.00  0.00    +0.145 HD
ATOM     26  H   UNL     1       6.875 -12.601   8.592  0.00  0.00    +0.145 HD
ENDBRANCH   8  24
BRANCH   9  27
ATOM     27  C   UNL     1       7.412 -10.931  10.164  0.00  0.00    +0.101 C 
ATOM     28  N   UNL     1       8.164 -11.496  10.801  0.00  0.00    -0.191 NA
ENDBRANCH   9  27
BRANCH   1  29
ATOM     29  O   UNL     1       3.637  -6.217   5.359  0.00  0.00    -0.423 OA
BRANCH  29  30
ATOM     30  C   UNL     1       4.426  -5.618   4.443  0.00  0.00    +0.337 C 
ATOM     31  O   UNL     1       5.629  -5.570   4.615  0.00  0.00    -0.245 OA
BRANCH  30  33
ATOM     32  C   UNL     1       4.642  -4.444   2.363  0.00  0.00    +0.015 C 
ATOM     33  C   UNL     1       3.853  -5.044   3.280  0.00  0.00    +0.092 C 
BRANCH  32  37
ATOM     34  C   UNL     1       2.927  -2.728  -1.115  0.00  0.00    +0.120 A 
ATOM     35  C   UNL     1       4.303  -2.672  -0.921  0.00  0.00    +0.046 A 
ATOM     36  C   UNL     1       4.864  -3.227   0.206  0.00  0.00    +0.011 A 
ATOM     37  C   UNL     1       4.048  -3.849   1.158  0.00  0.00    -0.025 A 
ATOM     38  C   UNL     1       2.663  -3.903   0.958  0.00  0.00    +0.011 A 
ATOM     39  C   UNL     1       2.111  -3.340  -0.170  0.00  0.00    +0.046 A 
BRANCH  34  41
ATOM     40  C   UNL     1       3.273  -1.566  -3.159  0.00  0.00    +0.277 C 
ATOM     41  O   UNL     1       2.378  -2.179  -2.228  0.00  0.00    -0.495 OA
ENDBRANCH  34  41
ENDBRANCH  32  37
ENDBRANCH  30  33
ENDBRANCH  29  30
ENDBRANCH   1  29
TORSDOF 10
