REMARK  Name = ZINC12362096
REMARK  11 active torsions:
REMARK  status: ('A' for Active; 'I' for Inactive)
REMARK    1  A    between atoms: C_1  and  C_2
REMARK    2  A    between atoms: C_2  and  N_7
REMARK    3  A    between atoms: C_3  and  C_4
REMARK    4  A    between atoms: C_4  and  C_6
REMARK    5  A    between atoms: N_7  and  C_8
REMARK    6  A    between atoms: C_11  and  C_14
REMARK    7  A    between atoms: C_17  and  N_20
REMARK    8  A    between atoms: N_20  and  C_21
REMARK    9  A    between atoms: C_21  and  C_26
REMARK   10  A    between atoms: C_22  and  C_23
REMARK   11  A    between atoms: C_23  and  C_25
REMARK                            x       y       z     vdW  Elec       q    Type
REMARK                         _______ _______ _______ _____ _____    ______ ____
ROOT
ATOM      1  C   UNL     1       2.042   0.580  -2.162  0.00  0.00    +0.031 A 
ATOM      2  C   UNL     1       2.324   1.902  -2.485  0.00  0.00    +0.024 A 
ATOM      3  C   UNL     1       1.990   2.395  -3.729  0.00  0.00    +0.010 A 
ATOM      4  C   UNL     1       1.370   1.566  -4.662  0.00  0.00    -0.018 A 
ATOM      5  C   UNL     1       1.088   0.240  -4.336  0.00  0.00    +0.010 A 
ATOM      6  C   UNL     1       1.429  -0.250  -3.094  0.00  0.00    +0.024 A 
ENDROOT
BRANCH   4   7
ATOM      7  C   UNL     1       1.009   2.094  -6.000  0.00  0.00    -0.018 A 
ATOM      8  C   UNL     1       1.295   3.419  -6.329  0.00  0.00    +0.010 A 
ATOM      9  C   UNL     1       0.959   3.908  -7.573  0.00  0.00    +0.024 A 
ATOM     10  C   UNL     1       0.335   3.081  -8.500  0.00  0.00    +0.031 A 
ATOM     11  C   UNL     1       0.049   1.760  -8.175  0.00  0.00    +0.024 A 
ATOM     12  C   UNL     1       0.389   1.266  -6.934  0.00  0.00    +0.010 A 
BRANCH  10  13
ATOM     13  N   UNL     1      -0.005   3.579  -9.760  0.00  0.00    -0.318 N 
ATOM     14  H   UNL     1      -0.359   2.982 -10.438  0.00  0.00    +0.152 HD
BRANCH  13  15
ATOM     15  C   UNL     1       0.160   4.904 -10.037  0.00  0.00    +0.008 C 
ATOM     16  C   UNL     1       0.940   5.287 -11.078  0.00  0.00    +0.064 C 
ATOM     17  C   UNL     1      -0.524   5.943  -9.186  0.00  0.00    +0.061 C 
BRANCH  16  18
ATOM     18  C   UNL     1       1.183   6.648 -11.308  0.00  0.00    +0.154 C 
ATOM     19  O   UNL     1       0.772   7.480 -10.522  0.00  0.00    -0.293 OA
ATOM     20  C   UNL     1       1.953   7.080 -12.529  0.00  0.00    +0.091 C 
ENDBRANCH  16  18
ENDBRANCH  13  15
ENDBRANCH  10  13
ENDBRANCH   4   7
BRANCH   1  21
ATOM     21  N   UNL     1       2.381   0.082  -0.902  0.00  0.00    -0.318 N 
ATOM     22  H   UNL     1       2.314  -0.868  -0.721  0.00  0.00    +0.152 HD
BRANCH  21  24
ATOM     23  C   UNL     1       1.931   2.083   0.506  0.00  0.00    +0.061 C 
ATOM     24  C   UNL     1       2.805   0.933   0.075  0.00  0.00    +0.008 C 
ATOM     25  C   UNL     1       4.014   0.746   0.660  0.00  0.00    +0.064 C 
BRANCH  25  26
ATOM     26  C   UNL     1       4.397   1.540   1.750  0.00  0.00    +0.154 C 
ATOM     27  O   UNL     1       3.689   2.460   2.109  0.00  0.00    -0.293 OA
ATOM     28  C   UNL     1       5.686   1.253   2.476  0.00  0.00    +0.091 C 
ENDBRANCH  25  26
ENDBRANCH  21  24
ENDBRANCH   1  21
TORSDOF 7
