REMARK  Name = ZINC45662498
REMARK  9 active torsions:
REMARK  status: ('A' for Active; 'I' for Inactive)
REMARK    1  A    between atoms: C_1  and  C_2
REMARK    2  A    between atoms: C_2  and  C_3
REMARK    3  A    between atoms: C_3  and  C_5
REMARK    4  A    between atoms: C_3  and  N_23
REMARK    5  A    between atoms: C_5  and  C_7
REMARK    6  A    between atoms: C_5  and  N_13
REMARK    7  A    between atoms: C_15  and  C_22
REMARK    8  A    between atoms: C_18  and  C_20
REMARK    9  A    between atoms: C_18  and  C_21
REMARK                            x       y       z     vdW  Elec       q    Type
REMARK                         _______ _______ _______ _____ _____    ______ ____
ROOT
ATOM      1  C   UNL     1      -1.413  -2.059   0.130  0.00  0.00    +0.079 C 
ENDROOT
BRANCH   1   2
ATOM      2  N   UNL     1      -2.751  -2.661   0.044  0.00  0.00    -0.291 NA
ATOM      3  C   UNL     1      -3.632  -2.141   1.099  0.00  0.00    +0.116 C 
ATOM      4  C   UNL     1      -5.028  -2.747   0.936  0.00  0.00    +0.130 C 
ATOM      5  O   UNL     1      -4.929  -4.174   0.967  0.00  0.00    -0.368 OA
ATOM      6  C   UNL     1      -4.079  -4.714  -0.048  0.00  0.00    +0.077 C 
ATOM      7  C   UNL     1      -2.673  -4.128   0.106  0.00  0.00    +0.119 C 
ATOM      8  C   UNL     1      -4.016  -6.236   0.096  0.00  0.00    +0.042 C 
ATOM      9  C   UNL     1      -4.636  -4.353  -1.426  0.00  0.00    +0.042 C 
ATOM     10  C   UNL     1      -5.928  -2.272   2.078  0.00  0.00    +0.039 C 
ENDBRANCH   1   2
BRANCH   1  11
ATOM     11  C   UNL     1      -0.724  -2.544   1.379  0.00  0.00    +0.007 A 
ATOM     12  C   UNL     1       0.521  -3.060   1.521  0.00  0.00    +0.014 A 
ATOM     13  C   UNL     1       0.949  -3.443   2.779  0.00  0.00    +0.028 A 
ATOM     14  C   UNL     1       0.109  -3.292   3.833  0.00  0.00    +0.078 A 
ATOM     15  S   UNL     1      -1.333  -2.582   3.057  0.00  0.00    -0.080 S 
ATOM     16 CL   UNL     1       0.371  -3.682   5.504  0.00  0.00    -0.076 Cl
ENDBRANCH   1  11
BRANCH   1  17
ATOM     17  C   UNL     1      -1.542  -0.535   0.178  0.00  0.00    -0.053 C 
BRANCH  17  18
ATOM     18  N   UNL     1      -2.214  -0.062  -1.040  0.00  0.00    +0.381 N 
ATOM     19  H   UNL     1      -1.672  -0.329  -1.848  0.00  0.00    -0.090 HD
ATOM     20  H   UNL     1      -3.132  -0.475  -1.099  0.00  0.00    -0.090 HD
ATOM     21  H   UNL     1      -2.299   0.943  -1.008  0.00  0.00    -0.090 HD
ENDBRANCH  17  18
BRANCH  17  23
ATOM     22  C   UNL     1      -0.282   1.606   0.441  0.00  0.00    +0.002 C 
ATOM     23  C   UNL     1      -0.149   0.092   0.268  0.00  0.00    -0.018 C 
ENDBRANCH  17  23
ENDBRANCH   1  17
TORSDOF 5
