REMARK  Name = ZINC09010534
REMARK  16 active torsions:
REMARK  status: ('A' for Active; 'I' for Inactive)
REMARK    1  A    between atoms: C_1  and  O_2
REMARK    2  A    between atoms: O_2  and  C_3
REMARK    3  A    between atoms: C_5  and  C_13
REMARK    4  A    between atoms: C_7  and  O_11
REMARK    5  A    between atoms: C_8  and  O_9
REMARK    6  A    between atoms: O_9  and  C_10
REMARK    7  A    between atoms: O_11  and  C_12
REMARK    8  A    between atoms: C_20  and  N_38
REMARK    9  A    between atoms: C_21  and  C_36
REMARK   10  A    between atoms: C_22  and  C_24
REMARK   11  A    between atoms: C_26  and  O_34
REMARK   12  A    between atoms: C_27  and  O_32
REMARK   13  A    between atoms: C_28  and  O_30
REMARK   14  A    between atoms: O_30  and  C_31
REMARK   15  A    between atoms: O_32  and  C_33
REMARK   16  A    between atoms: O_34  and  C_35
REMARK                            x       y       z     vdW  Elec       q    Type
REMARK                         _______ _______ _______ _____ _____    ______ ____
ROOT
ATOM      1  C   UNL     1      -4.861   0.241   0.038  0.00  0.00    +0.101 A 
ATOM      2  C   UNL     1      -6.057  -0.106  -0.597  0.00  0.00    +0.054 A 
ATOM      3  C   UNL     1      -6.969   0.877  -0.347  0.00  0.00    +0.223 A 
ATOM      4  N   UNL     1      -6.367   1.812   0.417  0.00  0.00    -0.246 N 
ATOM      5  H   UNL     1      -6.774   2.627   0.748  0.00  0.00    +0.192 HD
ATOM      6  N   UNL     1      -5.048   1.393   0.654  0.00  0.00    -0.171 NA
ATOM      7  O   UNL     1      -8.238   0.837  -0.825  0.00  0.00    -0.423 OA
ATOM      8  C   UNL     1      -8.678  -0.332  -1.331  0.00  0.00    +0.200 C 
ATOM      9  C   UNL     1      -7.870  -1.374  -1.631  0.00  0.00    +0.098 C 
ATOM     10  C   UNL     1      -6.377  -1.322  -1.428  0.00  0.00    +0.102 C 
ENDROOT
BRANCH   1  13
ATOM     11  C   UNL     1      -1.201  -0.638   0.010  0.00  0.00    +0.166 A 
ATOM     12  C   UNL     1      -2.372   0.101   0.019  0.00  0.00    +0.059 A 
ATOM     13  C   UNL     1      -3.605  -0.549   0.028  0.00  0.00    +0.010 A 
ATOM     14  C   UNL     1      -3.657  -1.941   0.027  0.00  0.00    +0.059 A 
ATOM     15  C   UNL     1      -2.484  -2.677   0.017  0.00  0.00    +0.166 A 
ATOM     16  C   UNL     1      -1.255  -2.027   0.003  0.00  0.00    +0.204 A 
BRANCH  11  18
ATOM     17  C   UNL     1      -0.017   1.425   0.010  0.00  0.00    +0.277 C 
ATOM     18  O   UNL     1       0.002  -0.004   0.002  0.00  0.00    -0.491 OA
ENDBRANCH  11  18
BRANCH  16  19
ATOM     19  O   UNL     1      -0.103  -2.752  -0.012  0.00  0.00    -0.488 OA
ATOM     20  C   UNL     1       0.458  -3.104   1.254  0.00  0.00    +0.277 C 
ENDBRANCH  16  19
BRANCH  15  21
ATOM     21  O   UNL     1      -2.535  -4.036   0.016  0.00  0.00    -0.491 OA
ATOM     22  C   UNL     1      -3.831  -4.637   0.026  0.00  0.00    +0.277 C 
ENDBRANCH  15  21
ENDBRANCH   1  13
BRANCH  10  23
ATOM     23  C   UNL     1      -5.685  -1.222  -2.763  0.00  0.00    -0.027 A 
ATOM     24  C   UNL     1      -5.959  -0.159  -3.603  0.00  0.00    +0.054 A 
ATOM     25  C   UNL     1      -5.324  -0.063  -4.833  0.00  0.00    +0.165 A 
ATOM     26  C   UNL     1      -4.412  -1.037  -5.220  0.00  0.00    +0.204 A 
ATOM     27  C   UNL     1      -4.139  -2.104  -4.372  0.00  0.00    +0.165 A 
ATOM     28  C   UNL     1      -4.774  -2.190  -3.142  0.00  0.00    +0.054 A 
BRANCH  27  29
ATOM     29  O   UNL     1      -3.247  -3.060  -4.746  0.00  0.00    -0.491 OA
ATOM     30  C   UNL     1      -3.016  -4.128  -3.825  0.00  0.00    +0.277 C 
ENDBRANCH  27  29
BRANCH  26  31
ATOM     31  O   UNL     1      -3.788  -0.947  -6.426  0.00  0.00    -0.488 OA
ATOM     32  C   UNL     1      -2.549  -0.236  -6.463  0.00  0.00    +0.277 C 
ENDBRANCH  26  31
BRANCH  25  33
ATOM     33  O   UNL     1      -5.595   0.983  -5.659  0.00  0.00    -0.491 OA
ATOM     34  C   UNL     1      -6.544   1.946  -5.196  0.00  0.00    +0.277 C 
ENDBRANCH  25  33
ENDBRANCH  10  23
BRANCH   8  35
ATOM     35  N   UNL     1     -10.025  -0.474  -1.556  0.00  0.00    -0.328 N 
ATOM     36  H   UNL     1     -10.630   0.256  -1.350  0.00  0.00    +0.145 HD
ATOM     37  H   UNL     1     -10.372  -1.303  -1.919  0.00  0.00    +0.145 HD
ENDBRANCH   8  35
BRANCH   9  38
ATOM     38  C   UNL     1      -8.454  -2.570  -2.159  0.00  0.00    +0.101 C 
ATOM     39  N   UNL     1      -8.917  -3.518  -2.579  0.00  0.00    -0.191 NA
ENDBRANCH   9  38
TORSDOF 10
