REMARK  Name = ZINC05413675
REMARK  5 active torsions:
REMARK  status: ('A' for Active; 'I' for Inactive)
REMARK    1  A    between atoms: C_6  and  C_7
REMARK    2  A    between atoms: C_7  and  N_56
REMARK    3  A    between atoms: C_18  and  N_23
REMARK    4  A    between atoms: C_24  and  C_26
REMARK    5  A    between atoms: C_29  and  C_32
REMARK                            x       y       z     vdW  Elec       q    Type
REMARK                         _______ _______ _______ _____ _____    ______ ____
ROOT
ATOM      1  C   UNL     1       3.767   1.818   1.720  0.00  0.00    -0.073 C 
ATOM      2  C   UNL     1       3.624   1.854   0.206  0.00  0.00    -0.007 C 
ATOM      3  C   UNL     1       3.588   3.299  -0.301  0.00  0.00    +0.011 C 
ATOM      4  C   UNL     1       2.430   4.010   0.408  0.00  0.00    +0.020 C 
ATOM      5  C   UNL     1       2.713   3.991   1.919  0.00  0.00    -0.069 C 
ATOM      6  C   UNL     1       1.153   3.235   0.173  0.00  0.00    +0.023 A 
ATOM      7  C   UNL     1      -0.015   3.929   0.195  0.00  0.00    +0.023 A 
ATOM      8  C   UNL     1      -1.241   3.259   0.113  0.00  0.00    +0.030 A 
ATOM      9  C   UNL     1      -1.244   1.893   0.021  0.00  0.00    +0.099 A 
ATOM     10  C   UNL     1      -0.014   1.207   0.001  0.00  0.00    +0.273 A 
ATOM     11  O   UNL     1      -0.002  -0.013  -0.018  0.00  0.00    -0.266 OA
ATOM     12  N   UNL     1       1.156   1.891  -0.004  0.00  0.00    -0.310 N 
ATOM     13  C   UNL     1       2.375   1.123  -0.259  0.00  0.00    +0.127 C 
ATOM     14  N   UNL     1       2.675   2.579   2.361  0.00  0.00    +0.383 N 
ATOM     15  H   UNL     1       1.776   2.167   2.085  0.00  0.00    -0.081 HD
ENDROOT
BRANCH   9  16
ATOM     16  N   UNL     1      -2.452   1.188  -0.045  0.00  0.00    -0.277 N 
ATOM     17  C   UNL     1      -2.716   0.403  -1.108  0.00  0.00    +0.248 C 
ATOM     18  O   UNL     1      -1.871   0.238  -1.967  0.00  0.00    -0.270 OA
ATOM     19  H   UNL     1      -3.099   1.266   0.673  0.00  0.00    +0.155 HD
BRANCH  17  20
ATOM     20  C   UNL     1      -4.033  -0.260  -1.229  0.00  0.00    +0.037 A 
ATOM     21  C   UNL     1      -5.001  -0.075  -0.240  0.00  0.00    +0.014 A 
ATOM     22  C   UNL     1      -6.229  -0.687  -0.355  0.00  0.00    +0.019 A 
ATOM     23  C   UNL     1      -6.502  -1.502  -1.457  0.00  0.00    +0.052 A 
ATOM     24  C   UNL     1      -5.532  -1.691  -2.443  0.00  0.00    +0.019 A 
ATOM     25  C   UNL     1      -4.306  -1.074  -2.330  0.00  0.00    +0.014 A 
BRANCH  23  26
ATOM     26  C   UNL     1      -7.777  -2.144  -1.574  0.00  0.00    +0.099 C 
ATOM     27  N   UNL     1      -8.788  -2.653  -1.667  0.00  0.00    -0.191 NA
ENDBRANCH  23  26
ENDBRANCH  17  20
ENDBRANCH   9  16
BRANCH  14  28
ATOM     28  C   UNL     1       2.804   2.506   3.831  0.00  0.00    -0.043 C 
BRANCH  28  34
ATOM     29  C   UNL     1       5.217   2.135   4.381  0.00  0.00    +0.004 A 
ATOM     30  C   UNL     1       6.457   2.599   4.779  0.00  0.00    +0.038 A 
ATOM     31  C   UNL     1       6.631   3.939   5.076  0.00  0.00    +0.123 A 
ATOM     32  C   UNL     1       5.564   4.815   4.970  0.00  0.00    +0.038 A 
ATOM     33  C   UNL     1       4.327   4.351   4.566  0.00  0.00    +0.004 A 
ATOM     34  C   UNL     1       4.154   3.011   4.270  0.00  0.00    -0.064 A 
ATOM     35  F   UNL     1       7.841   4.393   5.470  0.00  0.00    -0.205 F 
ENDBRANCH  28  34
ENDBRANCH  14  28
TORSDOF 5
