REMARK  Name = ZINC65143735
REMARK  11 active torsions:
REMARK  status: ('A' for Active; 'I' for Inactive)
REMARK    1  A    between atoms: C_1  and  C_2
REMARK    2  A    between atoms: C_2  and  C_3
REMARK    3  A    between atoms: C_2  and  C_4
REMARK    4  A    between atoms: C_4  and  C_5
REMARK    5  A    between atoms: C_5  and  N_6
REMARK    6  A    between atoms: N_9  and  N_10
REMARK    7  A    between atoms: C_11  and  C_13
REMARK    8  A    between atoms: C_13  and  C_14
REMARK    9  A    between atoms: C_13  and  N_17
REMARK   10  A    between atoms: C_14  and  C_15
REMARK   11  A    between atoms: C_14  and  C_16
REMARK                            x       y       z     vdW  Elec       q    Type
REMARK                         _______ _______ _______ _____ _____    ______ ____
ROOT
ATOM      1  N   UNL     1       2.362  -1.051   5.989  0.00  0.00    -0.232 N 
ATOM      2  C   UNL     1       2.692  -1.954   6.934  0.00  0.00    +0.250 C 
ATOM      3  O   UNL     1       2.005  -2.072   7.926  0.00  0.00    -0.272 OA
ATOM      4  H   UNL     1       2.949  -0.907   5.230  0.00  0.00    +0.173 HD
ENDROOT
BRANCH   1   8
ATOM      5  N   UNL     1       1.657   0.781   4.103  0.00  0.00    -0.298 N 
ATOM      6  C   UNL     1       0.842   0.582   5.158  0.00  0.00    +0.316 C 
ATOM      7  O   UNL     1      -0.190   1.216   5.257  0.00  0.00    -0.251 OA
ATOM      8  N   UNL     1       1.172  -0.321   6.103  0.00  0.00    -0.218 N 
ATOM      9  H   UNL     1       2.481   0.276   4.024  0.00  0.00    +0.150 HD
ATOM     10  H   UNL     1       0.586  -0.465   6.862  0.00  0.00    +0.174 HD
BRANCH   5  11
ATOM     11  C   UNL     1       1.298   1.762   3.076  0.00  0.00    +0.106 C 
BRANCH  11  12
ATOM     12  C   UNL     1       2.384   1.793   1.999  0.00  0.00    +0.022 C 
BRANCH  12  14
ATOM     13  C   UNL     1       2.007   4.220   1.538  0.00  0.00    +0.007 C 
ATOM     14  C   UNL     1       2.009   2.818   0.926  0.00  0.00    -0.016 C 
ATOM     15  C   UNL     1       3.030   2.760  -0.213  0.00  0.00    +0.007 C 
ENDBRANCH  12  14
ENDBRANCH  11  12
ENDBRANCH   5  11
ENDBRANCH   1   8
BRANCH   2  16
ATOM     16  C   UNL     1       3.916  -2.816   6.758  0.00  0.00    +0.174 C 
BRANCH  16  17
ATOM     17  N   UNL     1       4.375  -3.286   8.067  0.00  0.00    -0.222 N 
ATOM     18  C   UNL     1       3.640  -4.038   8.906  0.00  0.00    +0.255 C 
ATOM     19  O   UNL     1       2.508  -4.428   8.702  0.00  0.00    -0.270 OA
ATOM     20  C   UNL     1       4.440  -4.309  10.119  0.00  0.00    +0.049 A 
ATOM     21  C   UNL     1       4.212  -5.011  11.292  0.00  0.00    +0.014 A 
ATOM     22  C   UNL     1       5.203  -5.073  12.259  0.00  0.00    +0.001 A 
ATOM     23  C   UNL     1       6.416  -4.440  12.062  0.00  0.00    +0.001 A 
ATOM     24  C   UNL     1       6.658  -3.735  10.893  0.00  0.00    +0.014 A 
ATOM     25  C   UNL     1       5.677  -3.664   9.917  0.00  0.00    +0.049 A 
ATOM     26  C   UNL     1       5.588  -3.027   8.587  0.00  0.00    +0.255 C 
ATOM     27  O   UNL     1       6.464  -2.376   8.053  0.00  0.00    -0.270 OA
ENDBRANCH  16  17
BRANCH  16  28
ATOM     28  C   UNL     1       3.571  -4.018   5.877  0.00  0.00    +0.013 C 
ATOM     29  C   UNL     1       3.189  -3.532   4.477  0.00  0.00    +0.009 C 
ATOM     30  C   UNL     1       4.784  -4.946   5.781  0.00  0.00    +0.009 C 
ENDBRANCH  16  28
ENDBRANCH   2  16
TORSDOF 7
