REMARK  Name = ZINC41084177
REMARK  9 active torsions:
REMARK  status: ('A' for Active; 'I' for Inactive)
REMARK    1  A    between atoms: C_1  and  C_2
REMARK    2  A    between atoms: C_4  and  C_18
REMARK    3  A    between atoms: C_5  and  C_17
REMARK    4  A    between atoms: N_6  and  C_7
REMARK    5  A    between atoms: C_10  and  O_15
REMARK    6  A    between atoms: C_12  and  O_13
REMARK    7  A    between atoms: O_13  and  C_14
REMARK    8  A    between atoms: O_15  and  C_16
REMARK    9  A    between atoms: C_28  and  C_30
REMARK                            x       y       z     vdW  Elec       q    Type
REMARK                         _______ _______ _______ _____ _____    ______ ____
ROOT
ATOM      1  C   UNL     1       0.041  -3.340  -1.426  0.00  0.00    +0.026 C 
ATOM      2  C   UNL     1      -0.649  -3.368  -2.621  0.00  0.00    +0.081 C 
ATOM      3  C   UNL     1      -0.759  -4.611  -3.434  0.00  0.00    +0.153 C 
ATOM      4  N   UNL     1      -0.814  -5.808  -2.912  0.00  0.00    -0.283 NA
ATOM      5  N   UNL     1      -0.799  -4.369  -4.824  0.00  0.00    -0.152 N 
ATOM      6  C   UNL     1      -1.225  -3.126  -5.242  0.00  0.00    +0.181 C 
ATOM      7  N   UNL     1      -1.513  -2.090  -4.495  0.00  0.00    -0.152 NA
ATOM      8  C   UNL     1      -1.325  -2.165  -3.160  0.00  0.00    +0.273 C 
ATOM      9  O   UNL     1      -1.697  -1.268  -2.420  0.00  0.00    -0.268 OA
ATOM     10  S   UNL     1      -1.251  -3.311  -7.005  0.00  0.00    -0.033 S 
ATOM     11  C   UNL     1      -0.605  -4.976  -7.077  0.00  0.00    +0.131 C 
ATOM     12  N   UNL     1      -0.460  -5.273  -5.808  0.00  0.00    -0.164 NA
ATOM     13  H   UNL     1      -0.885  -6.585  -3.487  0.00  0.00    +0.188 HD
ENDROOT
BRANCH   1  17
ATOM     14  C   UNL     1       0.909   1.558  -0.546  0.00  0.00    +0.064 C 
ATOM     15  C   UNL     1       0.651   0.082  -0.384  0.00  0.00    +0.022 A 
ATOM     16  C   UNL     1       0.488  -0.794  -1.389  0.00  0.00    +0.031 A 
ATOM     17  C   UNL     1       0.264  -2.106  -0.765  0.00  0.00    -0.003 A 
ATOM     18  C   UNL     1       0.315  -1.888   0.603  0.00  0.00    +0.028 A 
ATOM     19  N   UNL     1       0.553  -0.578   0.809  0.00  0.00    -0.314 N 
ATOM     20  C   UNL     1       0.141  -2.935   1.673  0.00  0.00    +0.064 C 
BRANCH  19  21
ATOM     21  C   UNL     1       0.678   0.024   2.071  0.00  0.00    +0.089 A 
ATOM     22  C   UNL     1      -0.444   0.525   2.715  0.00  0.00    +0.033 A 
ATOM     23  C   UNL     1      -0.320   1.118   3.957  0.00  0.00    +0.048 A 
ATOM     24  C   UNL     1       0.925   1.214   4.562  0.00  0.00    +0.124 A 
ATOM     25  C   UNL     1       2.049   0.715   3.922  0.00  0.00    +0.093 A 
ATOM     26  C   UNL     1       1.928   0.114   2.679  0.00  0.00    +0.147 A 
BRANCH  26  27
ATOM     27  O   UNL     1       3.027  -0.382   2.053  0.00  0.00    -0.493 OA
ATOM     28  C   UNL     1       4.276  -0.254   2.736  0.00  0.00    +0.277 C 
ENDBRANCH  26  27
BRANCH  24  29
ATOM     29  O   UNL     1       1.042   1.798   5.784  0.00  0.00    -0.495 OA
ATOM     30  C   UNL     1      -0.156   2.291   6.386  0.00  0.00    +0.277 C 
ENDBRANCH  24  29
ENDBRANCH  19  21
ENDBRANCH   1  17
BRANCH  11  31
ATOM     31  C   UNL     1      -0.309  -5.807  -8.265  0.00  0.00    +0.027 A 
ATOM     32  C   UNL     1      -0.527  -5.309  -9.554  0.00  0.00    +0.013 A 
ATOM     33  C   UNL     1      -0.235  -6.126 -10.632  0.00  0.00    +0.020 A 
ATOM     34  C   UNL     1       0.259  -7.397 -10.403  0.00  0.00    +0.111 A 
ATOM     35  N   UNL     1       0.455  -7.841  -9.176  0.00  0.00    -0.263 NA
ATOM     36  C   UNL     1       0.196  -7.099  -8.119  0.00  0.00    +0.121 A 
ENDBRANCH  11  31
TORSDOF 5
