REMARK  Name = ZINC04322546
REMARK  8 active torsions:
REMARK  status: ('A' for Active; 'I' for Inactive)
REMARK    1  A    between atoms: C_1  and  C_2
REMARK    2  A    between atoms: C_2  and  N_13
REMARK    3  A    between atoms: C_10  and  C_11
REMARK    4  A    between atoms: C_10  and  C_12
REMARK    5  A    between atoms: N_13  and  C_14
REMARK    6  A    between atoms: C_14  and  N_16
REMARK    7  A    between atoms: N_16  and  N_17
REMARK    8  A    between atoms: C_18  and  C_19
REMARK                            x       y       z     vdW  Elec       q    Type
REMARK                         _______ _______ _______ _____ _____    ______ ____
ROOT
ATOM      1  N   UNL     1      -1.315  -0.495  -0.002  0.00  0.00    -0.319 N 
ATOM      2  H   UNL     1      -1.663  -1.015   0.740  0.00  0.00    +0.148 HD
ENDROOT
BRANCH   1   4
ATOM      3  C   UNL     1       0.091   1.520   0.091  0.00  0.00    +0.032 C 
ATOM      4  C   UNL     1       0.066  -0.008   0.029  0.00  0.00    +0.039 C 
ATOM      5  C   UNL     1       0.851  -0.515  -1.220  0.00  0.00    +0.013 C 
ATOM      6  C   UNL     1       2.193   0.279  -1.185  0.00  0.00    +0.006 C 
ATOM      7  C   UNL     1       2.961  -0.305   0.022  0.00  0.00    +0.004 C 
ATOM      8  C   UNL     1       2.011  -1.396   0.604  0.00  0.00    -0.003 C 
ATOM      9  C   UNL     1       1.313  -1.928  -0.718  0.00  0.00    +0.009 C 
ATOM     10  C   UNL     1       0.822  -0.609   1.236  0.00  0.00    -0.011 C 
ATOM     11  C   UNL     1       1.369   0.505   2.131  0.00  0.00    +0.013 C 
ATOM     12  C   UNL     1      -0.098  -1.534   2.035  0.00  0.00    +0.013 C 
ENDBRANCH   1   4
BRANCH   1  13
ATOM     13  C   UNL     1      -2.103  -0.219  -1.060  0.00  0.00    +0.150 C 
ATOM     14  S   UNL     1      -1.536   0.810  -2.304  0.00  0.00    -0.017 S 
BRANCH  13  15
ATOM     15  N   UNL     1      -3.338  -0.754  -1.138  0.00  0.00    -0.218 N 
ATOM     16  H   UNL     1      -3.905  -0.556  -1.899  0.00  0.00    +0.176 HD
BRANCH  15  17
ATOM     17  N   UNL     1      -3.802  -1.596  -0.119  0.00  0.00    -0.187 NA
ATOM     18  C   UNL     1      -4.991  -2.111  -0.195  0.00  0.00    +0.158 C 
BRANCH  18  19
ATOM     19  C   UNL     1      -5.480  -2.998   0.877  0.00  0.00    +0.083 A 
ATOM     20  C   UNL     1      -6.758  -3.554   0.788  0.00  0.00    +0.029 A 
ATOM     21  C   UNL     1      -7.201  -4.384   1.802  0.00  0.00    +0.004 A 
ATOM     22  C   UNL     1      -6.354  -4.633   2.874  0.00  0.00    +0.020 A 
ATOM     23  C   UNL     1      -5.101  -4.049   2.899  0.00  0.00    +0.111 A 
ATOM     24  N   UNL     1      -4.698  -3.267   1.919  0.00  0.00    -0.254 NA
ENDBRANCH  18  19
ENDBRANCH  15  17
ENDBRANCH  13  15
ENDBRANCH   1  13
TORSDOF 5
