REMARK  Name = ZINC02232626
REMARK  7 active torsions:
REMARK  status: ('A' for Active; 'I' for Inactive)
REMARK    1  A    between atoms: C_1  and  C_2
REMARK    2  A    between atoms: C_2  and  C_3
REMARK    3  A    between atoms: C_3  and  C_4
REMARK    4  A    between atoms: C_4  and  C_5
REMARK    5  A    between atoms: C_11  and  S_15
REMARK    6  A    between atoms: S_15  and  C_16
REMARK    7  A    between atoms: C_16  and  C_17
REMARK                            x       y       z     vdW  Elec       q    Type
REMARK                         _______ _______ _______ _____ _____    ______ ____
ROOT
ATOM      1  C   UNL     1       0.375   6.271   0.034  0.00  0.00    +0.046 A 
ATOM      2  C   UNL     1       1.712   5.895   0.023  0.00  0.00    -0.022 A 
ATOM      3  C   UNL     1       2.049   4.561   0.014  0.00  0.00    -0.031 A 
ATOM      4  C   UNL     1       1.025   3.588   0.014  0.00  0.00    +0.037 A 
ATOM      5  C   UNL     1       1.174   2.120   0.002  0.00  0.00    +0.092 A 
ATOM      6  C   UNL     1      -0.017   1.385   0.010  0.00  0.00    +0.072 A 
ATOM      7  C   UNL     1       0.002  -0.004   0.002  0.00  0.00    +0.115 A 
ATOM      8  N   UNL     1       1.185  -0.620  -0.014  0.00  0.00    -0.228 NA
ATOM      9  C   UNL     1       2.298   0.089  -0.022  0.00  0.00    +0.223 A 
ATOM     10  N   UNL     1       2.317   1.399  -0.014  0.00  0.00    -0.234 NA
ATOM     11  S   UNL     1      -1.299   2.607   0.021  0.00  0.00    -0.064 S 
ATOM     12  C   UNL     1      -0.295   4.072   0.026  0.00  0.00    +0.111 A 
ATOM     13  N   UNL     1      -0.576   5.358   0.036  0.00  0.00    -0.244 NA
ATOM     14  C   UNL     1       3.551   4.403   0.005  0.00  0.00    +0.036 C 
ATOM     15  C   UNL     1       4.101   5.777   0.445  0.00  0.00    +0.009 C 
ATOM     16  C   UNL     1       2.970   6.738   0.019  0.00  0.00    +0.037 C 
ENDROOT
BRANCH   1  17
ATOM     17  C   UNL     1       0.009   7.732   0.043  0.00  0.00    +0.056 C 
BRANCH  17  18
ATOM     18  C   UNL     1      -0.125   8.233  -1.397  0.00  0.00    +0.006 C 
BRANCH  18  20
ATOM     19  C   UNL     1      -0.631  10.219  -2.827  0.00  0.00    +0.004 C 
ATOM     20  C   UNL     1      -0.497   9.717  -1.387  0.00  0.00    -0.003 C 
ENDBRANCH  18  20
ENDBRANCH  17  18
ENDBRANCH   1  17
BRANCH   7  21
ATOM     21  S   UNL     1      -1.498  -0.928   0.013  0.00  0.00    -0.100 S 
BRANCH  21  22
ATOM     22  C   UNL     1      -0.831  -2.611  -0.003  0.00  0.00    +0.114 C 
BRANCH  22  23
ATOM     23  C   UNL     1      -1.966  -3.602   0.003  0.00  0.00    -0.001 A 
ATOM     24  C   UNL     1      -2.471  -4.067   1.204  0.00  0.00    +0.046 A 
ATOM     25  C   UNL     1      -3.517  -4.974   1.209  0.00  0.00    +0.020 A 
ATOM     26  C   UNL     1      -4.050  -5.421   0.015  0.00  0.00    +0.003 A 
ATOM     27  C   UNL     1      -3.542  -4.960  -1.185  0.00  0.00    +0.020 A 
ATOM     28  C   UNL     1      -2.500  -4.050  -1.192  0.00  0.00    +0.046 A 
ATOM     29 CL   UNL     1      -1.862  -3.472  -2.699  0.00  0.00    -0.083 Cl
ATOM     30 CL   UNL     1      -1.797  -3.510   2.703  0.00  0.00    -0.083 Cl
ENDBRANCH  22  23
ENDBRANCH  21  22
ENDBRANCH   7  21
TORSDOF 6
