REMARK  Name = ZINC39914740
REMARK  9 active torsions:
REMARK  status: ('A' for Active; 'I' for Inactive)
REMARK    1  A    between atoms: C_1  and  C_2
REMARK    2  A    between atoms: C_2  and  C_3
REMARK    3  A    between atoms: C_6  and  C_9
REMARK    4  A    between atoms: C_12  and  C_28
REMARK    5  A    between atoms: N_19  and  C_20
REMARK    6  A    between atoms: C_20  and  C_21
REMARK    7  A    between atoms: C_24  and  C_27
REMARK    8  A    between atoms: C_31  and  C_35
REMARK    9  A    between atoms: C_33  and  O_34
REMARK                            x       y       z     vdW  Elec       q    Type
REMARK                         _______ _______ _______ _____ _____    ______ ____
ROOT
ATOM      1  C   UNL     1      -5.390  -2.000   0.023  0.00  0.00    +0.142 C 
ATOM      2  C   UNL     1      -5.425  -3.455  -0.355  0.00  0.00    +0.035 A 
ATOM      3  C   UNL     1      -5.018  -4.761  -0.060  0.00  0.00    +0.102 A 
ATOM      4  N   UNL     1      -5.529  -5.552  -0.983  0.00  0.00    -0.173 NA
ATOM      5  N   UNL     1      -6.218  -4.875  -1.832  0.00  0.00    -0.272 N 
ATOM      6  H   UNL     1      -6.684  -5.250  -2.595  0.00  0.00    +0.189 HD
ATOM      7  C   UNL     1      -6.195  -3.551  -1.499  0.00  0.00    +0.126 A 
ATOM      8  C   UNL     1      -6.655  -2.206  -1.865  0.00  0.00    +0.266 C 
ATOM      9  O   UNL     1      -7.355  -1.950  -2.826  0.00  0.00    -0.268 OA
ATOM     10  N   UNL     1      -6.193  -1.297  -0.986  0.00  0.00    -0.281 N 
ENDROOT
BRANCH   3  11
ATOM     11  C   UNL     1      -4.168  -5.179   1.083  0.00  0.00    +0.045 A 
ATOM     12  C   UNL     1      -3.798  -4.253   2.055  0.00  0.00    +0.034 A 
ATOM     13  C   UNL     1      -3.007  -4.647   3.116  0.00  0.00    +0.045 A 
ATOM     14  C   UNL     1      -2.579  -5.960   3.216  0.00  0.00    -0.029 A 
ATOM     15  C   UNL     1      -2.941  -6.886   2.256  0.00  0.00    +0.050 A 
ATOM     16  C   UNL     1      -3.740  -6.505   1.190  0.00  0.00    +0.126 A 
ATOM     17  C   UNL     1      -1.716  -6.381   4.378  0.00  0.00    +0.045 C 
ATOM     18 CL   UNL     1      -2.546  -3.492   4.327  0.00  0.00    -0.083 Cl
BRANCH  16  19
ATOM     19  O   UNL     1      -4.100  -7.416   0.249  0.00  0.00    -0.506 OA
ATOM     20  H   UNL     1      -3.481  -7.484  -0.490  0.00  0.00    +0.292 HD
ENDBRANCH  16  19
ENDBRANCH   3  11
BRANCH   1  24
ATOM     21  C   UNL     1      -1.369  -0.559  -0.034  0.00  0.00    -0.048 A 
ATOM     22  C   UNL     1      -1.965  -0.991  -1.204  0.00  0.00    +0.004 A 
ATOM     23  C   UNL     1      -3.266  -1.457  -1.186  0.00  0.00    +0.006 A 
ATOM     24  C   UNL     1      -3.971  -1.492   0.003  0.00  0.00    -0.022 A 
ATOM     25  C   UNL     1      -3.375  -1.061   1.173  0.00  0.00    +0.006 A 
ATOM     26  C   UNL     1      -2.072  -0.599   1.155  0.00  0.00    +0.004 A 
BRANCH  21  28
ATOM     27  C   UNL     1       1.012  -1.216   0.179  0.00  0.00    +0.009 C 
ATOM     28  C   UNL     1       0.049  -0.050  -0.054  0.00  0.00    +0.032 C 
ENDBRANCH  21  28
ENDBRANCH   1  24
BRANCH  10  29
ATOM     29  C   UNL     1      -6.447   0.145  -1.027  0.00  0.00    +0.144 C 
BRANCH  29  30
ATOM     30  C   UNL     1      -5.373   0.822  -1.840  0.00  0.00    -0.030 A 
ATOM     31  C   UNL     1      -4.220   1.271  -1.223  0.00  0.00    +0.005 A 
ATOM     32  C   UNL     1      -3.234   1.891  -1.968  0.00  0.00    +0.003 A 
ATOM     33  C   UNL     1      -3.401   2.061  -3.330  0.00  0.00    -0.050 A 
ATOM     34  C   UNL     1      -4.554   1.611  -3.946  0.00  0.00    +0.003 A 
ATOM     35  C   UNL     1      -5.537   0.987  -3.202  0.00  0.00    +0.005 A 
ATOM     36  C   UNL     1      -2.327   2.738  -4.142  0.00  0.00    +0.044 C 
ENDBRANCH  29  30
ENDBRANCH  10  29
TORSDOF 6
