REMARK  Name = ZINC35190842
REMARK  7 active torsions:
REMARK  status: ('A' for Active; 'I' for Inactive)
REMARK    1  A    between atoms: C_4  and  C_7
REMARK    2  A    between atoms: C_7  and  N_8
REMARK    3  A    between atoms: N_8  and  C_9
REMARK    4  A    between atoms: C_10  and  C_19
REMARK    5  A    between atoms: C_24  and  O_25
REMARK    6  A    between atoms: O_25  and  C_26
REMARK    7  A    between atoms: C_26  and  C_28
REMARK                            x       y       z     vdW  Elec       q    Type
REMARK                         _______ _______ _______ _____ _____    ______ ____
ROOT
ATOM      1  C   UNL     1       5.258  -1.425   1.540  0.00  0.00    +0.131 A 
ATOM      2  C   UNL     1       5.888  -1.686   2.738  0.00  0.00    +0.115 A 
ATOM      3  N   UNL     1       7.047  -2.316   2.471  0.00  0.00    -0.226 NA
ATOM      4  C   UNL     1       7.172  -2.462   1.161  0.00  0.00    +0.140 A 
ATOM      5  N   UNL     1       6.064  -1.919   0.552  0.00  0.00    -0.286 N 
ATOM      6  C   UNL     1       5.941  -1.944  -0.811  0.00  0.00    +0.109 A 
ATOM      7  C   UNL     1       6.901  -2.504  -1.576  0.00  0.00    +0.035 A 
ATOM      8  C   UNL     1       8.043  -3.071  -0.982  0.00  0.00    +0.020 A 
ATOM      9  C   UNL     1       8.184  -3.045   0.370  0.00  0.00    +0.048 A 
ATOM     10 BR   UNL     1       6.710  -2.529  -3.457  0.00  0.00    -0.049 Br
ENDROOT
BRANCH   2  11
ATOM     11  C   UNL     1       5.380  -1.335   4.085  0.00  0.00    +0.046 A 
ATOM     12  C   UNL     1       4.058  -1.612   4.428  0.00  0.00    +0.014 A 
ATOM     13  C   UNL     1       3.589  -1.282   5.684  0.00  0.00    +0.001 A 
ATOM     14  C   UNL     1       4.427  -0.677   6.604  0.00  0.00    +0.004 A 
ATOM     15  C   UNL     1       5.740  -0.397   6.274  0.00  0.00    +0.047 A 
ATOM     16  C   UNL     1       6.226  -0.728   5.019  0.00  0.00    +0.141 A 
BRANCH  16  17
ATOM     17  O   UNL     1       7.518  -0.458   4.696  0.00  0.00    -0.422 OA
BRANCH  17  18
ATOM     18  C   UNL     1       7.782   0.700   4.060  0.00  0.00    +0.344 C 
ATOM     19  O   UNL     1       6.871   1.424   3.713  0.00  0.00    -0.245 OA
BRANCH  18  20
ATOM     20  C   UNL     1       9.181   1.089   3.786  0.00  0.00    +0.059 A 
ATOM     21  C   UNL     1      10.230   0.256   4.179  0.00  0.00    +0.015 A 
ATOM     22  C   UNL     1      11.534   0.626   3.920  0.00  0.00    +0.001 A 
ATOM     23  C   UNL     1      11.802   1.819   3.272  0.00  0.00    +0.000 A 
ATOM     24  C   UNL     1      10.767   2.649   2.880  0.00  0.00    +0.001 A 
ATOM     25  C   UNL     1       9.458   2.289   3.128  0.00  0.00    +0.015 A 
ENDBRANCH  18  20
ENDBRANCH  17  18
ENDBRANCH  16  17
ENDBRANCH   2  11
BRANCH   1  26
ATOM     26  N   UNL     1       4.029  -0.785   1.369  0.00  0.00    -0.324 N 
ATOM     27  H   UNL     1       3.509  -0.519   2.143  0.00  0.00    +0.148 HD
BRANCH  26  28
ATOM     28  C   UNL     1       3.526  -0.515   0.020  0.00  0.00    +0.138 C 
BRANCH  28  32
ATOM     29  C   UNL     1      -0.258   1.451   0.277  0.00  0.00    +0.000 A 
ATOM     30  C   UNL     1       0.907   2.195   0.242  0.00  0.00    +0.000 A 
ATOM     31  C   UNL     1       2.131   1.559   0.159  0.00  0.00    +0.005 A 
ATOM     32  C   UNL     1       2.191   0.179   0.111  0.00  0.00    -0.030 A 
ATOM     33  C   UNL     1       1.026  -0.565   0.146  0.00  0.00    +0.005 A 
ATOM     34  C   UNL     1      -0.198   0.071   0.228  0.00  0.00    +0.000 A 
ENDBRANCH  28  32
ENDBRANCH  26  28
ENDBRANCH   1  26
TORSDOF 7
