REMARK  Name = ZINC39777088
REMARK  7 active torsions:
REMARK  status: ('A' for Active; 'I' for Inactive)
REMARK    1  A    between atoms: C_4  and  C_7
REMARK    2  A    between atoms: C_7  and  N_8
REMARK    3  A    between atoms: C_9  and  S_17
REMARK    4  A    between atoms: C_13  and  C_14
REMARK    5  A    between atoms: S_17  and  C_18
REMARK    6  A    between atoms: C_18  and  C_19
REMARK    7  A    between atoms: C_19  and  C_21
REMARK                            x       y       z     vdW  Elec       q    Type
REMARK                         _______ _______ _______ _____ _____    ______ ____
ROOT
ATOM      1  N   UNL     1       4.152  -0.952   1.338  0.00  0.00    -0.285 N 
ATOM      2  C   UNL     1       4.988  -0.067   2.167  0.00  0.00    +0.237 C 
ATOM      3  N   UNL     1       5.117  -0.797   3.440  0.00  0.00    -0.238 N 
ATOM      4  N   UNL     1       4.394  -1.985   3.281  0.00  0.00    -0.174 NA
ATOM      5  C   UNL     1       3.859  -2.061   2.117  0.00  0.00    +0.121 C 
ATOM      6  H   UNL     1       5.604  -0.512   4.229  0.00  0.00    +0.171 HD
ENDROOT
BRANCH   5   7
ATOM      7  C   UNL     1       3.015  -3.219   1.651  0.00  0.00    +0.054 C 
ATOM      8  C   UNL     1       1.973  -3.771   2.626  0.00  0.00    +0.012 C 
ATOM      9  C   UNL     1       3.240  -4.574   2.326  0.00  0.00    +0.012 C 
ENDBRANCH   5   7
BRANCH   1  10
ATOM     10  C   UNL     1       3.711  -0.707  -0.038  0.00  0.00    +0.144 C 
BRANCH  10  14
ATOM     11  C   UNL     1      -0.017   1.378   0.010  0.00  0.00    +0.000 A 
ATOM     12  C   UNL     1       1.171   2.086   0.002  0.00  0.00    +0.000 A 
ATOM     13  C   UNL     1       2.377   1.411  -0.013  0.00  0.00    +0.005 A 
ATOM     14  C   UNL     1       2.396   0.029  -0.020  0.00  0.00    -0.030 A 
ATOM     15  C   UNL     1       1.208  -0.679  -0.012  0.00  0.00    +0.005 A 
ATOM     16  C   UNL     1       0.002  -0.004   0.002  0.00  0.00    +0.000 A 
ENDBRANCH  10  14
ENDBRANCH   1  10
BRANCH   2  17
ATOM     17  S   UNL     1       6.614   0.176   1.399  0.00  0.00    -0.110 S 
BRANCH  17  18
ATOM     18  C   UNL     1       7.306  -1.497   1.299  0.00  0.00    +0.151 C 
BRANCH  18  19
ATOM     19  C   UNL     1       8.675  -1.438   0.671  0.00  0.00    +0.171 C 
ATOM     20  O   UNL     1       9.138  -0.370   0.326  0.00  0.00    -0.291 OA
BRANCH  19  21
ATOM     21  C   UNL     1       9.418  -2.623   0.486  0.00  0.00    +0.024 C 
ATOM     22  C   UNL     1      10.681  -2.740  -0.065  0.00  0.00    +0.006 A 
ATOM     23  C   UNL     1      11.593  -1.795  -0.592  0.00  0.00    +0.010 A 
ATOM     24  C   UNL     1      12.789  -2.199  -1.077  0.00  0.00    +0.001 A 
ATOM     25  C   UNL     1      13.182  -3.546  -1.085  0.00  0.00    +0.002 A 
ATOM     26  C   UNL     1      12.386  -4.527  -0.607  0.00  0.00    +0.026 A 
ATOM     27  C   UNL     1      11.066  -4.173  -0.059  0.00  0.00    +0.043 A 
ATOM     28  N   UNL     1      10.116  -4.899   0.457  0.00  0.00    -0.380 N 
ATOM     29  C   UNL     1       9.003  -4.030   0.853  0.00  0.00    +0.152 C 
ATOM     30  H   UNL     1      10.142  -5.862   0.565  0.00  0.00    +0.160 HD
ENDBRANCH  19  21
ENDBRANCH  18  19
ENDBRANCH  17  18
ENDBRANCH   2  17
TORSDOF 7
