REMARK  Name = ZINC64623243
REMARK  9 active torsions:
REMARK  status: ('A' for Active; 'I' for Inactive)
REMARK    1  A    between atoms: C_1  and  C_2
REMARK    2  A    between atoms: C_2  and  O_3
REMARK    3  A    between atoms: O_3  and  C_4
REMARK    4  A    between atoms: C_4  and  C_6
REMARK    5  A    between atoms: C_10  and  N_12
REMARK    6  A    between atoms: C_21  and  O_37
REMARK    7  A    between atoms: C_28  and  C_30
REMARK    8  A    between atoms: C_33  and  C_36
REMARK    9  A    between atoms: O_37  and  C_38
REMARK                            x       y       z     vdW  Elec       q    Type
REMARK                         _______ _______ _______ _____ _____    ______ ____
ROOT
ATOM      1  N   UNL     1       1.941  -6.312   3.680  0.00  0.00    -0.269 N 
ATOM      2  C   UNL     1       2.828  -6.540   4.670  0.00  0.00    +0.307 C 
ATOM      3  O   UNL     1       3.333  -5.604   5.260  0.00  0.00    -0.252 OA
ATOM      4  N   UNL     1       3.153  -7.803   5.005  0.00  0.00    -0.276 N 
ATOM      5  C   UNL     1       2.638  -8.921   4.208  0.00  0.00    +0.114 C 
ATOM      6  C   UNL     1       1.842  -9.875   5.118  0.00  0.00    +0.052 C 
ATOM      7  C   UNL     1       2.673 -10.081   6.361  0.00  0.00    -0.035 C 
ATOM      8  C   UNL     1       3.076 -11.187   6.974  0.00  0.00    +0.003 A 
ATOM      9  C   UNL     1       2.776 -12.607   6.736  0.00  0.00    +0.055 A 
ATOM     10  C   UNL     1       3.387 -13.506   7.557  0.00  0.00    +0.121 A 
ATOM     11  C   UNL     1       4.266 -13.152   8.591  0.00  0.00    +0.047 A 
ATOM     12  C   UNL     1       4.604 -11.875   8.902  0.00  0.00    +0.029 A 
ATOM     13  C   UNL     1       4.000 -10.811   8.088  0.00  0.00    +0.043 A 
ATOM     14  N   UNL     1       4.119  -9.520   8.166  0.00  0.00    -0.375 N 
ATOM     15  C   UNL     1       3.244  -8.916   7.160  0.00  0.00    +0.131 C 
ATOM     16  C   UNL     1       4.027  -8.047   6.164  0.00  0.00    +0.134 C 
ATOM     17  H   UNL     1       1.486  -7.056   3.256  0.00  0.00    +0.156 HD
ATOM     18  H   UNL     1       4.690  -9.039   8.785  0.00  0.00    +0.160 HD
ENDROOT
BRANCH  16  19
ATOM     19  C   UNL     1       5.273  -8.770   5.720  0.00  0.00    -0.025 A 
ATOM     20  C   UNL     1       5.172  -9.903   4.936  0.00  0.00    +0.006 A 
ATOM     21  C   UNL     1       6.315 -10.566   4.529  0.00  0.00    +0.004 A 
ATOM     22  C   UNL     1       7.559 -10.095   4.906  0.00  0.00    -0.050 A 
ATOM     23  C   UNL     1       7.660  -8.961   5.689  0.00  0.00    +0.004 A 
ATOM     24  C   UNL     1       6.517  -8.296   6.093  0.00  0.00    +0.006 A 
ATOM     25  C   UNL     1       8.804 -10.819   4.463  0.00  0.00    +0.044 C 
ENDBRANCH  16  19
BRANCH   1  30
ATOM     26  C   UNL     1       0.896  -3.460   1.591  0.00  0.00    +0.061 A 
ATOM     27  C   UNL     1       1.163  -2.396   2.455  0.00  0.00    +0.015 A 
ATOM     28  C   UNL     1       1.682  -2.640   3.710  0.00  0.00    +0.003 A 
ATOM     29  C   UNL     1       1.939  -3.936   4.117  0.00  0.00    +0.023 A 
ATOM     30  C   UNL     1       1.678  -5.002   3.264  0.00  0.00    +0.036 A 
ATOM     31  C   UNL     1       1.152  -4.768   2.003  0.00  0.00    +0.038 A 
BRANCH  26  32
ATOM     32  C   UNL     1       0.340  -3.201   0.247  0.00  0.00    +0.339 C 
ATOM     33  O   UNL     1       0.105  -4.128  -0.502  0.00  0.00    -0.245 OA
BRANCH  32  34
ATOM     34  O   UNL     1       0.095  -1.937  -0.149  0.00  0.00    -0.461 OA
BRANCH  34  36
ATOM     35  C   UNL     1      -0.654  -0.269  -1.730  0.00  0.00    +0.048 C 
ATOM     36  C   UNL     1      -0.443  -1.761  -1.461  0.00  0.00    +0.229 C 
ENDBRANCH  34  36
ENDBRANCH  32  34
ENDBRANCH  26  32
ENDBRANCH   1  30
BRANCH  10  37
ATOM     37  O   UNL     1       3.128 -14.826   7.362  0.00  0.00    -0.495 OA
ATOM     38  C   UNL     1       3.781 -15.750   8.235  0.00  0.00    +0.277 C 
ENDBRANCH  10  37
TORSDOF 6
