REMARK  Name = ZINC66130850
REMARK  9 active torsions:
REMARK  status: ('A' for Active; 'I' for Inactive)
REMARK    1  A    between atoms: C_1  and  C_2
REMARK    2  A    between atoms: C_2  and  N_3
REMARK    3  A    between atoms: N_3  and  C_4
REMARK    4  A    between atoms: N_3  and  C_6
REMARK    5  A    between atoms: C_4  and  C_5
REMARK    6  A    between atoms: C_9  and  C_12
REMARK    7  A    between atoms: N_23  and  C_24
REMARK    8  A    between atoms: C_24  and  C_25
REMARK    9  A    between atoms: C_25  and  C_26
REMARK                            x       y       z     vdW  Elec       q    Type
REMARK                         _______ _______ _______ _____ _____    ______ ____
ROOT
ATOM      1  C   UNL     1      -1.302  -6.165   0.447  0.00  0.00    +0.193 C 
ATOM      2  N   UNL     1      -0.084  -6.686  -0.185  0.00  0.00    -0.321 N 
ATOM      3  C   UNL     1       1.123  -6.558   0.494  0.00  0.00    +0.041 A 
ATOM      4  C   UNL     1       2.330  -6.437  -0.173  0.00  0.00    +0.024 A 
ATOM      5  C   UNL     1       3.500  -6.309   0.549  0.00  0.00    +0.002 A 
ATOM      6  C   UNL     1       3.475  -6.300   1.935  0.00  0.00    +0.001 A 
ATOM      7  C   UNL     1       2.281  -6.421   2.615  0.00  0.00    +0.015 A 
ATOM      8  C   UNL     1       1.094  -6.553   1.900  0.00  0.00    +0.058 A 
ATOM      9  C   UNL     1      -0.208  -6.693   2.575  0.00  0.00    +0.250 C 
ATOM     10  O   UNL     1      -0.261  -6.942   3.765  0.00  0.00    -0.270 OA
ATOM     11  N   UNL     1      -1.338  -6.543   1.860  0.00  0.00    -0.275 N 
ATOM     12  H   UNL     1      -0.120  -7.109  -1.057  0.00  0.00    +0.148 HD
ENDROOT
BRANCH   1  16
ATOM     13  C   UNL     1      -1.358  -1.906   0.120  0.00  0.00    +0.013 A 
ATOM     14  C   UNL     1      -0.724  -2.666  -0.846  0.00  0.00    +0.022 A 
ATOM     15  C   UNL     1      -0.706  -4.044  -0.740  0.00  0.00    +0.009 A 
ATOM     16  C   UNL     1      -1.321  -4.663   0.332  0.00  0.00    -0.009 A 
ATOM     17  C   UNL     1      -1.954  -3.903   1.298  0.00  0.00    +0.009 A 
ATOM     18  C   UNL     1      -1.968  -2.525   1.194  0.00  0.00    +0.022 A 
BRANCH  13  19
ATOM     19  N   UNL     1      -1.376  -0.512   0.012  0.00  0.00    -0.394 NA
ATOM     20  H   UNL     1      -1.873  -0.121   0.799  0.00  0.00    +0.126 HD
BRANCH  19  22
ATOM     21  C   UNL     1      -0.019   1.526   0.010  0.00  0.00    +0.022 C 
ATOM     22  C   UNL     1       0.002  -0.004   0.002  0.00  0.00    +0.081 C 
ENDBRANCH  19  22
BRANCH  19  23
ATOM     23  C   UNL     1      -2.050  -0.126  -1.234  0.00  0.00    +0.081 C 
ATOM     24  C   UNL     1      -3.520  -0.547  -1.171  0.00  0.00    +0.022 C 
ENDBRANCH  19  23
ENDBRANCH  13  19
ENDBRANCH   1  16
BRANCH  11  25
ATOM     25  C   UNL     1      -2.631  -6.762   2.513  0.00  0.00    +0.115 C 
BRANCH  25  26
ATOM     26  C   UNL     1      -3.033  -8.232   2.368  0.00  0.00    +0.054 C 
BRANCH  26  27
ATOM     27  C   UNL     1      -4.363  -8.457   3.040  0.00  0.00    -0.046 A 
ATOM     28  C   UNL     1      -4.412  -8.809   4.376  0.00  0.00    +0.004 A 
ATOM     29  C   UNL     1      -5.631  -9.016   4.992  0.00  0.00    +0.000 A 
ATOM     30  C   UNL     1      -6.803  -8.871   4.272  0.00  0.00    +0.000 A 
ATOM     31  C   UNL     1      -6.754  -8.518   2.937  0.00  0.00    +0.000 A 
ATOM     32  C   UNL     1      -5.534  -8.307   2.322  0.00  0.00    +0.004 A 
ENDBRANCH  26  27
ENDBRANCH  25  26
ENDBRANCH  11  25
TORSDOF 7
