REMARK  Name = ZINC39253079
REMARK  4 active torsions:
REMARK  status: ('A' for Active; 'I' for Inactive)
REMARK    1  A    between atoms: C_8  and  C_23
REMARK    2  A    between atoms: C_14  and  S_18
REMARK    3  A    between atoms: S_18  and  C_19
REMARK    4  A    between atoms: C_19  and  C_20
REMARK                            x       y       z     vdW  Elec       q    Type
REMARK                         _______ _______ _______ _____ _____    ______ ____
ROOT
ATOM      1  C   UNL     1      -0.173   1.283   0.047  0.00  0.00    +0.000 A 
ATOM      2  C   UNL     1       0.982   2.047   0.035  0.00  0.00    +0.001 A 
ATOM      3  C   UNL     1       2.214   1.430   0.013  0.00  0.00    +0.010 A 
ATOM      4  C   UNL     1       2.291   0.034  -0.001  0.00  0.00    +0.000 A 
ATOM      5  C   UNL     1       1.124  -0.737   0.004  0.00  0.00    -0.038 A 
ATOM      6  C   UNL     1      -0.103  -0.098   0.033  0.00  0.00    +0.004 A 
ATOM      7  C   UNL     1       1.161  -2.240  -0.033  0.00  0.00    +0.040 C 
ATOM      8  C   UNL     1       2.512  -2.788   0.422  0.00  0.00    +0.014 C 
ATOM      9  C   UNL     1       3.625  -2.101  -0.370  0.00  0.00    +0.130 C 
ATOM     10  C   UNL     1       3.601  -0.635  -0.013  0.00  0.00    +0.064 C 
ATOM     11  N   UNL     1       4.693   0.007   0.280  0.00  0.00    -0.228 NA
ATOM     12  C   UNL     1       5.876  -0.614   0.388  0.00  0.00    +0.181 C 
ATOM     13  N   UNL     1       5.996  -1.928   0.261  0.00  0.00    -0.155 NA
ATOM     14  C   UNL     1       4.968  -2.681  -0.052  0.00  0.00    +0.248 C 
ATOM     15  O   UNL     1       5.125  -3.885  -0.095  0.00  0.00    -0.273 OA
ENDROOT
BRANCH   8  16
ATOM     16  C   UNL     1       2.700  -2.510   1.915  0.00  0.00    -0.006 C 
ATOM     17  C   UNL     1       3.966  -3.213   2.410  0.00  0.00    +0.004 C 
ATOM     18  C   UNL     1       4.153  -2.936   3.902  0.00  0.00    +0.000 C 
ATOM     19  C   UNL     1       2.943  -3.463   4.675  0.00  0.00    +0.000 C 
ATOM     20  C   UNL     1       1.677  -2.760   4.181  0.00  0.00    +0.000 C 
ATOM     21  C   UNL     1       1.489  -3.038   2.688  0.00  0.00    +0.004 C 
ENDBRANCH   8  16
BRANCH  12  22
ATOM     22  S   UNL     1       7.317   0.346   0.710  0.00  0.00    -0.079 S 
BRANCH  22  23
ATOM     23  C   UNL     1       8.655  -0.877   0.776  0.00  0.00    +0.172 C 
BRANCH  23  24
ATOM     24  C   UNL     1       9.962  -0.179   1.049  0.00  0.00    +0.221 C 
ATOM     25  O   UNL     1       9.989   1.026   1.186  0.00  0.00    -0.275 OA
ATOM     26  N   UNL     1      11.101  -0.893   1.141  0.00  0.00    -0.329 N 
ATOM     27  H   UNL     1      11.080  -1.856   1.031  0.00  0.00    +0.145 HD
ATOM     28  H   UNL     1      11.943  -0.443   1.317  0.00  0.00    +0.145 HD
ENDBRANCH  23  24
ENDBRANCH  22  23
ENDBRANCH  12  22
TORSDOF 4
