REMARK  Name = ZINC21737480
REMARK  6 active torsions:
REMARK  status: ('A' for Active; 'I' for Inactive)
REMARK    1  A    between atoms: C_1  and  C_2
REMARK    2  A    between atoms: C_3  and  N_9
REMARK    3  A    between atoms: C_13  and  S_15
REMARK    4  A    between atoms: S_15  and  C_16
REMARK    5  A    between atoms: C_16  and  C_17
REMARK    6  A    between atoms: C_17  and  C_19
REMARK                            x       y       z     vdW  Elec       q    Type
REMARK                         _______ _______ _______ _____ _____    ______ ____
ROOT
ATOM      1  S   UNL     1       5.266   2.727   6.590  0.00  0.00    -0.089 S 
ENDROOT
BRANCH   1   6
ATOM      2  N   UNL     1       1.384   1.594   2.435  0.00  0.00    -0.292 N 
ATOM      3  C   UNL     1       2.120   1.928   3.566  0.00  0.00    +0.187 A 
ATOM      4  N   UNL     1       1.701   2.372   4.734  0.00  0.00    -0.125 NA
ATOM      5  N   UNL     1       2.611   2.640   5.731  0.00  0.00    -0.133 NA
ATOM      6  C   UNL     1       3.899   2.461   5.510  0.00  0.00    +0.160 A 
ATOM      7  S   UNL     1       3.888   1.876   3.822  0.00  0.00    -0.024 S 
ATOM      8  H   UNL     1       1.901   1.331   1.500  0.00  0.00    +0.154 HD
BRANCH   2  11
ATOM      9  C   UNL     1      -0.048   1.262  -0.002  0.00  0.00    +0.047 C 
ATOM     10  C   UNL     1      -0.751   1.432   1.320  0.00  0.00    -0.011 A 
ATOM     11  C   UNL     1      -0.012   1.591   2.486  0.00  0.00    +0.037 A 
ATOM     12  C   UNL     1      -0.665   1.749   3.702  0.00  0.00    +0.023 A 
ATOM     13  C   UNL     1      -2.045   1.746   3.749  0.00  0.00    +0.003 A 
ATOM     14  C   UNL     1      -2.778   1.587   2.588  0.00  0.00    +0.020 A 
ATOM     15  C   UNL     1      -2.132   1.436   1.373  0.00  0.00    +0.046 A 
ATOM     16 CL   UNL     1      -3.057   1.244  -0.083  0.00  0.00    -0.083 Cl
ENDBRANCH   2  11
ENDBRANCH   1   6
BRANCH   1  17
ATOM     17  C   UNL     1       4.503   3.320   8.125  0.00  0.00    +0.156 C 
BRANCH  17  18
ATOM     18  C   UNL     1       5.576   3.590   9.148  0.00  0.00    +0.173 C 
ATOM     19  O   UNL     1       6.741   3.401   8.868  0.00  0.00    -0.291 OA
BRANCH  18  20
ATOM     20  C   UNL     1       5.211   4.082  10.482  0.00  0.00    +0.020 A 
ATOM     21  C   UNL     1       3.867   4.306  10.805  0.00  0.00    +0.015 A 
ATOM     22  C   UNL     1       3.525   4.763  12.058  0.00  0.00    +0.048 A 
ATOM     23  C   UNL     1       4.511   5.012  13.002  0.00  0.00    +0.142 A 
ATOM     24  C   UNL     1       5.856   4.795  12.686  0.00  0.00    +0.076 A 
ATOM     25  C   UNL     1       6.207   4.333  11.435  0.00  0.00    +0.038 A 
ATOM     26  N   UNL     1       6.837   5.054  13.654  0.00  0.00    -0.280 N 
ATOM     27  C   UNL     1       6.462   5.196  14.944  0.00  0.00    +0.255 C 
ATOM     28  O   UNL     1       7.289   5.449  15.795  0.00  0.00    -0.272 OA
ATOM     29  C   UNL     1       5.011   5.037  15.323  0.00  0.00    +0.325 C 
ATOM     30  O   UNL     1       4.182   5.465  14.239  0.00  0.00    -0.481 OA
ATOM     31  H   UNL     1       7.893   5.139  13.358  0.00  0.00    +0.155 HD
ENDBRANCH  18  20
ENDBRANCH  17  18
ENDBRANCH   1  17
TORSDOF 5
