REMARK  Name = ZINC02123000
REMARK  4 active torsions:
REMARK  status: ('A' for Active; 'I' for Inactive)
REMARK    1  A    between atoms: C_7  and  C_11
REMARK    2  A    between atoms: C_11  and  C_12
REMARK    3  A    between atoms: C_12  and  N_13
REMARK    4  A    between atoms: C_14  and  C_16
REMARK                            x       y       z     vdW  Elec       q    Type
REMARK                         _______ _______ _______ _____ _____    ______ ____
ROOT
ATOM      1  N   UNL     1       2.521   4.163   0.242  0.00  0.00    -0.313 N 
ATOM      2  C   UNL     1       1.359   3.481   0.214  0.00  0.00    +0.234 C 
ATOM      3  O   UNL     1       0.308   4.068   0.361  0.00  0.00    -0.274 OA
ATOM      4  H   UNL     1       3.362   3.694   0.125  0.00  0.00    +0.149 HD
ENDROOT
BRANCH   2   5
ATOM      5  C   UNL     1       1.366   1.990  -0.000  0.00  0.00    +0.173 C 
ATOM      6  C   UNL     1       2.175   1.306   1.138  0.00  0.00    +0.103 C 
ATOM      7  S   UNL     1       1.301  -0.314   1.267  0.00  0.00    -0.131 S 
ATOM      8  C   UNL     1       0.002  -0.004   0.002  0.00  0.00    +0.166 C 
ATOM      9  N   UNL     1      -0.018   1.486   0.010  0.00  0.00    -0.269 N 
ATOM     10  C   UNL     1      -1.305   1.863   0.101  0.00  0.00    +0.249 C 
ATOM     11  O   UNL     1      -1.719   2.985  -0.121  0.00  0.00    -0.270 OA
ATOM     12  C   UNL     1      -2.142   0.718   0.509  0.00  0.00    +0.043 A 
ATOM     13  C   UNL     1      -1.346  -0.432   0.501  0.00  0.00    -0.005 A 
ATOM     14  C   UNL     1      -1.872  -1.638   0.904  0.00  0.00    +0.007 A 
ATOM     15  C   UNL     1      -3.196  -1.721   1.299  0.00  0.00    +0.000 A 
ATOM     16  C   UNL     1      -3.997  -0.593   1.291  0.00  0.00    +0.001 A 
ATOM     17  C   UNL     1      -3.478   0.625   0.899  0.00  0.00    +0.013 A 
ENDBRANCH   2   5
BRANCH   1  18
ATOM     18  C   UNL     1       2.515   5.613   0.451  0.00  0.00    +0.109 C 
BRANCH  18  19
ATOM     19  C   UNL     1       3.953   6.136   0.440  0.00  0.00    +0.056 C 
BRANCH  19  26
ATOM     20  C   UNL     1       3.844   8.824   4.278  0.00  0.00    +0.001 A 
ATOM     21  C   UNL     1       3.852  10.182   3.988  0.00  0.00    +0.002 A 
ATOM     22  C   UNL     1       3.889  10.621   2.683  0.00  0.00    +0.026 A 
ATOM     23  C   UNL     1       3.918   9.697   1.644  0.00  0.00    +0.047 A 
ATOM     24  C   UNL     1       3.909   8.323   1.943  0.00  0.00    +0.003 A 
ATOM     25  C   UNL     1       3.872   7.900   3.273  0.00  0.00    +0.010 A 
ATOM     26  C   UNL     1       3.946   7.628   0.654  0.00  0.00    -0.021 A 
ATOM     27  C   UNL     1       3.979   8.572  -0.300  0.00  0.00    +0.087 A 
ATOM     28  N   UNL     1       3.958   9.815   0.272  0.00  0.00    -0.360 N 
ATOM     29  H   UNL     1       3.972  10.653  -0.215  0.00  0.00    +0.165 HD
ENDBRANCH  19  26
ENDBRANCH  18  19
ENDBRANCH   1  18
TORSDOF 4
