REMARK  Name = ZINC64226571
REMARK  9 active torsions:
REMARK  status: ('A' for Active; 'I' for Inactive)
REMARK    1  A    between atoms: C_1  and  C_2
REMARK    2  A    between atoms: C_2  and  C_3
REMARK    3  A    between atoms: C_3  and  C_4
REMARK    4  A    between atoms: N_13  and  C_14
REMARK    5  A    between atoms: C_14  and  C_15
REMARK    6  A    between atoms: C_14  and  C_16
REMARK    7  A    between atoms: C_19  and  S_22
REMARK    8  A    between atoms: S_22  and  N_25
REMARK    9  A    between atoms: N_25  and  C_26
REMARK                            x       y       z     vdW  Elec       q    Type
REMARK                         _______ _______ _______ _____ _____    ______ ____
ROOT
ATOM      1  C   UNL     1      -1.169  -6.553  -0.819  0.00  0.00    -0.009 C 
ATOM      2  C   UNL     1      -0.018  -6.199   0.119  0.00  0.00    +0.005 C 
ATOM      3  C   UNL     1       0.184  -4.704   0.121  0.00  0.00    +0.019 C 
ATOM      4  C   UNL     1      -0.641  -4.061   1.250  0.00  0.00    +0.109 C 
ATOM      5  N   UNL     1      -1.979  -4.672   1.379  0.00  0.00    -0.286 N 
ATOM      6  C   UNL     1      -2.797  -5.010   0.236  0.00  0.00    +0.109 C 
ATOM      7  C   UNL     1      -2.502  -6.465  -0.202  0.00  0.00    +0.022 C 
ATOM      8  C   UNL     1      -2.457  -4.925   2.614  0.00  0.00    +0.303 C 
ATOM      9  O   UNL     1      -1.756  -4.733   3.589  0.00  0.00    -0.253 OA
ATOM     10  N   UNL     1      -3.712  -5.391   2.768  0.00  0.00    -0.293 N 
ATOM     11  H   UNL     1      -4.245  -5.615   1.989  0.00  0.00    +0.151 HD
ENDROOT
BRANCH  10  12
ATOM     12  C   UNL     1      -4.271  -5.561   4.112  0.00  0.00    +0.102 C 
ATOM     13  C   UNL     1      -4.862  -4.233   4.589  0.00  0.00    +0.033 C 
BRANCH  12  14
ATOM     14  C   UNL     1      -5.353  -6.609   4.077  0.00  0.00    -0.027 A 
ATOM     15  C   UNL     1      -6.230  -6.662   3.010  0.00  0.00    +0.007 A 
ATOM     16  C   UNL     1      -7.223  -7.624   2.979  0.00  0.00    +0.029 A 
ATOM     17  C   UNL     1      -7.337  -8.533   4.014  0.00  0.00    +0.105 A 
ATOM     18  C   UNL     1      -6.460  -8.480   5.080  0.00  0.00    +0.029 A 
ATOM     19  C   UNL     1      -5.464  -7.521   5.110  0.00  0.00    +0.007 A 
BRANCH  17  20
ATOM     20  S   UNL     1      -8.603  -9.758   3.974  0.00  0.00    +0.058 S 
ATOM     21  O   UNL     1      -8.838 -10.142   5.322  0.00  0.00    -0.153 OA
ATOM     22  O   UNL     1      -9.633  -9.251   3.136  0.00  0.00    -0.153 OA
BRANCH  20  23
ATOM     23  N   UNL     1      -7.977 -11.085   3.206  0.00  0.00    -0.193 NA
ATOM     24  C   UNL     1      -6.867 -11.825   3.811  0.00  0.00    +0.127 C 
ATOM     25  H   UNL     1      -8.345 -11.371   2.356  0.00  0.00    +0.148 HD
ENDBRANCH  20  23
ENDBRANCH  17  20
ENDBRANCH  12  14
ENDBRANCH  10  12
BRANCH   1  26
ATOM     26  C   UNL     1      -0.961  -7.981  -1.326  0.00  0.00    +0.003 C 
BRANCH  26  28
ATOM     27  C   UNL     1      -1.752  -9.702  -2.956  0.00  0.00    +0.004 C 
ATOM     28  C   UNL     1      -1.959  -8.274  -2.448  0.00  0.00    -0.003 C 
ENDBRANCH  26  28
ENDBRANCH   1  26
TORSDOF 6
