REMARK  Name = ZINC35397546
REMARK  7 active torsions:
REMARK  status: ('A' for Active; 'I' for Inactive)
REMARK    1  A    between atoms: C_1  and  C_2
REMARK    2  A    between atoms: C_5  and  S_9
REMARK    3  A    between atoms: C_6  and  C_8
REMARK    4  A    between atoms: S_9  and  N_12
REMARK    5  A    between atoms: N_12  and  C_13
REMARK    6  A    between atoms: C_15  and  C_31
REMARK    7  A    between atoms: C_22  and  N_25
REMARK                            x       y       z     vdW  Elec       q    Type
REMARK                         _______ _______ _______ _____ _____    ______ ____
ROOT
ATOM      1  C   UNL     1       1.983  -6.341   0.842  0.00  0.00    +0.091 A 
ATOM      2  C   UNL     1       3.106  -6.937   1.399  0.00  0.00    +0.046 A 
ATOM      3  C   UNL     1       3.178  -8.337   1.412  0.00  0.00    +0.103 A 
ATOM      4  C   UNL     1       2.115  -9.076   0.863  0.00  0.00    +0.113 A 
ATOM      5  N   UNL     1       1.066  -8.457   0.344  0.00  0.00    -0.347 N 
ATOM      6  C   UNL     1       0.971  -7.142   0.325  0.00  0.00    +0.110 A 
ATOM      7  N   UNL     1       2.166 -10.459   0.864  0.00  0.00    -0.316 N 
ATOM      8  C   UNL     1       2.848 -11.184  -0.216  0.00  0.00    +0.105 C 
ATOM      9  C   UNL     1       1.880 -12.213  -0.807  0.00  0.00    +0.004 C 
ATOM     10  C   UNL     1       1.347 -13.109   0.313  0.00  0.00    -0.066 C 
ATOM     11  C   UNL     1       0.585 -12.258   1.331  0.00  0.00    +0.004 C 
ATOM     12  C   UNL     1       1.543 -11.229   1.950  0.00  0.00    +0.105 C 
ATOM     13  H   UNL     1       0.344  -8.987  -0.030  0.00  0.00    +0.167 HD
ENDROOT
BRANCH  10  14
ATOM     14  N   UNL     1       0.444 -14.119  -0.255  0.00  0.00    +0.382 N 
ATOM     15  C   UNL     1      -0.073 -14.972   0.821  0.00  0.00    -0.078 C 
ATOM     16  C   UNL     1      -1.077 -15.973   0.246  0.00  0.00    -0.019 C 
ATOM     17  C   UNL     1      -0.379 -16.841  -0.805  0.00  0.00    -0.004 C 
ATOM     18  C   UNL     1       0.221 -15.935  -1.884  0.00  0.00    -0.019 C 
ATOM     19  C   UNL     1       1.177 -14.935  -1.230  0.00  0.00    -0.078 C 
ATOM     20  H   UNL     1      -0.327 -13.658  -0.716  0.00  0.00    -0.081 HD
ENDBRANCH  10  14
BRANCH   3  21
ATOM     21  C   UNL     1       4.345  -9.021   1.989  0.00  0.00    +0.390 C 
ATOM     22  O   UNL     1       5.310  -8.371   2.367  0.00  0.00    -0.240 OA
ATOM     23  O   UNL     1       4.351 -10.240   2.091  0.00  0.00    -0.240 OA
ENDBRANCH   3  21
BRANCH   1  24
ATOM     24  N   UNL     1       1.867  -4.946   0.807  0.00  0.00    -0.096 NA
BRANCH  24  25
ATOM     25  S   UNL     1       0.520  -4.243   0.147  0.00  0.00    +0.092 S 
ATOM     26  O   UNL     1      -0.572  -4.588   0.989  0.00  0.00    -0.148 OA
ATOM     27  O   UNL     1       0.540  -4.551  -1.240  0.00  0.00    -0.148 OA
BRANCH  25  32
ATOM     28  C   UNL     1       1.221   1.733   0.596  0.00  0.00    +0.044 C 
ATOM     29  C   UNL     1       1.046   0.240   0.484  0.00  0.00    -0.050 A 
ATOM     30  C   UNL     1       1.002  -0.359  -0.761  0.00  0.00    +0.005 A 
ATOM     31  C   UNL     1       0.842  -1.728  -0.864  0.00  0.00    +0.029 A 
ATOM     32  C   UNL     1       0.726  -2.498   0.278  0.00  0.00    +0.113 A 
ATOM     33  C   UNL     1       0.771  -1.899   1.523  0.00  0.00    -0.024 A 
ATOM     34  C   UNL     1       0.936  -0.530   1.626  0.00  0.00    +0.008 A 
ATOM     35  C   UNL     1       0.644  -2.739   2.768  0.00  0.00    +0.046 C 
ENDBRANCH  25  32
ENDBRANCH  24  25
ENDBRANCH   1  24
TORSDOF 5
