REMARK  Name = ZINC58004726
REMARK  7 active torsions:
REMARK  status: ('A' for Active; 'I' for Inactive)
REMARK    1  A    between atoms: C_1  and  C_2
REMARK    2  A    between atoms: C_5  and  C_8
REMARK    3  A    between atoms: C_8  and  C_10
REMARK    4  A    between atoms: C_8  and  N_15
REMARK    5  A    between atoms: N_18  and  N_19
REMARK    6  A    between atoms: C_20  and  C_22
REMARK    7  A    between atoms: C_23  and  C_31
REMARK                            x       y       z     vdW  Elec       q    Type
REMARK                         _______ _______ _______ _____ _____    ______ ____
ROOT
ATOM      1  N   UNL     1      -0.816  -4.781   1.039  0.00  0.00    -0.287 N 
ATOM      2  C   UNL     1      -1.361  -6.009   0.935  0.00  0.00    +0.317 C 
ATOM      3  O   UNL     1      -1.125  -6.698  -0.039  0.00  0.00    -0.251 OA
ATOM      4  N   UNL     1      -2.166  -6.474   1.910  0.00  0.00    -0.218 N 
ATOM      5  H   UNL     1      -1.004  -4.231   1.816  0.00  0.00    +0.151 HD
ATOM      6  H   UNL     1      -2.558  -7.359   1.835  0.00  0.00    +0.174 HD
ENDROOT
BRANCH   4   7
ATOM      7  N   UNL     1      -2.437  -5.681   3.032  0.00  0.00    -0.227 N 
ATOM      8  C   UNL     1      -3.243  -6.146   4.008  0.00  0.00    +0.296 C 
ATOM      9  O   UNL     1      -3.734  -7.255   3.913  0.00  0.00    -0.265 OA
ATOM     10  H   UNL     1      -2.046  -4.797   3.107  0.00  0.00    +0.173 HD
BRANCH   8  11
ATOM     11  C   UNL     1      -3.528  -5.313   5.185  0.00  0.00    +0.195 A 
ATOM     12  C   UNL     1      -4.317  -5.678   6.228  0.00  0.00    +0.008 A 
ATOM     13  C   UNL     1      -4.311  -4.548   7.156  0.00  0.00    +0.024 A 
ATOM     14  C   UNL     1      -4.914  -4.299   8.391  0.00  0.00    +0.012 A 
ATOM     15  C   UNL     1      -4.702  -3.105   9.020  0.00  0.00    +0.001 A 
ATOM     16  C   UNL     1      -3.891  -2.139   8.439  0.00  0.00    +0.004 A 
ATOM     17  C   UNL     1      -3.287  -2.365   7.221  0.00  0.00    +0.047 A 
ATOM     18  C   UNL     1      -3.488  -3.572   6.563  0.00  0.00    +0.136 A 
ATOM     19  O   UNL     1      -3.040  -4.073   5.395  0.00  0.00    -0.450 OA
ATOM     20  C   UNL     1      -5.051  -6.984   6.395  0.00  0.00    +0.048 C 
ENDBRANCH   8  11
ENDBRANCH   4   7
BRANCH   1  21
ATOM     21  C   UNL     1       0.059  -4.275  -0.021  0.00  0.00    +0.142 C 
BRANCH  21  26
ATOM     22  C   UNL     1      -0.018   1.503   0.010  0.00  0.00    +0.044 C 
ATOM     23  C   UNL     1       0.002  -0.004   0.002  0.00  0.00    -0.050 A 
ATOM     24  C   UNL     1       0.006  -0.689  -1.199  0.00  0.00    +0.004 A 
ATOM     25  C   UNL     1       0.025  -2.071  -1.206  0.00  0.00    +0.006 A 
ATOM     26  C   UNL     1       0.040  -2.768  -0.013  0.00  0.00    -0.022 A 
ATOM     27  C   UNL     1       0.037  -2.084   1.188  0.00  0.00    +0.006 A 
ATOM     28  C   UNL     1       0.023  -0.702   1.195  0.00  0.00    +0.004 A 
ENDBRANCH  21  26
BRANCH  21  29
ATOM     29  C   UNL     1       1.466  -4.761   0.215  0.00  0.00    +0.014 A 
ATOM     30  C   UNL     1       2.382  -5.196  -0.685  0.00  0.00    +0.013 A 
ATOM     31  C   UNL     1       3.626  -5.597  -0.236  0.00  0.00    +0.008 A 
ATOM     32  C   UNL     1       3.893  -5.544   1.092  0.00  0.00    +0.045 A 
ATOM     33  S   UNL     1       2.363  -4.905   1.752  0.00  0.00    -0.099 S 
ENDBRANCH  21  29
ENDBRANCH   1  21
TORSDOF 5
