REMARK  Name = ZINC39276897
REMARK  2 active torsions:
REMARK  status: ('A' for Active; 'I' for Inactive)
REMARK    1  A    between atoms: N_16  and  N_17
REMARK    2  A    between atoms: C_23  and  N_28
REMARK                            x       y       z     vdW  Elec       q    Type
REMARK                         _______ _______ _______ _____ _____    ______ ____
ROOT
ATOM      1  C   UNL     1      -0.017   1.399   0.010  0.00  0.00    +0.022 A 
ATOM      2  C   UNL     1       1.110   2.141   0.003  0.00  0.00    +0.027 A 
ATOM      3  C   UNL     1       2.386   1.516  -0.013  0.00  0.00    +0.043 A 
ATOM      4  N   UNL     1       3.603   2.013  -0.049  0.00  0.00    -0.372 N 
ATOM      5  C   UNL     1       4.553   0.912   0.057  0.00  0.00    +0.153 C 
ATOM      6  C   UNL     1       3.717  -0.354  -0.062  0.00  0.00    -0.033 C 
ATOM      7  C   UNL     1       2.435   0.032  -0.032  0.00  0.00    +0.001 A 
ATOM      8  C   UNL     1       1.162  -0.700  -0.018  0.00  0.00    +0.030 A 
ATOM      9  C   UNL     1       0.002  -0.004   0.002  0.00  0.00    +0.042 A 
ATOM     10 CL   UNL     1      -1.502  -0.870   0.019  0.00  0.00    -0.084 Cl
ATOM     11  C   UNL     1       4.336  -1.710  -0.279  0.00  0.00    +0.034 C 
ATOM     12  C   UNL     1       5.257  -1.596  -1.504  0.00  0.00    +0.010 C 
ATOM     13  C   UNL     1       6.252  -0.450  -1.324  0.00  0.00    +0.055 C 
ATOM     14  C   UNL     1       5.532   0.870  -1.096  0.00  0.00    +0.067 C 
ATOM     15  N   UNL     1       5.736   1.905  -1.858  0.00  0.00    -0.155 NA
ATOM     16  H   UNL     1       3.829   2.952  -0.132  0.00  0.00    +0.161 HD
ENDROOT
BRANCH  15  17
ATOM     17  N   UNL     1       6.578   1.833  -2.832  0.00  0.00    -0.144 NA
ATOM     18  C   UNL     1       6.784   2.878  -3.601  0.00  0.00    +0.157 C 
ATOM     19  C   UNL     1       7.699   2.979  -4.758  0.00  0.00    +0.032 A 
ATOM     20  C   UNL     1       8.571   2.079  -5.364  0.00  0.00    +0.027 A 
ATOM     21  C   UNL     1       9.313   2.476  -6.460  0.00  0.00    +0.021 A 
ATOM     22  C   UNL     1       9.189   3.765  -6.951  0.00  0.00    +0.050 A 
ATOM     23  C   UNL     1       8.327   4.665  -6.356  0.00  0.00    +0.149 A 
ATOM     24  C   UNL     1       7.571   4.285  -5.253  0.00  0.00    +0.074 A 
ATOM     25  N   UNL     1       6.647   4.982  -4.482  0.00  0.00    -0.278 N 
ATOM     26  C   UNL     1       6.145   4.212  -3.502  0.00  0.00    +0.269 C 
ATOM     27  O   UNL     1       5.316   4.550  -2.679  0.00  0.00    -0.268 OA
ATOM     28 BR   UNL     1      10.499   1.259  -7.288  0.00  0.00    -0.050 Br
ATOM     29  H   UNL     1       6.394   5.906  -4.636  0.00  0.00    +0.155 HD
BRANCH  23  30
ATOM     30  N   UNL     1       8.207   6.039  -6.894  0.00  0.00    +0.058 N 
ATOM     31  O   UNL     1       8.864   6.372  -7.854  0.00  0.00    -0.126 OA
ATOM     32  O   UNL     1       7.454   6.828  -6.375  0.00  0.00    -0.126 OA
ENDBRANCH  23  30
ENDBRANCH  15  17
TORSDOF 2
