REMARK  Name = ZINC09243425
REMARK  12 active torsions:
REMARK  status: ('A' for Active; 'I' for Inactive)
REMARK    1  A    between atoms: C_1  and  C_2
REMARK    2  A    between atoms: C_2  and  O_3
REMARK    3  A    between atoms: O_3  and  C_4
REMARK    4  A    between atoms: C_7  and  C_12
REMARK    5  A    between atoms: C_9  and  O_10
REMARK    6  A    between atoms: O_10  and  C_11
REMARK    7  A    between atoms: C_15  and  C_30
REMARK    8  A    between atoms: N_22  and  C_23
REMARK    9  A    between atoms: C_23  and  C_24
REMARK   10  A    between atoms: C_32  and  C_38
REMARK   11  A    between atoms: C_34  and  C_37
REMARK   12  A    between atoms: C_35  and  O_36
REMARK                            x       y       z     vdW  Elec       q    Type
REMARK                         _______ _______ _______ _____ _____    ______ ____
ROOT
ATOM      1  C   UNL     1       1.366  -5.728  -1.377  0.00  0.00    +0.142 C 
ATOM      2  C   UNL     1       0.302  -6.657  -1.891  0.00  0.00    +0.035 A 
ATOM      3  C   UNL     1      -0.555  -7.003  -2.942  0.00  0.00    +0.102 A 
ATOM      4  N   UNL     1      -1.245  -8.059  -2.557  0.00  0.00    -0.173 NA
ATOM      5  N   UNL     1      -0.909  -8.414  -1.368  0.00  0.00    -0.272 N 
ATOM      6  H   UNL     1      -1.287  -9.164  -0.883  0.00  0.00    +0.189 HD
ATOM      7  C   UNL     1       0.058  -7.577  -0.889  0.00  0.00    +0.126 A 
ATOM      8  C   UNL     1       0.930  -7.267   0.250  0.00  0.00    +0.266 C 
ATOM      9  O   UNL     1       0.958  -7.892   1.293  0.00  0.00    -0.268 OA
ATOM     10  N   UNL     1       1.696  -6.194  -0.024  0.00  0.00    -0.281 N 
ENDROOT
BRANCH   3  11
ATOM     11  C   UNL     1      -0.666  -6.310  -4.249  0.00  0.00    +0.044 A 
ATOM     12  C   UNL     1       0.211  -5.277  -4.570  0.00  0.00    +0.017 A 
ATOM     13  C   UNL     1       0.103  -4.635  -5.787  0.00  0.00    -0.049 A 
ATOM     14  C   UNL     1      -0.874  -5.013  -6.691  0.00  0.00    +0.010 A 
ATOM     15  C   UNL     1      -1.750  -6.037  -6.382  0.00  0.00    -0.008 A 
ATOM     16  C   UNL     1      -1.649  -6.694  -5.166  0.00  0.00    +0.129 A 
ATOM     17  C   UNL     1      -2.811  -6.443  -7.371  0.00  0.00    +0.047 C 
ATOM     18  C   UNL     1       1.053  -3.517  -6.133  0.00  0.00    +0.044 C 
BRANCH  16  19
ATOM     19  O   UNL     1      -2.505  -7.705  -4.864  0.00  0.00    -0.506 OA
ATOM     20  H   UNL     1      -3.314  -7.415  -4.420  0.00  0.00    +0.292 HD
ENDBRANCH  16  19
ENDBRANCH   3  11
BRANCH   1  24
ATOM     21  C   UNL     1      -0.118  -1.720  -1.236  0.00  0.00    +0.162 A 
ATOM     22  C   UNL     1       0.949  -2.038  -2.060  0.00  0.00    +0.050 A 
ATOM     23  C   UNL     1       1.427  -3.334  -2.103  0.00  0.00    +0.009 A 
ATOM     24  C   UNL     1       0.842  -4.316  -1.325  0.00  0.00    -0.019 A 
ATOM     25  C   UNL     1      -0.224  -4.006  -0.502  0.00  0.00    +0.055 A 
ATOM     26  C   UNL     1      -0.704  -2.707  -0.449  0.00  0.00    +0.162 A 
BRANCH  26  27
ATOM     27  O   UNL     1      -1.749  -2.399   0.365  0.00  0.00    -0.491 OA
ATOM     28  C   UNL     1      -2.269  -3.452   1.180  0.00  0.00    +0.277 C 
ENDBRANCH  26  27
BRANCH  21  29
ATOM     29  O   UNL     1      -0.589  -0.445  -1.192  0.00  0.00    -0.489 OA
BRANCH  29  31
ATOM     30  C   UNL     1      -0.603   1.883  -1.843  0.00  0.00    +0.048 C 
ATOM     31  C   UNL     1       0.060   0.516  -2.026  0.00  0.00    +0.226 C 
ENDBRANCH  29  31
ENDBRANCH  21  29
ENDBRANCH   1  24
BRANCH  10  32
ATOM     32  C   UNL     1       2.687  -5.594   0.873  0.00  0.00    +0.145 C 
BRANCH  32  33
ATOM     33  C   UNL     1       2.025  -4.537   1.718  0.00  0.00    -0.012 A 
ATOM     34  C   UNL     1       1.965  -3.223   1.279  0.00  0.00    +0.008 A 
ATOM     35  C   UNL     1       1.346  -2.284   2.090  0.00  0.00    +0.020 A 
ATOM     36  C   UNL     1       0.813  -2.686   3.300  0.00  0.00    +0.111 A 
ATOM     37  N   UNL     1       0.889  -3.944   3.686  0.00  0.00    -0.263 NA
ATOM     38  C   UNL     1       1.465  -4.865   2.938  0.00  0.00    +0.115 A 
ENDBRANCH  32  33
ENDBRANCH  10  32
TORSDOF 8
