REMARK  Name = ZINC66135787
REMARK  8 active torsions:
REMARK  status: ('A' for Active; 'I' for Inactive)
REMARK    1  A    between atoms: C_1  and  C_2
REMARK    2  A    between atoms: C_6  and  C_23
REMARK    3  A    between atoms: C_7  and  O_8
REMARK    4  A    between atoms: O_8  and  C_9
REMARK    5  A    between atoms: C_9  and  C_11
REMARK    6  A    between atoms: C_9  and  C_12
REMARK    7  A    between atoms: C_13  and  C_20
REMARK    8  A    between atoms: C_14  and  C_19
REMARK                            x       y       z     vdW  Elec       q    Type
REMARK                         _______ _______ _______ _____ _____    ______ ____
ROOT
ATOM      1  C   UNL     1      -1.060  -0.040   4.002  0.00  0.00    +0.099 A 
ATOM      2  C   UNL     1      -1.996  -0.807   4.710  0.00  0.00    +0.082 A 
ATOM      3  C   UNL     1      -1.864  -0.897   6.101  0.00  0.00    +0.056 A 
ATOM      4  N   UNL     1      -0.870  -0.262   6.692  0.00  0.00    -0.219 NA
ATOM      5  C   UNL     1      -0.004   0.454   5.987  0.00  0.00    +0.213 A 
ATOM      6  N   UNL     1      -0.092   0.560   4.667  0.00  0.00    -0.215 NA
ATOM      7  N   UNL     1       1.021   1.102   6.644  0.00  0.00    -0.327 N 
ATOM      8  C   UNL     1      -2.843  -1.707   6.911  0.00  0.00    +0.066 C 
ATOM      9  H   UNL     1       1.101   1.030   7.608  0.00  0.00    +0.145 HD
ATOM     10  H   UNL     1       1.663   1.629   6.142  0.00  0.00    +0.145 HD
ENDROOT
BRANCH   2  11
ATOM     11  C   UNL     1      -3.093  -1.500   4.007  0.00  0.00    +0.245 C 
ATOM     12  O   UNL     1      -2.935  -2.636   3.603  0.00  0.00    -0.270 OA
ATOM     13  N   UNL     1      -4.271  -0.873   3.812  0.00  0.00    -0.325 N 
ATOM     14  H   UNL     1      -4.397   0.033   4.133  0.00  0.00    +0.145 HD
ATOM     15  H   UNL     1      -4.992  -1.329   3.349  0.00  0.00    +0.145 HD
ENDBRANCH   2  11
BRANCH   1  16
ATOM     16  C   UNL     1      -1.155   0.091   2.504  0.00  0.00    +0.220 C 
ATOM     17  C   UNL     1      -1.685   1.481   2.146  0.00  0.00    +0.059 C 
BRANCH  16  18
ATOM     18  O   UNL     1       0.141  -0.088   1.928  0.00  0.00    -0.482 OA
BRANCH  18  25
ATOM     19  C   UNL     1       0.129  -2.912   1.914  0.00  0.00    +0.047 C 
ATOM     20  C   UNL     1       0.196  -2.094   0.651  0.00  0.00    -0.007 A 
ATOM     21  C   UNL     1       0.249  -2.723  -0.578  0.00  0.00    +0.022 A 
ATOM     22  C   UNL     1       0.311  -1.973  -1.738  0.00  0.00    +0.019 A 
ATOM     23  C   UNL     1       0.320  -0.591  -1.671  0.00  0.00    +0.022 A 
ATOM     24  C   UNL     1       0.266   0.042  -0.445  0.00  0.00    -0.007 A 
ATOM     25  C   UNL     1       0.198  -0.709   0.720  0.00  0.00    +0.127 A 
ATOM     26  C   UNL     1       0.275   1.548  -0.372  0.00  0.00    +0.047 C 
ATOM     27 BR   UNL     1       0.385  -2.837  -3.419  0.00  0.00    -0.050 Br
ENDBRANCH  18  25
ENDBRANCH  16  18
ENDBRANCH   1  16
TORSDOF 4
