REMARK  Name = ZINC25512398
REMARK  5 active torsions:
REMARK  status: ('A' for Active; 'I' for Inactive)
REMARK    1  A    between atoms: C_1  and  C_2
REMARK    2  A    between atoms: C_3  and  C_24
REMARK    3  A    between atoms: C_8  and  C_10
REMARK    4  A    between atoms: C_10  and  C_11
REMARK    5  A    between atoms: C_24  and  C_25
REMARK                            x       y       z     vdW  Elec       q    Type
REMARK                         _______ _______ _______ _____ _____    ______ ____
ROOT
ATOM      1  C   UNL     1       3.618   4.246   1.751  0.00  0.00    +0.066 C 
ATOM      2  C   UNL     1       2.200   4.391   2.241  0.00  0.00    +0.051 A 
ATOM      3  C   UNL     1       1.153   4.091   1.434  0.00  0.00    +0.018 A 
ATOM      4  S   UNL     1      -0.218   4.451   2.521  0.00  0.00    -0.056 S 
ATOM      5  C   UNL     1       0.712   4.942   3.903  0.00  0.00    +0.165 A 
ATOM      6  N   UNL     1       1.949   4.812   3.465  0.00  0.00    -0.230 NA
ATOM      7  N   UNL     1       0.267   5.368   5.149  0.00  0.00    -0.265 N 
ATOM      8  C   UNL     1       1.157   5.715   6.100  0.00  0.00    +0.220 C 
ATOM      9  O   UNL     1       2.346   5.656   5.868  0.00  0.00    -0.275 OA
ATOM     10  H   UNL     1      -0.811   5.422   5.359  0.00  0.00    +0.157 HD
ENDROOT
BRANCH   8  11
ATOM     11  C   UNL     1       0.674   6.177   7.451  0.00  0.00    +0.120 C 
BRANCH  11  12
ATOM     12  C   UNL     1       1.877   6.508   8.336  0.00  0.00    +0.146 C 
ATOM     13  C   UNL     1       1.405   6.852   9.725  0.00  0.00    +0.231 C 
ATOM     14  O   UNL     1       1.444   5.991  10.578  0.00  0.00    -0.274 OA
ATOM     15  N   UNL     1       0.948   8.054  10.061  0.00  0.00    -0.284 N 
ATOM     16  C   UNL     1       0.929   9.191   9.259  0.00  0.00    +0.048 A 
ATOM     17  C   UNL     1       0.135  10.271   9.627  0.00  0.00    +0.044 A 
ATOM     18  C   UNL     1       0.097  11.409   8.843  0.00  0.00    +0.043 A 
ATOM     19  C   UNL     1       0.854  11.489   7.687  0.00  0.00    +0.021 A 
ATOM     20  C   UNL     1       1.662  10.428   7.319  0.00  0.00    +0.018 A 
ATOM     21  C   UNL     1       1.707   9.289   8.104  0.00  0.00    +0.030 A 
ATOM     22  S   UNL     1       2.762   7.945   7.657  0.00  0.00    -0.110 S 
ATOM     23 CL   UNL     1      -0.909  12.745   9.309  0.00  0.00    -0.083 Cl
ATOM     24  H   UNL     1       0.530   8.223  11.064  0.00  0.00    +0.155 HD
ENDBRANCH  11  12
ENDBRANCH   8  11
BRANCH   3  25
ATOM     25  C   UNL     1       1.147   3.596   0.010  0.00  0.00    +0.079 C 
BRANCH  25  26
ATOM     26  C   UNL     1       1.171   2.089   0.002  0.00  0.00    -0.039 A 
ATOM     27  C   UNL     1       2.379   1.418  -0.012  0.00  0.00    +0.008 A 
ATOM     28  C   UNL     1       2.405   0.036  -0.020  0.00  0.00    +0.050 A 
ATOM     29  C   UNL     1       1.220  -0.680  -0.013  0.00  0.00    +0.166 A 
ATOM     30  C   UNL     1       0.002  -0.004   0.002  0.00  0.00    +0.166 A 
ATOM     31  C   UNL     1      -0.017   1.381   0.010  0.00  0.00    +0.053 A 
ATOM     32  O   UNL     1      -1.007  -0.923   0.006  0.00  0.00    -0.453 OA
ATOM     33  C   UNL     1      -0.396  -2.164   0.405  0.00  0.00    +0.466 C 
ATOM     34  O   UNL     1       0.973  -2.023  -0.019  0.00  0.00    -0.453 OA
ENDBRANCH  25  26
ENDBRANCH   3  25
TORSDOF 4
