REMARK  Name = ZINC59502590
REMARK  10 active torsions:
REMARK  status: ('A' for Active; 'I' for Inactive)
REMARK    1  A    between atoms: C_1  and  C_2
REMARK    2  A    between atoms: C_2  and  C_3
REMARK    3  A    between atoms: C_3  and  C_4
REMARK    4  A    between atoms: C_4  and  N_5
REMARK    5  A    between atoms: C_6  and  C_8
REMARK    6  A    between atoms: C_8  and  S_9
REMARK    7  A    between atoms: S_9  and  C_10
REMARK    8  A    between atoms: C_15  and  N_19
REMARK    9  A    between atoms: C_20  and  C_21
REMARK   10  A    between atoms: C_26  and  O_27
REMARK                            x       y       z     vdW  Elec       q    Type
REMARK                         _______ _______ _______ _____ _____    ______ ____
ROOT
ATOM      1  C   UNL     1       3.140  -6.528  -5.433  0.00  0.00    +0.136 A 
ATOM      2  N   UNL     1       3.650  -5.722  -6.338  0.00  0.00    -0.233 NA
ATOM      3  C   UNL     1       4.278  -6.177  -7.444  0.00  0.00    +0.080 A 
ATOM      4  C   UNL     1       4.864  -5.419  -8.486  0.00  0.00    +0.031 A 
ATOM      5  C   UNL     1       5.464  -6.025  -9.541  0.00  0.00    +0.030 A 
ATOM      6  C   UNL     1       5.527  -7.421  -9.643  0.00  0.00    +0.065 A 
ATOM      7  C   UNL     1       4.958  -8.201  -8.631  0.00  0.00    +0.045 A 
ATOM      8  C   UNL     1       4.354  -7.584  -7.569  0.00  0.00    +0.042 A 
ATOM      9  S   UNL     1       3.531  -8.141  -6.096  0.00  0.00    -0.061 S 
ENDROOT
BRANCH   6  10
ATOM     10  N   UNL     1       6.136  -8.012 -10.716  0.00  0.00    -0.255 NA
ATOM     11  C   UNL     1       5.898  -7.577 -11.921  0.00  0.00    +0.123 C 
BRANCH  11  12
ATOM     12  C   UNL     1       6.553  -8.212 -13.075  0.00  0.00    +0.036 A 
ATOM     13  C   UNL     1       6.305  -7.745 -14.370  0.00  0.00    +0.033 A 
ATOM     14  C   UNL     1       6.922  -8.346 -15.447  0.00  0.00    +0.042 A 
ATOM     15  C   UNL     1       7.787  -9.412 -15.251  0.00  0.00    +0.023 A 
ATOM     16  C   UNL     1       8.040  -9.883 -13.977  0.00  0.00    +0.047 A 
ATOM     17  C   UNL     1       7.433  -9.287 -12.883  0.00  0.00    +0.126 A 
ATOM     18 CL   UNL     1       6.615  -7.765 -17.053  0.00  0.00    -0.084 Cl
BRANCH  17  19
ATOM     19  O   UNL     1       7.686  -9.746 -11.630  0.00  0.00    -0.506 OA
ATOM     20  H   UNL     1       7.085 -10.444 -11.338  0.00  0.00    +0.292 HD
ENDBRANCH  17  19
ENDBRANCH  11  12
ENDBRANCH   6  10
BRANCH   1  21
ATOM     21  S   UNL     1       2.294  -6.122  -3.942  0.00  0.00    -0.089 S 
BRANCH  21  22
ATOM     22  C   UNL     1       2.269  -4.308  -3.932  0.00  0.00    +0.172 C 
BRANCH  22  24
ATOM     23  N   UNL     1       1.425  -2.500  -2.470  0.00  0.00    -0.315 N 
ATOM     24  C   UNL     1       1.564  -3.822  -2.692  0.00  0.00    +0.223 C 
ATOM     25  O   UNL     1       1.121  -4.620  -1.894  0.00  0.00    -0.275 OA
ATOM     26  H   UNL     1       1.779  -1.861  -3.109  0.00  0.00    +0.149 HD
BRANCH  23  27
ATOM     27  C   UNL     1       0.739  -2.027  -1.265  0.00  0.00    +0.104 C 
BRANCH  27  28
ATOM     28  C   UNL     1       0.718  -0.497  -1.257  0.00  0.00    +0.018 C 
BRANCH  28  30
ATOM     29  C   UNL     1      -0.019   1.526   0.010  0.00  0.00    +0.004 C 
ATOM     30  C   UNL     1       0.002  -0.004   0.002  0.00  0.00    -0.002 C 
ENDBRANCH  28  30
ENDBRANCH  27  28
ENDBRANCH  23  27
ENDBRANCH  22  24
ENDBRANCH  21  22
ENDBRANCH   1  21
TORSDOF 9
