REMARK  Name = ZINC10833777
REMARK  6 active torsions:
REMARK  status: ('A' for Active; 'I' for Inactive)
REMARK    1  A    between atoms: C_3  and  C_6
REMARK    2  A    between atoms: C_6  and  N_44
REMARK    3  A    between atoms: C_7  and  C_8
REMARK    4  A    between atoms: C_7  and  N_44
REMARK    5  A    between atoms: N_10  and  C_11
REMARK    6  A    between atoms: C_19  and  N_44
REMARK                            x       y       z     vdW  Elec       q    Type
REMARK                         _______ _______ _______ _____ _____    ______ ____
ROOT
ATOM      1  N   UNL     1       7.174   1.290   0.237  0.00  0.00    +0.393 N 
ATOM      2  H   UNL     1       6.989   0.573   0.948  0.00  0.00    -0.080 HD
ENDROOT
BRANCH   1   3
ATOM      3  C   UNL     1       7.224   0.647  -1.093  0.00  0.00    -0.045 C 
ATOM      4  C   UNL     1       7.825  -0.760  -0.942  0.00  0.00    +0.009 C 
ATOM      5  C   UNL     1       8.173  -1.338  -2.335  0.00  0.00    +0.164 C 
ATOM      6  S   UNL     1       8.507   0.174  -3.327  0.00  0.00    -0.033 S 
ATOM      7  O   UNL     1       7.550   0.260  -4.374  0.00  0.00    -0.174 OA
ATOM      8  O   UNL     1       9.893   0.225  -3.639  0.00  0.00    -0.174 OA
ATOM      9  C   UNL     1       8.130   1.459  -2.062  0.00  0.00    +0.151 C 
ENDBRANCH   1   3
BRANCH   1  10
ATOM     10  C   UNL     1       8.469   1.938   0.534  0.00  0.00    -0.002 C 
BRANCH  10  13
ATOM     11  C   UNL     1      11.186  -0.549   0.418  0.00  0.00    +0.041 A 
ATOM     12  C   UNL     1      10.404   0.461  -0.189  0.00  0.00    +0.042 A 
ATOM     13  C   UNL     1       9.512   0.869   0.732  0.00  0.00    +0.089 A 
ATOM     14  O   UNL     1       9.706   0.159   1.855  0.00  0.00    -0.470 OA
ATOM     15  C   UNL     1      10.720  -0.703   1.671  0.00  0.00    +0.195 A 
ENDBRANCH  10  13
ENDBRANCH   1  10
BRANCH   1  16
ATOM     16  C   UNL     1       6.088   2.292   0.272  0.00  0.00    +0.020 C 
BRANCH  16  17
ATOM     17  C   UNL     1       4.763   1.576   0.211  0.00  0.00    +0.201 C 
ATOM     18  O   UNL     1       4.728   0.364   0.235  0.00  0.00    -0.278 OA
ATOM     19  N   UNL     1       3.618   2.282   0.129  0.00  0.00    -0.286 N 
ATOM     20  H   UNL     1       3.649   3.247   0.038  0.00  0.00    +0.155 HD
BRANCH  19  21
ATOM     21  C   UNL     1       2.385   1.623   0.176  0.00  0.00    +0.053 A 
ATOM     22  C   UNL     1       2.283   0.379   0.786  0.00  0.00    +0.044 A 
ATOM     23  C   UNL     1       1.063  -0.270   0.830  0.00  0.00    +0.043 A 
ATOM     24  C   UNL     1      -0.056   0.319   0.267  0.00  0.00    +0.021 A 
ATOM     25  C   UNL     1       0.042   1.556  -0.341  0.00  0.00    +0.023 A 
ATOM     26  C   UNL     1       1.259   2.210  -0.388  0.00  0.00    +0.062 A 
ATOM     27 CL   UNL     1       1.381   3.764  -1.153  0.00  0.00    -0.082 Cl
ATOM     28 CL   UNL     1       0.935  -1.824   1.592  0.00  0.00    -0.083 Cl
ENDBRANCH  19  21
ENDBRANCH  16  17
ENDBRANCH   1  16
TORSDOF 6
