REMARK  Name = ZINC09001126
REMARK  4 active torsions:
REMARK  status: ('A' for Active; 'I' for Inactive)
REMARK    1  A    between atoms: C_2  and  C_3
REMARK    2  A    between atoms: C_3  and  N_4
REMARK    3  A    between atoms: N_13  and  C_14
REMARK    4  A    between atoms: C_14  and  C_16
REMARK                            x       y       z     vdW  Elec       q    Type
REMARK                         _______ _______ _______ _____ _____    ______ ____
ROOT
ATOM      1  C   UNL     1       3.432   2.539  -0.017  0.00  0.00    +0.276 C 
ATOM      2  O   UNL     1       3.232   3.742  -0.009  0.00  0.00    -0.268 OA
ENDROOT
BRANCH   1   3
ATOM      3  C   UNL     1       4.813   2.021  -0.032  0.00  0.00    +0.124 A 
ATOM      4  C   UNL     1       5.057   0.655  -0.041  0.00  0.00    +0.032 A 
ATOM      5  C   UNL     1       6.392   0.205  -0.055  0.00  0.00    +0.026 A 
ATOM      6  C   UNL     1       6.696  -1.228  -0.064  0.00  0.00    -0.007 A 
ATOM      7  C   UNL     1       5.683  -2.190  -0.062  0.00  0.00    +0.009 A 
ATOM      8  C   UNL     1       6.011  -3.515  -0.073  0.00  0.00    +0.001 A 
ATOM      9  C   UNL     1       7.342  -3.921  -0.087  0.00  0.00    +0.001 A 
ATOM     10  C   UNL     1       8.353  -3.007  -0.091  0.00  0.00    +0.008 A 
ATOM     11  C   UNL     1       8.050  -1.636  -0.080  0.00  0.00    -0.017 A 
ATOM     12  C   UNL     1       9.069  -0.662  -0.084  0.00  0.00    +0.012 A 
ATOM     13  C   UNL     1       8.772   0.662  -0.074  0.00  0.00    +0.047 A 
ATOM     14  C   UNL     1       7.451   1.124  -0.060  0.00  0.00    +0.140 A 
ATOM     15  O   UNL     1       7.208   2.452  -0.052  0.00  0.00    -0.422 OA
ATOM     16  C   UNL     1       5.956   2.937  -0.044  0.00  0.00    +0.350 A 
ATOM     17  O   UNL     1       5.771   4.140  -0.042  0.00  0.00    -0.244 OA
ENDBRANCH   1   3
BRANCH   1  27
ATOM     18  N   UNL     1      -0.018   1.461   0.010  0.00  0.00    -0.310 N 
ATOM     19  C   UNL     1      -1.227   2.133   0.019  0.00  0.00    +0.059 A 
ATOM     20  C   UNL     1      -2.517   1.575   0.035  0.00  0.00    +0.030 A 
ATOM     21  C   UNL     1      -3.633   2.376   0.050  0.00  0.00    +0.040 A 
ATOM     22  C   UNL     1      -3.526   3.758   0.056  0.00  0.00    +0.125 A 
ATOM     23  C   UNL     1      -2.268   4.337   0.047  0.00  0.00    +0.055 A 
ATOM     24  C   UNL     1      -1.151   3.534   0.032  0.00  0.00    +0.042 A 
ATOM     25  S   UNL     1       0.597   3.851   0.017  0.00  0.00    -0.052 S 
ATOM     26  C   UNL     1       1.155   2.155   0.003  0.00  0.00    +0.168 A 
ATOM     27  N   UNL     1       2.398   1.689  -0.011  0.00  0.00    -0.152 NA
ATOM     28  F   UNL     1      -4.635   4.531   0.070  0.00  0.00    -0.205 F 
BRANCH  18  29
ATOM     29  C   UNL     1       0.002  -0.004   0.002  0.00  0.00    +0.212 C 
BRANCH  29  31
ATOM     30  C   UNL     1       0.037  -0.899   2.492  0.00  0.00    +0.005 C 
ATOM     31  C   UNL     1       0.021  -0.502   1.387  0.00  0.00    -0.084 C 
ENDBRANCH  29  31
ENDBRANCH  18  29
ENDBRANCH   1  27
TORSDOF 4
