REMARK  Name = ZINC56218933
REMARK  10 active torsions:
REMARK  status: ('A' for Active; 'I' for Inactive)
REMARK    1  A    between atoms: C_1  and  C_2
REMARK    2  A    between atoms: C_2  and  C_3
REMARK    3  A    between atoms: C_3  and  C_4
REMARK    4  A    between atoms: C_4  and  C_5
REMARK    5  A    between atoms: C_7  and  C_10
REMARK    6  A    between atoms: C_10  and  S_11
REMARK    7  A    between atoms: S_11  and  C_12
REMARK    8  A    between atoms: C_12  and  C_13
REMARK    9  A    between atoms: N_19  and  C_20
REMARK   10  A    between atoms: C_25  and  C_26
REMARK                            x       y       z     vdW  Elec       q    Type
REMARK                         _______ _______ _______ _____ _____    ______ ____
ROOT
ATOM      1  C   UNL     1       7.745  -1.599   6.027  0.00  0.00    +0.146 A 
ATOM      2  N   UNL     1       8.500  -0.838   5.254  0.00  0.00    -0.199 NA
ATOM      3  C   UNL     1       9.186   0.174   5.781  0.00  0.00    +0.217 A 
ATOM      4  N   UNL     1       9.111   0.418   7.085  0.00  0.00    -0.181 NA
ATOM      5  C   UNL     1       8.350  -0.349   7.858  0.00  0.00    +0.224 A 
ATOM      6  N   UNL     1       7.663  -1.356   7.323  0.00  0.00    -0.198 NA
ATOM      7  N   UNL     1       8.269  -0.099   9.214  0.00  0.00    -0.283 N 
ATOM      8  N   UNL     1       9.975   0.968   4.974  0.00  0.00    -0.327 N 
ATOM      9  H   UNL     1       7.649  -0.604   9.764  0.00  0.00    +0.155 HD
ATOM     10  H   UNL     1      10.030   0.789   4.022  0.00  0.00    +0.145 HD
ATOM     11  H   UNL     1      10.474   1.706   5.358  0.00  0.00    +0.145 HD
ENDROOT
BRANCH   7  12
ATOM     12  C   UNL     1       9.079   0.881   9.794  0.00  0.00    +0.036 A 
ATOM     13  C   UNL     1      10.280   1.238   9.193  0.00  0.00    +0.023 A 
ATOM     14  C   UNL     1      11.077   2.207   9.768  0.00  0.00    +0.002 A 
ATOM     15  C   UNL     1      10.682   2.823  10.942  0.00  0.00    +0.000 A 
ATOM     16  C   UNL     1       9.488   2.470  11.543  0.00  0.00    +0.005 A 
ATOM     17  C   UNL     1       8.683   1.506  10.970  0.00  0.00    -0.029 A 
ATOM     18  C   UNL     1       7.378   1.127  11.622  0.00  0.00    +0.045 C 
ENDBRANCH   7  12
BRANCH   1  19
ATOM     19  C   UNL     1       6.970  -2.744   5.427  0.00  0.00    +0.145 C 
BRANCH  19  20
ATOM     20  S   UNL     1       5.333  -2.159   4.907  0.00  0.00    -0.143 S 
BRANCH  20  21
ATOM     21  C   UNL     1       4.539  -3.636   4.215  0.00  0.00    +0.168 C 
BRANCH  21  24
ATOM     22  C   UNL     1       1.520  -2.650   2.466  0.00  0.00    +0.172 A 
ATOM     23  N   UNL     1       2.838  -2.869   2.544  0.00  0.00    -0.195 NA
ATOM     24  C   UNL     1       3.153  -3.285   3.739  0.00  0.00    +0.237 A 
ATOM     25  O   UNL     1       2.033  -3.345   4.471  0.00  0.00    -0.337 OA
ATOM     26  N   UNL     1       0.979  -2.921   3.619  0.00  0.00    -0.061 NA
BRANCH  22  27
ATOM     27  C   UNL     1       0.784  -2.164   1.245  0.00  0.00    +0.080 C 
BRANCH  27  28
ATOM     28  C   UNL     1       0.742  -0.635   1.249  0.00  0.00    +0.008 C 
BRANCH  28  30
ATOM     29  C   UNL     1      -0.048   1.388   0.014  0.00  0.00    +0.004 C 
ATOM     30  C   UNL     1      -0.006  -0.141   0.009  0.00  0.00    -0.003 C 
ENDBRANCH  28  30
ENDBRANCH  27  28
ENDBRANCH  22  27
ENDBRANCH  21  24
ENDBRANCH  20  21
ENDBRANCH  19  20
ENDBRANCH   1  19
TORSDOF 8
