REMARK  Name = ZINC36205927
REMARK  17 active torsions:
REMARK  status: ('A' for Active; 'I' for Inactive)
REMARK    1  A    between atoms: C_1  and  C_2
REMARK    2  A    between atoms: C_2  and  C_3
REMARK    3  A    between atoms: C_2  and  O_4
REMARK    4  A    between atoms: O_4  and  C_5
REMARK    5  A    between atoms: C_5  and  C_6
REMARK    6  A    between atoms: C_6  and  C_8
REMARK    7  A    between atoms: C_6  and  O_39
REMARK    8  A    between atoms: C_8  and  N_9
REMARK    9  A    between atoms: N_9  and  C_10
REMARK   10  A    between atoms: N_9  and  C_17
REMARK   11  A    between atoms: C_10  and  C_11
REMARK   12  A    between atoms: C_17  and  C_18
REMARK   13  A    between atoms: C_24  and  C_29
REMARK   14  A    between atoms: C_32  and  O_37
REMARK   15  A    between atoms: C_33  and  O_35
REMARK   16  A    between atoms: O_35  and  C_36
REMARK   17  A    between atoms: O_37  and  C_38
REMARK                            x       y       z     vdW  Elec       q    Type
REMARK                         _______ _______ _______ _____ _____    ______ ____
ROOT
ATOM      1  C   UNL     1      -7.215  -2.942  -3.478  0.00  0.00    +0.094 A 
ATOM      2  N   UNL     1      -7.819  -3.371  -4.616  0.00  0.00    -0.312 N 
ATOM      3  H   UNL     1      -7.338  -3.322  -5.457  0.00  0.00    +0.170 HD
ATOM      4  C   UNL     1      -9.071  -3.864  -4.600  0.00  0.00    +0.260 A 
ATOM      5  O   UNL     1      -9.599  -4.246  -5.630  0.00  0.00    -0.267 OA
ATOM      6  C   UNL     1      -9.773  -3.933  -3.355  0.00  0.00    +0.080 A 
ATOM      7  C   UNL     1     -11.120  -4.420  -3.081  0.00  0.00    +0.004 A 
ATOM      8  C   UNL     1     -11.578  -4.388  -1.806  0.00  0.00    +0.056 A 
ATOM      9  S   UNL     1     -10.212  -3.695  -0.894  0.00  0.00    -0.076 S 
ATOM     10  C   UNL     1      -9.069  -3.467  -2.233  0.00  0.00    +0.116 A 
ATOM     11  N   UNL     1      -7.828  -2.997  -2.326  0.00  0.00    -0.229 NA
ENDROOT
BRANCH   7  12
ATOM     12  C   UNL     1     -11.972  -4.941  -4.176  0.00  0.00    -0.013 A 
ATOM     13  C   UNL     1     -12.137  -4.199  -5.345  0.00  0.00    +0.012 A 
ATOM     14  C   UNL     1     -12.931  -4.684  -6.365  0.00  0.00    +0.050 A 
ATOM     15  C   UNL     1     -13.566  -5.909  -6.230  0.00  0.00    +0.162 A 
ATOM     16  C   UNL     1     -13.405  -6.654  -5.065  0.00  0.00    +0.162 A 
ATOM     17  C   UNL     1     -12.606  -6.175  -4.042  0.00  0.00    +0.058 A 
BRANCH  16  18
ATOM     18  O   UNL     1     -14.029  -7.856  -4.934  0.00  0.00    -0.491 OA
ATOM     19  C   UNL     1     -13.819  -8.566  -3.713  0.00  0.00    +0.277 C 
ENDBRANCH  16  18
BRANCH  15  20
ATOM     20  O   UNL     1     -14.348  -6.383  -7.237  0.00  0.00    -0.491 OA
ATOM     21  C   UNL     1     -14.470  -5.566  -8.403  0.00  0.00    +0.277 C 
ENDBRANCH  15  20
ENDBRANCH   7  12
BRANCH   1  22
ATOM     22  C   UNL     1      -5.811  -2.398  -3.545  0.00  0.00    -0.003 C 
BRANCH  22  23
ATOM     23  N   UNL     1      -5.368  -2.020  -2.196  0.00  0.00    +0.389 N 
ATOM     24  H   UNL     1      -5.495  -2.800  -1.569  0.00  0.00    -0.081 HD
BRANCH  23  25
ATOM     25  C   UNL     1      -3.947  -1.649  -2.234  0.00  0.00    -0.044 C 
BRANCH  25  26
ATOM     26  C   UNL     1      -3.391  -1.617  -0.809  0.00  0.00    +0.124 C 
BRANCH  26  27
ATOM     27  O   UNL     1      -3.992  -0.541  -0.086  0.00  0.00    -0.391 OA
ATOM     28  H   UNL     1      -3.862   0.327  -0.493  0.00  0.00    +0.210 HD
ENDBRANCH  26  27
BRANCH  26  29
ATOM     29  C   UNL     1      -1.875  -1.414  -0.858  0.00  0.00    +0.189 C 
BRANCH  29  30
ATOM     30  O   UNL     1      -1.340  -1.500   0.465  0.00  0.00    -0.375 OA
BRANCH  30  32
ATOM     31  C   UNL     1       0.397   0.160   0.723  0.00  0.00    +0.037 C 
ATOM     32  C   UNL     1       0.076  -1.324   0.531  0.00  0.00    +0.112 C 
ATOM     33  C   UNL     1       0.635  -2.123   1.710  0.00  0.00    +0.037 C 
ENDBRANCH  30  32
ENDBRANCH  29  30
ENDBRANCH  26  29
ENDBRANCH  25  26
ENDBRANCH  23  25
BRANCH  23  34
ATOM     34  C   UNL     1      -6.161  -0.877  -1.723  0.00  0.00    -0.042 C 
BRANCH  34  35
ATOM     35  C   UNL     1      -6.110   0.227  -2.747  0.00  0.00    -0.064 A 
ATOM     36  C   UNL     1      -5.075   1.144  -2.725  0.00  0.00    +0.002 A 
ATOM     37  C   UNL     1      -5.029   2.157  -3.664  0.00  0.00    +0.000 A 
ATOM     38  C   UNL     1      -6.017   2.253  -4.626  0.00  0.00    +0.000 A 
ATOM     39  C   UNL     1      -7.051   1.337  -4.649  0.00  0.00    +0.000 A 
ATOM     40  C   UNL     1      -7.095   0.321  -3.712  0.00  0.00    +0.002 A 
ENDBRANCH  34  35
ENDBRANCH  23  34
ENDBRANCH  22  23
ENDBRANCH   1  22
TORSDOF 13
