REMARK  Name = ZINC38656320
REMARK  6 active torsions:
REMARK  status: ('A' for Active; 'I' for Inactive)
REMARK    1  A    between atoms: C_3  and  C_6
REMARK    2  A    between atoms: C_11  and  O_20
REMARK    3  A    between atoms: C_15  and  N_19
REMARK    4  A    between atoms: C_16  and  C_17
REMARK    5  A    between atoms: O_20  and  C_21
REMARK    6  A    between atoms: C_21  and  C_23
REMARK                            x       y       z     vdW  Elec       q    Type
REMARK                         _______ _______ _______ _____ _____    ______ ____
ROOT
ATOM      1  C   UNL     1       3.755   1.905   0.003  0.00  0.00    +0.105 C 
ATOM      2  C   UNL     1       4.475   1.388   1.221  0.00  0.00    +0.008 A 
ATOM      3  C   UNL     1       4.309   2.033   2.434  0.00  0.00    +0.012 A 
ATOM      4  C   UNL     1       4.961   1.574   3.561  0.00  0.00    +0.047 A 
ATOM      5  C   UNL     1       5.788   0.462   3.479  0.00  0.00    +0.135 A 
ATOM      6  C   UNL     1       5.956  -0.186   2.266  0.00  0.00    +0.093 A 
ATOM      7  C   UNL     1       5.298   0.277   1.133  0.00  0.00    +0.138 A 
ATOM      8  O   UNL     1       5.474  -0.368  -0.046  0.00  0.00    -0.441 OA
ATOM      9  C   UNL     1       5.183   0.255  -1.200  0.00  0.00    +0.199 C 
ATOM     10  C   UNL     1       4.374   1.337  -1.243  0.00  0.00    +0.098 C 
ENDROOT
BRANCH   1  13
ATOM     11  C   UNL     1      -0.045   1.681   0.161  0.00  0.00    +0.008 A 
ATOM     12  C   UNL     1       1.199   2.280   0.098  0.00  0.00    +0.012 A 
ATOM     13  C   UNL     1       2.305   1.497   0.070  0.00  0.00    +0.002 A 
ATOM     14  S   UNL     1       1.600  -0.141   0.133  0.00  0.00    -0.101 S 
ATOM     15  C   UNL     1      -0.122   0.328   0.193  0.00  0.00    +0.045 A 
ENDBRANCH   1  13
BRANCH   9  16
ATOM     16  N   UNL     1       5.723  -0.221  -2.369  0.00  0.00    -0.328 N 
ATOM     17  H   UNL     1       6.304  -0.997  -2.353  0.00  0.00    +0.145 HD
ATOM     18  H   UNL     1       5.522   0.218  -3.210  0.00  0.00    +0.145 HD
ENDBRANCH   9  16
BRANCH  10  19
ATOM     19  C   UNL     1       4.102   1.954  -2.506  0.00  0.00    +0.101 C 
ATOM     20  N   UNL     1       3.886   2.444  -3.508  0.00  0.00    -0.191 NA
ENDBRANCH  10  19
BRANCH   5  21
ATOM     21  O   UNL     1       6.431   0.009   4.587  0.00  0.00    -0.422 OA
BRANCH  21  22
ATOM     22  C   UNL     1       5.691  -0.553   5.563  0.00  0.00    +0.346 C 
ATOM     23  O   UNL     1       4.503  -0.739   5.394  0.00  0.00    -0.244 OA
BRANCH  22  24
ATOM     24  C   UNL     1       6.325  -0.944   6.837  0.00  0.00    +0.078 A 
ATOM     25  C   UNL     1       7.691  -0.728   7.037  0.00  0.00    +0.018 A 
ATOM     26  C   UNL     1       8.277  -1.095   8.229  0.00  0.00    +0.021 A 
ATOM     27  C   UNL     1       7.515  -1.679   9.229  0.00  0.00    +0.042 A 
ATOM     28  C   UNL     1       6.161  -1.897   9.039  0.00  0.00    +0.040 A 
ATOM     29  C   UNL     1       5.560  -1.528   7.851  0.00  0.00    +0.056 A 
ATOM     30 CL   UNL     1       3.861  -1.795   7.617  0.00  0.00    -0.083 Cl
ATOM     31 CL   UNL     1       8.262  -2.139  10.727  0.00  0.00    -0.083 Cl
ENDBRANCH  22  24
ENDBRANCH  21  22
ENDBRANCH   5  21
TORSDOF 6
