REMARK  Name = ZINC58758757
REMARK  12 active torsions:
REMARK  status: ('A' for Active; 'I' for Inactive)
REMARK    1  A    between atoms: C_1  and  C_2
REMARK    2  A    between atoms: C_3  and  C_15
REMARK    3  A    between atoms: C_10  and  C_14
REMARK    4  A    between atoms: N_12  and  C_13
REMARK    5  A    between atoms: C_15  and  C_16
REMARK    6  A    between atoms: C_16  and  C_17
REMARK    7  A    between atoms: N_19  and  C_20
REMARK    8  A    between atoms: C_20  and  C_22
REMARK    9  A    between atoms: C_20  and  C_26
REMARK   10  A    between atoms: C_22  and  C_23
REMARK   11  A    between atoms: C_23  and  C_24
REMARK   12  A    between atoms: C_23  and  C_25
REMARK                            x       y       z     vdW  Elec       q    Type
REMARK                         _______ _______ _______ _____ _____    ______ ____
ROOT
ATOM      1  C   UNL     1       1.002   0.867  -4.466  0.00  0.00    +0.214 C 
ATOM      2  O   UNL     1      -0.074   1.312  -4.804  0.00  0.00    -0.276 OA
ATOM      3  N   UNL     1       2.082   1.043  -5.255  0.00  0.00    -0.305 N 
ATOM      4  H   UNL     1       2.943   0.688  -4.984  0.00  0.00    +0.149 HD
ENDROOT
BRANCH   1   5
ATOM      5  C   UNL     1       1.134   0.118  -3.165  0.00  0.00    +0.100 C 
BRANCH   5   6
ATOM      6  C   UNL     1      -0.228   0.061  -2.470  0.00  0.00    +0.050 C 
BRANCH   6   9
ATOM      7  C   UNL     1       0.244   1.494  -0.021  0.00  0.00    +0.045 C 
ATOM      8  C   UNL     1       0.126  -0.008  -0.013  0.00  0.00    -0.030 A 
ATOM      9  C   UNL     1      -0.096  -0.688  -1.169  0.00  0.00    +0.021 A 
ATOM     10  C   UNL     1      -0.204  -2.090  -1.150  0.00  0.00    +0.254 A 
ATOM     11  O   UNL     1      -0.404  -2.692  -2.192  0.00  0.00    -0.268 OA
ATOM     12  N   UNL     1      -0.089  -2.776   0.002  0.00  0.00    -0.307 N 
ATOM     13  H   UNL     1      -0.166  -3.743  -0.004  0.00  0.00    +0.170 HD
ATOM     14  C   UNL     1       0.135  -2.121   1.183  0.00  0.00    +0.139 A 
ATOM     15  C   UNL     1       0.251  -0.730   1.196  0.00  0.00    +0.043 A 
ATOM     16  C   UNL     1       0.483  -0.345   2.538  0.00  0.00    +0.069 A 
ATOM     17  N   UNL     1       0.508  -1.423   3.270  0.00  0.00    -0.174 NA
ATOM     18  N   UNL     1       0.288  -2.541   2.458  0.00  0.00    -0.251 N 
ATOM     19  C   UNL     1       0.244  -3.933   2.912  0.00  0.00    +0.174 C 
ATOM     20  C   UNL     1       0.669   1.066   3.034  0.00  0.00    +0.068 C 
ENDBRANCH   6   9
ENDBRANCH   5   6
ENDBRANCH   1   5
BRANCH   3  21
ATOM     21  C   UNL     1       1.954   1.771  -6.519  0.00  0.00    +0.139 C 
BRANCH  21  22
ATOM     22  C   UNL     1       3.288   2.360  -6.897  0.00  0.00    +0.129 A 
ATOM     23  N   UNL     1       3.561   3.691  -6.969  0.00  0.00    -0.340 N 
ATOM     24  H   UNL     1       2.941   4.415  -6.788  0.00  0.00    +0.167 HD
ATOM     25  C   UNL     1       4.883   3.820  -7.345  0.00  0.00    +0.066 A 
ATOM     26  C   UNL     1       5.721   4.902  -7.579  0.00  0.00    +0.028 A 
ATOM     27  C   UNL     1       7.029   4.684  -7.953  0.00  0.00    +0.002 A 
ATOM     28  C   UNL     1       7.514   3.392  -8.097  0.00  0.00    +0.002 A 
ATOM     29  C   UNL     1       6.704   2.315  -7.871  0.00  0.00    +0.030 A 
ATOM     30  C   UNL     1       5.374   2.511  -7.491  0.00  0.00    +0.089 A 
ATOM     31  N   UNL     1       4.350   1.670  -7.197  0.00  0.00    -0.231 NA
ENDBRANCH  21  22
BRANCH  21  32
ATOM     32  C   UNL     1       1.491   0.810  -7.617  0.00  0.00    +0.033 C 
BRANCH  32  33
ATOM     33  C   UNL     1       0.083   0.308  -7.294  0.00  0.00    -0.015 C 
ATOM     34  C   UNL     1      -0.900   1.480  -7.342  0.00  0.00    +0.007 C 
ATOM     35  C   UNL     1      -0.331  -0.746  -8.323  0.00  0.00    +0.007 C 
ENDBRANCH  32  33
ENDBRANCH  21  32
ENDBRANCH   3  21
TORSDOF 7
