REMARK  Name = ZINC39430192
REMARK  6 active torsions:
REMARK  status: ('A' for Active; 'I' for Inactive)
REMARK    1  A    between atoms: C_1  and  C_2
REMARK    2  A    between atoms: C_2  and  C_3
REMARK    3  A    between atoms: C_3  and  C_5
REMARK    4  A    between atoms: C_3  and  C_6
REMARK    5  A    between atoms: C_14  and  C_16
REMARK    6  A    between atoms: C_19  and  C_21
REMARK                            x       y       z     vdW  Elec       q    Type
REMARK                         _______ _______ _______ _____ _____    ______ ____
ROOT
ATOM      1  C   UNL     1      -1.032  -3.129  -0.248  0.00  0.00    +0.160 C 
ATOM      2  C   UNL     1      -2.523  -3.341  -0.255  0.00  0.00    -0.003 C 
ATOM      3  C   UNL     1      -2.767  -4.131   0.797  0.00  0.00    +0.067 C 
ATOM      4  C   UNL     1      -4.151  -4.610   1.175  0.00  0.00    +0.076 C 
ATOM      5  C   UNL     1      -5.191  -3.709   0.498  0.00  0.00    +0.114 C 
ATOM      6  N   UNL     1      -4.822  -3.512  -0.911  0.00  0.00    -0.292 N 
ATOM      7  C   UNL     1      -3.558  -2.806  -1.203  0.00  0.00    +0.143 C 
ATOM      8  C   UNL     1      -5.612  -3.960  -1.906  0.00  0.00    +0.266 C 
ATOM      9  O   UNL     1      -6.586  -4.642  -1.649  0.00  0.00    -0.268 OA
ATOM     10  N   UNL     1      -1.609  -4.416   1.434  0.00  0.00    -0.158 NA
ATOM     11  N   UNL     1      -0.598  -3.908   0.928  0.00  0.00    -0.179 NA
ENDROOT
BRANCH   8  12
ATOM     12  C   UNL     1      -5.298  -3.624  -3.305  0.00  0.00    +0.133 A 
ATOM     13  C   UNL     1      -6.003  -4.195  -4.331  0.00  0.00    +0.080 A 
ATOM     14  S   UNL     1      -5.286  -3.510  -5.692  0.00  0.00    -0.074 S 
ATOM     15  C   UNL     1      -4.080  -2.493  -4.860  0.00  0.00    +0.116 A 
ATOM     16  N   UNL     1      -4.331  -2.760  -3.588  0.00  0.00    -0.234 NA
BRANCH  15  17
ATOM     17  C   UNL     1      -3.072  -1.588  -5.436  0.00  0.00    +0.044 A 
ATOM     18  C   UNL     1      -2.820  -1.302  -6.754  0.00  0.00    +0.018 A 
ATOM     19  C   UNL     1      -1.815  -0.412  -7.057  0.00  0.00    +0.008 A 
ATOM     20  C   UNL     1      -1.105   0.154  -6.046  0.00  0.00    +0.046 A 
ATOM     21  S   UNL     1      -1.865  -0.570  -4.602  0.00  0.00    -0.095 S 
ENDBRANCH  15  17
ENDBRANCH   8  12
BRANCH   1  22
ATOM     22  C   UNL     1      -0.696  -1.647  -0.071  0.00  0.00    +0.016 C 
ATOM     23  C   UNL     1      -1.220  -1.162   1.282  0.00  0.00    +0.010 C 
BRANCH  22  25
ATOM     24  C   UNL     1       1.151   0.036  -0.077  0.00  0.00    +0.004 C 
ATOM     25  C   UNL     1       0.821  -1.458  -0.128  0.00  0.00    +0.002 C 
ENDBRANCH  22  25
ENDBRANCH   1  22
TORSDOF 4
