REMARK  Name = ZINC63562249
REMARK  9 active torsions:
REMARK  status: ('A' for Active; 'I' for Inactive)
REMARK    1  A    between atoms: C_1  and  O_2
REMARK    2  A    between atoms: O_2  and  C_3
REMARK    3  A    between atoms: C_5  and  C_13
REMARK    4  A    between atoms: C_7  and  O_11
REMARK    5  A    between atoms: C_8  and  O_9
REMARK    6  A    between atoms: O_9  and  C_10
REMARK    7  A    between atoms: O_11  and  C_12
REMARK    8  A    between atoms: C_28  and  C_30
REMARK    9  A    between atoms: C_33  and  C_36
REMARK                            x       y       z     vdW  Elec       q    Type
REMARK                         _______ _______ _______ _____ _____    ______ ____
ROOT
ATOM      1  C   UNL     1      -4.854   0.319   0.063  0.00  0.00    +0.247 C 
ATOM      2  O   UNL     1      -4.850   1.533   0.114  0.00  0.00    -0.270 OA
ATOM      3  N   UNL     1      -6.021  -0.349  -0.025  0.00  0.00    -0.288 N 
ATOM      4  C   UNL     1      -6.024  -1.815   0.017  0.00  0.00    +0.113 C 
ATOM      5  C   UNL     1      -6.687  -2.363  -1.260  0.00  0.00    +0.052 C 
ATOM      6  C   UNL     1      -7.943  -1.556  -1.476  0.00  0.00    -0.035 C 
ATOM      7  C   UNL     1      -9.202  -1.927  -1.675  0.00  0.00    -0.001 A 
ATOM      8  C   UNL     1      -9.814  -3.252  -1.868  0.00  0.00    +0.010 A 
ATOM      9  C   UNL     1     -11.163  -3.271  -2.029  0.00  0.00    +0.001 A 
ATOM     10  C   UNL     1     -11.956  -2.119  -2.019  0.00  0.00    +0.002 A 
ATOM     11  C   UNL     1     -11.477  -0.860  -1.857  0.00  0.00    +0.026 A 
ATOM     12  C   UNL     1     -10.070  -0.710  -1.685  0.00  0.00    +0.043 A 
ATOM     13  N   UNL     1      -9.350   0.362  -1.535  0.00  0.00    -0.375 N 
ATOM     14  C   UNL     1      -7.942  -0.032  -1.474  0.00  0.00    +0.131 C 
ATOM     15  C   UNL     1      -7.280   0.402  -0.157  0.00  0.00    +0.133 C 
ATOM     16  H   UNL     1      -9.689   1.269  -1.474  0.00  0.00    +0.160 HD
ENDROOT
BRANCH   1  19
ATOM     17  C   UNL     1      -1.330  -0.741  -0.696  0.00  0.00    +0.166 A 
ATOM     18  C   UNL     1      -2.522  -0.043  -0.732  0.00  0.00    +0.062 A 
ATOM     19  C   UNL     1      -3.579  -0.426   0.098  0.00  0.00    +0.044 A 
ATOM     20  C   UNL     1      -3.428  -1.513   0.962  0.00  0.00    +0.062 A 
ATOM     21  C   UNL     1      -2.233  -2.208   0.993  0.00  0.00    +0.166 A 
ATOM     22  C   UNL     1      -1.183  -1.828   0.162  0.00  0.00    +0.204 A 
BRANCH  17  24
ATOM     23  C   UNL     1      -0.520   0.754  -2.359  0.00  0.00    +0.277 C 
ATOM     24  O   UNL     1      -0.301  -0.370  -1.504  0.00  0.00    -0.491 OA
ENDBRANCH  17  24
BRANCH  22  25
ATOM     25  O   UNL     1      -0.012  -2.516   0.191  0.00  0.00    -0.488 OA
ATOM     26  C   UNL     1       0.981  -2.067   1.115  0.00  0.00    +0.277 C 
ENDBRANCH  22  25
BRANCH  21  27
ATOM     27  O   UNL     1      -2.085  -3.267   1.834  0.00  0.00    -0.491 OA
ATOM     28  C   UNL     1      -3.204  -3.604   2.656  0.00  0.00    +0.277 C 
ENDBRANCH  21  27
ENDBRANCH   1  19
BRANCH  15  29
ATOM     29  C   UNL     1      -8.188   0.083   1.004  0.00  0.00    -0.025 A 
ATOM     30  C   UNL     1      -8.554  -1.226   1.255  0.00  0.00    +0.006 A 
ATOM     31  C   UNL     1      -9.386  -1.518   2.320  0.00  0.00    +0.013 A 
ATOM     32  C   UNL     1      -9.852  -0.501   3.132  0.00  0.00    +0.055 A 
ATOM     33  C   UNL     1      -9.485   0.807   2.881  0.00  0.00    +0.013 A 
ATOM     34  C   UNL     1      -8.649   1.099   1.820  0.00  0.00    +0.006 A 
BRANCH  32  35
ATOM     35  C   UNL     1     -10.760  -0.820   4.292  0.00  0.00    +0.417 C 
ATOM     36  F   UNL     1      -9.990  -1.063   5.434  0.00  0.00    -0.166 F 
ATOM     37  F   UNL     1     -11.614   0.263   4.527  0.00  0.00    -0.166 F 
ATOM     38  F   UNL     1     -11.520  -1.955   3.991  0.00  0.00    -0.166 F 
ENDBRANCH  32  35
ENDBRANCH  15  29
TORSDOF 6
