REMARK  Name = ZINC08316157
REMARK  6 active torsions:
REMARK  status: ('A' for Active; 'I' for Inactive)
REMARK    1  A    between atoms: C_1  and  O_2
REMARK    2  A    between atoms: O_2  and  C_3
REMARK    3  A    between atoms: C_6  and  C_9
REMARK    4  A    between atoms: C_9  and  C_10
REMARK    5  A    between atoms: N_12  and  N_13
REMARK    6  A    between atoms: C_14  and  C_16
REMARK                            x       y       z     vdW  Elec       q    Type
REMARK                         _______ _______ _______ _____ _____    ______ ____
ROOT
ATOM      1  N   UNL     1       1.223  -4.466  -3.021  0.00  0.00    -0.230 N 
ATOM      2  C   UNL     1       1.236  -5.790  -3.274  0.00  0.00    +0.267 C 
ATOM      3  O   UNL     1       1.254  -6.585  -2.353  0.00  0.00    -0.268 OA
ATOM      4  H   UNL     1       1.209  -3.832  -3.755  0.00  0.00    +0.173 HD
ENDROOT
BRANCH   2   5
ATOM      5  C   UNL     1       1.228  -6.272  -4.658  0.00  0.00    +0.076 A 
ATOM      6  C   UNL     1       1.239  -7.566  -5.130  0.00  0.00    +0.024 A 
ATOM      7  C   UNL     1       1.215  -7.767  -6.512  0.00  0.00    -0.036 A 
ATOM      8  C   UNL     1       1.242  -6.668  -7.292  0.00  0.00    -0.006 A 
ATOM      9  S   UNL     1       1.195  -5.338  -6.175  0.00  0.00    -0.088 S 
ATOM     10  C   UNL     1       1.361  -6.473  -8.781  0.00  0.00    +0.043 C 
ATOM     11  C   UNL     1       1.491  -7.798  -9.532  0.00  0.00    +0.005 C 
ATOM     12  C   UNL     1       0.133  -8.460  -9.698  0.00  0.00    +0.000 C 
ATOM     13  C   UNL     1      -0.758  -8.283  -8.484  0.00  0.00    +0.000 C 
ATOM     14  C   UNL     1      -0.387  -9.388  -7.491  0.00  0.00    +0.005 C 
ATOM     15  C   UNL     1       1.061  -9.186  -7.043  0.00  0.00    +0.036 C 
ENDBRANCH   2   5
BRANCH   1  18
ATOM     16  C   UNL     1       1.218  -2.682  -1.444  0.00  0.00    +0.233 C 
ATOM     17  O   UNL     1       1.199  -1.889  -2.362  0.00  0.00    -0.274 OA
ATOM     18  N   UNL     1       1.231  -4.006  -1.697  0.00  0.00    -0.234 N 
ATOM     19  H   UNL     1       1.245  -4.640  -0.963  0.00  0.00    +0.173 HD
BRANCH  16  20
ATOM     20  C   UNL     1       1.226  -2.187  -0.021  0.00  0.00    +0.132 C 
BRANCH  20  24
ATOM     21  C   UNL     1       1.176   2.086   0.002  0.00  0.00    +0.120 A 
ATOM     22  C   UNL     1      -0.017   1.377   0.010  0.00  0.00    +0.046 A 
ATOM     23  C   UNL     1       0.002  -0.004   0.002  0.00  0.00    +0.007 A 
ATOM     24  C   UNL     1       1.208  -0.680  -0.013  0.00  0.00    -0.038 A 
ATOM     25  C   UNL     1       2.398   0.024  -0.021  0.00  0.00    +0.007 A 
ATOM     26  C   UNL     1       2.385   1.405  -0.013  0.00  0.00    +0.046 A 
BRANCH  21  28
ATOM     27  C   UNL     1       2.426   4.108   0.001  0.00  0.00    +0.277 C 
ATOM     28  O   UNL     1       1.160   3.445   0.009  0.00  0.00    -0.495 OA
ENDBRANCH  21  28
ENDBRANCH  20  24
ENDBRANCH  16  20
ENDBRANCH   1  18
TORSDOF 5
