REMARK  Name = ZINC20322550
REMARK  6 active torsions:
REMARK  status: ('A' for Active; 'I' for Inactive)
REMARK    1  A    between atoms: C_1  and  C_2
REMARK    2  A    between atoms: C_2  and  C_4
REMARK    3  A    between atoms: C_2  and  O_24
REMARK    4  A    between atoms: C_4  and  N_5
REMARK    5  A    between atoms: C_8  and  C_15
REMARK    6  A    between atoms: C_19  and  N_21
REMARK                            x       y       z     vdW  Elec       q    Type
REMARK                         _______ _______ _______ _____ _____    ______ ____
ROOT
ATOM      1  N   UNL     1      -1.711   4.220  -2.293  0.00  0.00    -0.326 N 
ATOM      2  C   UNL     1      -1.582   5.580  -2.077  0.00  0.00    +0.131 A 
ATOM      3  C   UNL     1      -1.026   6.066  -0.863  0.00  0.00    +0.055 A 
ATOM      4  C   UNL     1      -0.527   5.328   0.293  0.00  0.00    +0.002 A 
ATOM      5  C   UNL     1      -0.042   6.023   1.349  0.00  0.00    +0.056 A 
ATOM      6  S   UNL     1      -0.220   7.723   0.845  0.00  0.00    -0.076 S 
ATOM      7  C   UNL     1      -0.942   7.469  -0.754  0.00  0.00    +0.114 A 
ATOM      8  N   UNL     1      -1.358   8.260  -1.725  0.00  0.00    -0.228 NA
ATOM      9  C   UNL     1      -1.865   7.750  -2.830  0.00  0.00    +0.224 A 
ATOM     10  N   UNL     1      -1.974   6.444  -3.000  0.00  0.00    -0.220 NA
ATOM     11  H   UNL     1      -1.285   3.506  -1.573  0.00  0.00    +0.148 HD
ENDROOT
BRANCH   4  12
ATOM     12  C   UNL     1      -0.555   3.846   0.312  0.00  0.00    -0.014 A 
ATOM     13  C   UNL     1      -1.770   3.168   0.219  0.00  0.00    +0.009 A 
ATOM     14  C   UNL     1      -1.789   1.789   0.232  0.00  0.00    +0.003 A 
ATOM     15  C   UNL     1      -0.607   1.078   0.348  0.00  0.00    +0.033 A 
ATOM     16  C   UNL     1       0.601   1.746   0.442  0.00  0.00    +0.127 A 
ATOM     17  C   UNL     1       0.633   3.125   0.424  0.00  0.00    +0.041 A 
BRANCH  16  18
ATOM     18  N   UNL     1       1.861   0.979   0.560  0.00  0.00    +0.056 N 
ATOM     19  O   UNL     1       1.834  -0.239   0.575  0.00  0.00    -0.126 OA
ATOM     20  O   UNL     1       2.925   1.565   0.642  0.00  0.00    -0.126 OA
ENDBRANCH  16  18
ENDBRANCH   4  12
BRANCH   1  21
ATOM     21  C   UNL     1      -2.416   3.730  -3.481  0.00  0.00    +0.134 C 
BRANCH  21  23
ATOM     22  C   UNL     1      -3.152   1.689  -4.719  0.00  0.00    +0.039 C 
ATOM     23  C   UNL     1      -2.416   2.200  -3.478  0.00  0.00    +0.128 C 
BRANCH  23  24
ATOM     24  O   UNL     1      -1.069   1.723  -3.493  0.00  0.00    -0.391 OA
ATOM     25  H   UNL     1      -0.382   1.990  -2.676  0.00  0.00    +0.210 HD
ENDBRANCH  23  24
ENDBRANCH  21  23
ENDBRANCH   1  21
TORSDOF 5
