REMARK  Name = ZINC20904912
REMARK  11 active torsions:
REMARK  status: ('A' for Active; 'I' for Inactive)
REMARK    1  A    between atoms: C_1  and  C_2
REMARK    2  A    between atoms: N_7  and  S_9
REMARK    3  A    between atoms: S_9  and  C_12
REMARK    4  A    between atoms: C_15  and  N_18
REMARK    5  A    between atoms: C_19  and  C_21
REMARK    6  A    between atoms: C_21  and  S_22
REMARK    7  A    between atoms: S_22  and  C_23
REMARK    8  A    between atoms: C_26  and  C_29
REMARK    9  A    between atoms: N_27  and  N_28
REMARK   10  A    between atoms: C_29  and  O_30
REMARK   11  A    between atoms: O_30  and  C_31
REMARK                            x       y       z     vdW  Elec       q    Type
REMARK                         _______ _______ _______ _____ _____    ______ ____
ROOT
ATOM      1  N   UNL     1      -7.111   2.420   0.111  0.00  0.00    -0.285 N 
ATOM      2  C   UNL     1      -7.126   3.360  -0.856  0.00  0.00    +0.227 C 
ATOM      3  O   UNL     1      -8.051   4.141  -0.927  0.00  0.00    -0.275 OA
ATOM      4  H   UNL     1      -6.312   1.664   0.131  0.00  0.00    +0.155 HD
ENDROOT
BRANCH   1   8
ATOM      5  C   UNL     1     -10.089   2.379   3.024  0.00  0.00    +0.106 A 
ATOM      6  C   UNL     1     -10.395   2.756   1.730  0.00  0.00    +0.030 A 
ATOM      7  C   UNL     1      -9.410   2.771   0.761  0.00  0.00    +0.025 A 
ATOM      8  C   UNL     1      -8.111   2.407   1.089  0.00  0.00    +0.034 A 
ATOM      9  C   UNL     1      -7.807   2.024   2.389  0.00  0.00    +0.025 A 
ATOM     10  C   UNL     1      -8.796   2.016   3.354  0.00  0.00    +0.030 A 
BRANCH   5  11
ATOM     11  S   UNL     1     -11.348   2.362   4.256  0.00  0.00    +0.061 S 
ATOM     12  O   UNL     1     -10.692   2.497   5.510  0.00  0.00    -0.153 OA
ATOM     13  O   UNL     1     -12.354   3.267   3.821  0.00  0.00    -0.153 OA
BRANCH  11  19
ATOM     14  C   UNL     1     -10.755  -2.609   5.093  0.00  0.00    +0.009 C 
ATOM     15  C   UNL     1     -11.187  -1.437   4.209  0.00  0.00    +0.002 C 
ATOM     16  C   UNL     1     -12.442  -1.824   3.424  0.00  0.00    +0.006 C 
ATOM     17  C   UNL     1     -12.855  -0.664   2.515  0.00  0.00    +0.017 C 
ATOM     18  C   UNL     1     -13.185   0.563   3.379  0.00  0.00    +0.109 C 
ATOM     19  N   UNL     1     -12.029   0.853   4.239  0.00  0.00    -0.176 NA
ATOM     20  C   UNL     1     -11.494  -0.220   5.088  0.00  0.00    +0.112 C 
ENDBRANCH  11  19
ENDBRANCH   5  11
ENDBRANCH   1   8
BRANCH   2  21
ATOM     21  C   UNL     1      -5.994   3.439  -1.847  0.00  0.00    +0.173 C 
BRANCH  21  22
ATOM     22  S   UNL     1      -6.303   4.792  -3.009  0.00  0.00    -0.075 S 
BRANCH  22  23
ATOM     23  C   UNL     1      -4.869   4.659  -4.023  0.00  0.00    +0.209 A 
ATOM     24  N   UNL     1      -3.898   3.784  -3.892  0.00  0.00    -0.121 NA
ATOM     25  N   UNL     1      -3.012   3.975  -4.803  0.00  0.00    -0.130 NA
ATOM     26  C   UNL     1      -3.364   4.970  -5.567  0.00  0.00    +0.177 A 
ATOM     27  N   UNL     1      -4.556   5.445  -5.094  0.00  0.00    -0.226 N 
BRANCH  27  28
ATOM     28  N   UNL     1      -5.285   6.487  -5.594  0.00  0.00    -0.295 N 
ATOM     29  H   UNL     1      -4.919   7.045  -6.468  0.00  0.00    +0.163 HD
ATOM     30  H   UNL     1      -6.237   6.768  -5.121  0.00  0.00    +0.163 HD
ENDBRANCH  27  28
BRANCH  26  31
ATOM     31  C   UNL     1      -2.597   5.501  -6.751  0.00  0.00    +0.237 C 
BRANCH  31  32
ATOM     32  O   UNL     1      -1.694   6.520  -6.316  0.00  0.00    -0.375 OA
ATOM     33  C   UNL     1      -0.914   7.093  -7.367  0.00  0.00    +0.194 C 
ENDBRANCH  31  32
ENDBRANCH  26  31
ENDBRANCH  22  23
ENDBRANCH  21  22
ENDBRANCH   2  21
TORSDOF 9
