REMARK  Name = ZINC15323305
REMARK  10 active torsions:
REMARK  status: ('A' for Active; 'I' for Inactive)
REMARK    1  A    between atoms: C_1  and  C_2
REMARK    2  A    between atoms: C_2  and  C_3
REMARK    3  A    between atoms: C_3  and  C_4
REMARK    4  A    between atoms: C_4  and  N_5
REMARK    5  A    between atoms: C_6  and  N_38
REMARK    6  A    between atoms: C_7  and  N_14
REMARK    7  A    between atoms: N_14  and  C_15
REMARK    8  A    between atoms: C_15  and  C_16
REMARK    9  A    between atoms: C_22  and  C_24
REMARK   10  A    between atoms: C_24  and  C_25
REMARK                            x       y       z     vdW  Elec       q    Type
REMARK                         _______ _______ _______ _____ _____    ______ ____
ROOT
ATOM      1  N   UNL     1       4.261   5.965  -1.653  0.00  0.00    -0.260 N 
ATOM      2  C   UNL     1       2.953   5.637  -1.627  0.00  0.00    +0.225 C 
ATOM      3  O   UNL     1       2.385   5.324  -2.653  0.00  0.00    -0.275 OA
ENDROOT
BRANCH   1   6
ATOM      4  N   UNL     1       6.596   5.249  -4.399  0.00  0.00    -0.280 N 
ATOM      5  C   UNL     1       5.948   5.147  -3.190  0.00  0.00    +0.127 A 
ATOM      6  C   UNL     1       4.945   6.044  -2.885  0.00  0.00    +0.140 A 
ATOM      7  C   UNL     1       4.610   7.035  -3.827  0.00  0.00    +0.277 A 
ATOM      8  O   UNL     1       3.724   7.837  -3.586  0.00  0.00    -0.266 OA
ATOM      9  N   UNL     1       5.279   7.094  -4.995  0.00  0.00    -0.273 N 
ATOM     10  H   UNL     1       5.048   7.803  -5.662  0.00  0.00    +0.173 HD
ATOM     11  C   UNL     1       6.255   6.212  -5.275  0.00  0.00    +0.331 A 
ATOM     12  O   UNL     1       6.840   6.285  -6.338  0.00  0.00    -0.246 OA
BRANCH   5  13
ATOM     13  N   UNL     1       6.297   4.164  -2.295  0.00  0.00    -0.343 N 
ATOM     14  H   UNL     1       5.777   4.038  -1.486  0.00  0.00    +0.144 HD
ATOM     15  H   UNL     1       7.063   3.596  -2.473  0.00  0.00    +0.144 HD
ENDBRANCH   5  13
BRANCH   4  16
ATOM     16  C   UNL     1       7.663   4.303  -4.736  0.00  0.00    +0.128 C 
BRANCH  16  17
ATOM     17  C   UNL     1       7.063   3.090  -5.448  0.00  0.00    +0.021 C 
BRANCH  17  19
ATOM     18  C   UNL     1       7.577   0.888  -6.511  0.00  0.00    +0.004 C 
ATOM     19  C   UNL     1       8.177   2.102  -5.799  0.00  0.00    -0.002 C 
ENDBRANCH  17  19
ENDBRANCH  16  17
ENDBRANCH   4  16
ENDBRANCH   1   6
BRANCH   1  20
ATOM     20  C   UNL     1       4.972   6.239  -0.402  0.00  0.00    +0.149 C 
BRANCH  20  21
ATOM     21  C   UNL     1       4.987   7.725  -0.148  0.00  0.00    -0.030 A 
ATOM     22  C   UNL     1       5.972   8.513  -0.714  0.00  0.00    +0.005 A 
ATOM     23  C   UNL     1       5.982   9.876  -0.485  0.00  0.00    +0.000 A 
ATOM     24  C   UNL     1       5.014  10.450   0.318  0.00  0.00    +0.000 A 
ATOM     25  C   UNL     1       4.032   9.661   0.887  0.00  0.00    +0.000 A 
ATOM     26  C   UNL     1       4.018   8.298   0.654  0.00  0.00    +0.005 A 
ENDBRANCH  20  21
ENDBRANCH   1  20
BRANCH   2  27
ATOM     27  C   UNL     1       2.196   5.658  -0.324  0.00  0.00    +0.135 C 
BRANCH  27  28
ATOM     28  C   UNL     1       0.778   5.206  -0.559  0.00  0.00    +0.007 A 
ATOM     29  C   UNL     1      -0.292   5.987  -0.780  0.00  0.00    +0.200 A 
ATOM     30  O   UNL     1      -1.387   5.227  -0.945  0.00  0.00    -0.463 OA
ATOM     31  C   UNL     1      -1.084   3.917  -0.841  0.00  0.00    +0.136 A 
ATOM     32  C   UNL     1       0.289   3.829  -0.593  0.00  0.00    +0.031 A 
ATOM     33  C   UNL     1       0.903   2.518  -0.433  0.00  0.00    -0.007 A 
ATOM     34  C   UNL     1       2.271   2.368  -0.184  0.00  0.00    +0.009 A 
ATOM     35  C   UNL     1       2.800   1.119  -0.043  0.00  0.00    +0.001 A 
ATOM     36  C   UNL     1       1.995  -0.013  -0.142  0.00  0.00    +0.001 A 
ATOM     37  C   UNL     1       0.659   0.097  -0.389  0.00  0.00    +0.008 A 
ATOM     38  C   UNL     1       0.081   1.368  -0.535  0.00  0.00    -0.017 A 
ATOM     39  C   UNL     1      -1.296   1.521  -0.785  0.00  0.00    +0.012 A 
ATOM     40  C   UNL     1      -1.850   2.750  -0.931  0.00  0.00    +0.047 A 
ENDBRANCH  27  28
ENDBRANCH   2  27
TORSDOF 9
