REMARK  Name = ZINC24141947
REMARK  5 active torsions:
REMARK  status: ('A' for Active; 'I' for Inactive)
REMARK    1  A    between atoms: C_1  and  C_2
REMARK    2  A    between atoms: C_3  and  C_27
REMARK    3  A    between atoms: N_9  and  C_12
REMARK    4  A    between atoms: C_12  and  C_13
REMARK    5  A    between atoms: N_15  and  C_16
REMARK                            x       y       z     vdW  Elec       q    Type
REMARK                         _______ _______ _______ _____ _____    ______ ____
ROOT
ATOM      1  C   UNL     1       5.078   2.117  -0.035  0.00  0.00    +0.052 C 
ATOM      2  C   UNL     1       3.594   2.376  -0.020  0.00  0.00    -0.003 A 
ATOM      3  C   UNL     1       2.584   1.473  -0.015  0.00  0.00    +0.007 A 
ATOM      4  C   UNL     1       1.209   1.958   0.001  0.00  0.00    +0.080 A 
ATOM      5  C   UNL     1       1.071   3.356   0.009  0.00  0.00    +0.116 A 
ATOM      6  S   UNL     1       2.745   3.943  -0.004  0.00  0.00    -0.073 S 
ATOM      7  N   UNL     1      -0.121   3.945   0.024  0.00  0.00    -0.230 NA
ATOM      8  C   UNL     1      -1.220   3.239   0.031  0.00  0.00    +0.203 A 
ATOM      9  N   UNL     1      -1.183   1.882   0.018  0.00  0.00    -0.290 N 
ATOM     10  C   UNL     1      -0.015   1.215   0.009  0.00  0.00    +0.263 A 
ATOM     11  O   UNL     1       0.002  -0.004   0.002  0.00  0.00    -0.267 OA
ENDROOT
BRANCH   3  12
ATOM     12  C   UNL     1       2.871   0.018  -0.025  0.00  0.00    -0.016 A 
ATOM     13  C   UNL     1       2.522  -0.772   1.069  0.00  0.00    +0.008 A 
ATOM     14  C   UNL     1       2.788  -2.126   1.052  0.00  0.00    +0.001 A 
ATOM     15  C   UNL     1       3.408  -2.698  -0.044  0.00  0.00    +0.000 A 
ATOM     16  C   UNL     1       3.761  -1.918  -1.131  0.00  0.00    +0.001 A 
ATOM     17  C   UNL     1       3.496  -0.564  -1.127  0.00  0.00    +0.008 A 
ENDBRANCH   3  12
BRANCH   9  18
ATOM     18  C   UNL     1      -2.440   1.129   0.020  0.00  0.00    +0.222 C 
BRANCH  18  19
ATOM     19  C   UNL     1      -2.864   0.864   1.442  0.00  0.00    +0.233 C 
ATOM     20  O   UNL     1      -2.183   1.264   2.362  0.00  0.00    -0.274 OA
ATOM     21  N   UNL     1      -3.999   0.182   1.690  0.00  0.00    -0.307 N 
ATOM     22  H   UNL     1      -4.617  -0.181   0.855  0.00  0.00    +0.149 HD
BRANCH  21  23
ATOM     23  C   UNL     1      -4.412  -0.076   3.072  0.00  0.00    +0.110 C 
ATOM     24  C   UNL     1      -5.929  -0.274   3.123  0.00  0.00    +0.068 C 
ATOM     25  C   UNL     1      -6.296  -0.829   4.505  0.00  0.00    +0.231 C 
ATOM     26  O   UNL     1      -5.711  -2.125   4.640  0.00  0.00    -0.492 OA
ATOM     27  C   UNL     1      -4.396  -2.263   4.329  0.00  0.00    +0.125 A 
ATOM     28  C   UNL     1      -3.720  -1.317   3.578  0.00  0.00    +0.014 A 
ATOM     29  C   UNL     1      -2.381  -1.502   3.281  0.00  0.00    +0.009 A 
ATOM     30  C   UNL     1      -1.715  -2.625   3.731  0.00  0.00    +0.001 A 
ATOM     31  C   UNL     1      -2.387  -3.571   4.484  0.00  0.00    +0.004 A 
ATOM     32  C   UNL     1      -3.722  -3.393   4.782  0.00  0.00    +0.046 A 
ENDBRANCH  21  23
ENDBRANCH  18  19
ENDBRANCH   9  18
TORSDOF 4
