REMARK  Name = ZINC00660155
REMARK  13 active torsions:
REMARK  status: ('A' for Active; 'I' for Inactive)
REMARK    1  A    between atoms: C_1  and  C_2
REMARK    2  A    between atoms: C_5  and  S_8
REMARK    3  A    between atoms: S_8  and  C_9
REMARK    4  A    between atoms: C_9  and  C_10
REMARK    5  A    between atoms: C_17  and  N_35
REMARK    6  A    between atoms: C_18  and  C_33
REMARK    7  A    between atoms: C_19  and  C_21
REMARK    8  A    between atoms: C_24  and  O_29
REMARK    9  A    between atoms: C_25  and  O_27
REMARK   10  A    between atoms: O_27  and  C_28
REMARK   11  A    between atoms: O_29  and  C_30
REMARK   12  A    between atoms: C_30  and  C_31
REMARK   13  A    between atoms: C_30  and  C_32
REMARK                            x       y       z     vdW  Elec       q    Type
REMARK                         _______ _______ _______ _____ _____    ______ ____
ROOT
ATOM      1  C   UNL     1       0.131  -6.889   2.085  0.00  0.00    +0.054 A 
ATOM      2  C   UNL     1      -1.055  -7.514   2.032  0.00  0.00    +0.050 A 
ATOM      3  C   UNL     1      -0.822  -8.905   2.113  0.00  0.00    +0.245 A 
ATOM      4  N   UNL     1       0.462  -9.093   2.212  0.00  0.00    -0.135 NA
ATOM      5  N   UNL     1       1.090  -7.838   2.191  0.00  0.00    -0.277 N 
ATOM      6  H   UNL     1       2.045  -7.679   2.246  0.00  0.00    +0.189 HD
ATOM      7  O   UNL     1      -1.838  -9.809   2.081  0.00  0.00    -0.421 OA
ATOM      8  C   UNL     1      -3.052  -9.365   1.700  0.00  0.00    +0.201 C 
ATOM      9  C   UNL     1      -3.394  -8.064   1.599  0.00  0.00    +0.098 C 
ATOM     10  C   UNL     1      -2.442  -6.937   1.911  0.00  0.00    +0.101 C 
ENDROOT
BRANCH  10  11
ATOM     11  C   UNL     1      -2.836  -6.282   3.209  0.00  0.00    -0.031 A 
ATOM     12  C   UNL     1      -2.884  -7.029   4.372  0.00  0.00    +0.008 A 
ATOM     13  C   UNL     1      -3.245  -6.433   5.566  0.00  0.00    +0.050 A 
ATOM     14  C   UNL     1      -3.559  -5.084   5.599  0.00  0.00    +0.162 A 
ATOM     15  C   UNL     1      -3.511  -4.332   4.430  0.00  0.00    +0.162 A 
ATOM     16  C   UNL     1      -3.143  -4.934   3.237  0.00  0.00    +0.054 A 
BRANCH  15  17
ATOM     17  O   UNL     1      -3.818  -3.007   4.458  0.00  0.00    -0.491 OA
ATOM     18  C   UNL     1      -3.746  -2.298   3.219  0.00  0.00    +0.277 C 
ENDBRANCH  15  17
BRANCH  14  19
ATOM     19  O   UNL     1      -3.915  -4.496   6.773  0.00  0.00    -0.486 OA
BRANCH  19  20
ATOM     20  C   UNL     1      -3.828  -5.298   7.953  0.00  0.00    +0.167 C 
ATOM     21  C   UNL     1      -3.646  -4.393   9.172  0.00  0.00    +0.051 C 
ATOM     22  C   UNL     1      -5.113  -6.114   8.111  0.00  0.00    +0.051 C 
ENDBRANCH  19  20
ENDBRANCH  14  19
ENDBRANCH  10  11
BRANCH   8  23
ATOM     23  N   UNL     1      -4.007 -10.302   1.393  0.00  0.00    -0.328 N 
ATOM     24  H   UNL     1      -3.797 -11.247   1.454  0.00  0.00    +0.145 HD
ATOM     25  H   UNL     1      -4.893 -10.019   1.115  0.00  0.00    +0.145 HD
ENDBRANCH   8  23
BRANCH   9  26
ATOM     26  C   UNL     1      -4.723  -7.737   1.176  0.00  0.00    +0.101 C 
ATOM     27  N   UNL     1      -5.777  -7.479   0.841  0.00  0.00    -0.191 NA
ENDBRANCH   9  26
BRANCH   1  28
ATOM     28  C   UNL     1       0.355  -5.400   2.030  0.00  0.00    +0.129 C 
BRANCH  28  29
ATOM     29  S   UNL     1       0.555  -4.883   0.302  0.00  0.00    -0.119 S 
BRANCH  29  34
ATOM     30  C   UNL     1       1.410   1.082   0.655  0.00  0.00    +0.044 C 
ATOM     31  C   UNL     1       1.197  -0.407   0.567  0.00  0.00    -0.050 A 
ATOM     32  C   UNL     1       1.194  -1.032  -0.667  0.00  0.00    +0.004 A 
ATOM     33  C   UNL     1       0.999  -2.396  -0.751  0.00  0.00    +0.015 A 
ATOM     34  C   UNL     1       0.805  -3.142   0.405  0.00  0.00    +0.008 A 
ATOM     35  C   UNL     1       0.810  -2.511   1.643  0.00  0.00    +0.015 A 
ATOM     36  C   UNL     1       1.011  -1.147   1.721  0.00  0.00    +0.004 A 
ENDBRANCH  29  34
ENDBRANCH  28  29
ENDBRANCH   1  28
TORSDOF 9
