REMARK  Name = ZINC45755875
REMARK  11 active torsions:
REMARK  status: ('A' for Active; 'I' for Inactive)
REMARK    1  A    between atoms: C_1  and  C_2
REMARK    2  A    between atoms: C_4  and  C_29
REMARK    3  A    between atoms: C_6  and  S_8
REMARK    4  A    between atoms: S_8  and  C_9
REMARK    5  A    between atoms: C_9  and  C_10
REMARK    6  A    between atoms: N_12  and  C_13
REMARK    7  A    between atoms: C_13  and  C_15
REMARK    8  A    between atoms: C_13  and  C_24
REMARK    9  A    between atoms: C_18  and  C_21
REMARK   10  A    between atoms: C_21  and  C_22
REMARK   11  A    between atoms: C_21  and  C_23
REMARK                            x       y       z     vdW  Elec       q    Type
REMARK                         _______ _______ _______ _____ _____    ______ ____
ROOT
ATOM      1  C   UNL     1       0.064  -1.940   7.727  0.00  0.00    +0.140 C 
ENDROOT
BRANCH   1   2
ATOM      2  C   UNL     1      -0.545  -0.972   8.708  0.00  0.00    -0.022 A 
ATOM      3  C   UNL     1      -0.275   0.380   8.602  0.00  0.00    +0.006 A 
ATOM      4  C   UNL     1      -0.834   1.268   9.502  0.00  0.00    +0.004 A 
ATOM      5  C   UNL     1      -1.663   0.805  10.507  0.00  0.00    -0.045 A 
ATOM      6  C   UNL     1      -1.933  -0.547  10.611  0.00  0.00    +0.004 A 
ATOM      7  C   UNL     1      -1.378  -1.435   9.709  0.00  0.00    +0.006 A 
BRANCH   5   8
ATOM      8  C   UNL     1      -2.271   1.773  11.488  0.00  0.00    +0.013 C 
ATOM      9  C   UNL     1      -3.796   1.694  11.404  0.00  0.00    +0.012 C 
ATOM     10  C   UNL     1      -1.819   1.414  12.905  0.00  0.00    +0.012 C 
ENDBRANCH   5   8
ENDBRANCH   1   2
BRANCH   1  11
ATOM     11  C   UNL     1       1.486  -2.237   8.130  0.00  0.00    +0.014 A 
ATOM     12  C   UNL     1       1.979  -3.313   8.790  0.00  0.00    +0.013 A 
ATOM     13  C   UNL     1       3.334  -3.374   9.055  0.00  0.00    +0.008 A 
ATOM     14  C   UNL     1       4.130  -2.355   8.648  0.00  0.00    +0.045 A 
ATOM     15  S   UNL     1       2.958  -1.265   7.857  0.00  0.00    -0.099 S 
ENDBRANCH   1  11
BRANCH   1  18
ATOM     16  C   UNL     1       0.056  -2.148   5.299  0.00  0.00    +0.224 C 
ATOM     17  O   UNL     1       0.073  -3.354   5.431  0.00  0.00    -0.275 OA
ATOM     18  N   UNL     1       0.050  -1.351   6.386  0.00  0.00    -0.303 N 
ATOM     19  H   UNL     1       0.036  -0.387   6.280  0.00  0.00    +0.150 HD
BRANCH  16  20
ATOM     20  C   UNL     1       0.041  -1.542   3.919  0.00  0.00    +0.173 C 
BRANCH  20  21
ATOM     21  S   UNL     1       0.053  -2.864   2.678  0.00  0.00    -0.077 S 
BRANCH  21  27
ATOM     22  C   UNL     1      -0.018   1.503   0.010  0.00  0.00    +0.066 C 
ATOM     23  C   UNL     1       0.002  -0.004   0.002  0.00  0.00    +0.043 A 
ATOM     24  C   UNL     1       0.006  -0.699  -1.198  0.00  0.00    +0.046 A 
ATOM     25  C   UNL     1       0.025  -2.084  -1.161  0.00  0.00    +0.043 A 
ATOM     26  N   UNL     1       0.039  -2.699   0.010  0.00  0.00    -0.227 NA
ATOM     27  C   UNL     1       0.035  -2.005   1.140  0.00  0.00    +0.189 A 
ATOM     28  N   UNL     1       0.022  -0.679   1.139  0.00  0.00    -0.227 NA
ATOM     29  C   UNL     1       0.029  -2.881  -2.440  0.00  0.00    +0.066 C 
ENDBRANCH  21  27
ENDBRANCH  20  21
ENDBRANCH  16  20
ENDBRANCH   1  18
TORSDOF 7
