REMARK  Name = ZINC39413165
REMARK  8 active torsions:
REMARK  status: ('A' for Active; 'I' for Inactive)
REMARK    1  A    between atoms: C_1  and  C_2
REMARK    2  A    between atoms: C_4  and  C_9
REMARK    3  A    between atoms: N_7  and  C_8
REMARK    4  A    between atoms: C_24  and  C_26
REMARK    5  A    between atoms: C_30  and  O_34
REMARK    6  A    between atoms: C_31  and  O_32
REMARK    7  A    between atoms: O_32  and  C_33
REMARK    8  A    between atoms: O_34  and  C_35
REMARK                            x       y       z     vdW  Elec       q    Type
REMARK                         _______ _______ _______ _____ _____    ______ ____
ROOT
ATOM      1  C   UNL     1       1.396  -2.899  -1.054  0.00  0.00    +0.239 C 
ATOM      2  O   UNL     1       2.393  -3.061  -0.383  0.00  0.00    -0.273 OA
ATOM      3  N   UNL     1       1.371  -3.320  -2.334  0.00  0.00    -0.287 N 
ATOM      4  C   UNL     1       0.174  -3.127  -3.168  0.00  0.00    +0.113 C 
ATOM      5  C   UNL     1       0.520  -2.179  -4.323  0.00  0.00    +0.056 C 
ATOM      6  C   UNL     1       1.840  -2.594  -4.920  0.00  0.00    -0.015 A 
ATOM      7  C   UNL     1       2.391  -2.241  -6.212  0.00  0.00    +0.003 A 
ATOM      8  C   UNL     1       1.912  -1.452  -7.263  0.00  0.00    +0.010 A 
ATOM      9  C   UNL     1       2.721  -1.332  -8.367  0.00  0.00    +0.001 A 
ATOM     10  C   UNL     1       3.954  -1.958  -8.447  0.00  0.00    +0.002 A 
ATOM     11  C   UNL     1       4.452  -2.743  -7.422  0.00  0.00    +0.026 A 
ATOM     12  C   UNL     1       3.654  -2.883  -6.289  0.00  0.00    +0.047 A 
ATOM     13  N   UNL     1       3.833  -3.567  -5.122  0.00  0.00    -0.356 N 
ATOM     14  C   UNL     1       2.744  -3.391  -4.310  0.00  0.00    +0.046 A 
ATOM     15  H   UNL     1       4.614  -4.099  -4.901  0.00  0.00    +0.166 HD
ATOM     16  C   UNL     1       2.542  -3.980  -2.936  0.00  0.00    +0.157 C 
ENDROOT
BRANCH   1  20
ATOM     17  C   UNL     1       0.167   1.453   0.248  0.00  0.00    +0.061 C 
ATOM     18  C   UNL     1       0.194  -0.053   0.220  0.00  0.00    +0.017 C 
ATOM     19  C   UNL     1       0.127  -0.774  -0.881  0.00  0.00    +0.022 C 
ATOM     20  C   UNL     1       0.187  -2.226  -0.458  0.00  0.00    +0.183 C 
ATOM     21  N   UNL     1       0.295  -2.172   1.013  0.00  0.00    -0.225 NA
ATOM     22  N   UNL     1       0.299  -0.847   1.345  0.00  0.00    -0.274 N 
ATOM     23  C   UNL     1       0.399  -0.336   2.714  0.00  0.00    +0.149 C 
ATOM     24  H   UNL     1      -0.475  -2.655   1.451  0.00  0.00    +0.146 HD
ENDBRANCH   1  20
BRANCH  16  25
ATOM     25  C   UNL     1       2.292  -5.462  -3.050  0.00  0.00    +0.024 A 
ATOM     26  C   UNL     1       1.219  -5.927  -3.788  0.00  0.00    +0.010 A 
ATOM     27  C   UNL     1       0.987  -7.285  -3.894  0.00  0.00    +0.004 A 
ATOM     28  C   UNL     1       1.827  -8.185  -3.264  0.00  0.00    +0.049 A 
ATOM     29  C   UNL     1       2.904  -7.726  -2.524  0.00  0.00    +0.162 A 
ATOM     30  C   UNL     1       3.141  -6.358  -2.422  0.00  0.00    +0.167 A 
BRANCH  30  31
ATOM     31  O   UNL     1       4.200  -5.902  -1.701  0.00  0.00    -0.491 OA
ATOM     32  C   UNL     1       3.977  -5.642  -0.314  0.00  0.00    +0.277 C 
ENDBRANCH  30  31
BRANCH  29  33
ATOM     33  O   UNL     1       3.731  -8.609  -1.904  0.00  0.00    -0.491 OA
ATOM     34  C   UNL     1       3.430  -9.997  -2.057  0.00  0.00    +0.277 C 
ENDBRANCH  29  33
ENDBRANCH  16  25
TORSDOF 4
