REMARK  Name = ZINC67620601
REMARK  12 active torsions:
REMARK  status: ('A' for Active; 'I' for Inactive)
REMARK    1  A    between atoms: C_1  and  C_2
REMARK    2  A    between atoms: C_2  and  C_3
REMARK    3  A    between atoms: C_3  and  C_5
REMARK    4  A    between atoms: C_3  and  N_15
REMARK    5  A    between atoms: C_10  and  O_11
REMARK    6  A    between atoms: O_11  and  C_12
REMARK    7  A    between atoms: N_18  and  C_19
REMARK    8  A    between atoms: C_19  and  C_20
REMARK    9  A    between atoms: C_20  and  C_22
REMARK   10  A    between atoms: C_20  and  O_30
REMARK   11  A    between atoms: C_22  and  N_23
REMARK   12  A    between atoms: C_26  and  C_29
REMARK                            x       y       z     vdW  Elec       q    Type
REMARK                         _______ _______ _______ _____ _____    ______ ____
ROOT
ATOM      1  N   UNL     1       2.238  -0.288  -1.831  0.00  0.00    -0.292 N 
ATOM      2  C   UNL     1       2.580   0.979  -2.135  0.00  0.00    +0.300 C 
ATOM      3  O   UNL     1       1.738   1.753  -2.549  0.00  0.00    -0.253 OA
ATOM      4  N   UNL     1       3.855   1.389  -1.982  0.00  0.00    -0.297 N 
ATOM      5  H   UNL     1       2.910  -0.906  -1.501  0.00  0.00    +0.151 HD
ATOM      6  H   UNL     1       4.526   0.772  -1.652  0.00  0.00    +0.150 HD
ENDROOT
BRANCH   1   7
ATOM      7  C   UNL     1       0.853  -0.734  -1.997  0.00  0.00    +0.108 C 
BRANCH   7   8
ATOM      8  C   UNL     1       0.826  -2.227  -2.197  0.00  0.00    +0.015 A 
ATOM      9  C   UNL     1       1.852  -3.009  -1.704  0.00  0.00    +0.009 A 
ATOM     10  C   UNL     1       1.828  -4.379  -1.887  0.00  0.00    +0.001 A 
ATOM     11  C   UNL     1       0.777  -4.971  -2.563  0.00  0.00    +0.004 A 
ATOM     12  C   UNL     1      -0.252  -4.193  -3.058  0.00  0.00    +0.046 A 
ATOM     13  C   UNL     1      -0.233  -2.818  -2.871  0.00  0.00    +0.132 A 
BRANCH  13  14
ATOM     14  O   UNL     1      -1.247  -2.052  -3.352  0.00  0.00    -0.434 OA
BRANCH  14  15
ATOM     15  C   UNL     1      -2.304  -2.728  -4.035  0.00  0.00    +0.541 C 
ATOM     16  F   UNL     1      -1.784  -3.404  -5.145  0.00  0.00    -0.166 F 
ATOM     17  F   UNL     1      -2.905  -3.648  -3.170  0.00  0.00    -0.166 F 
ENDBRANCH  14  15
ENDBRANCH  13  14
ENDBRANCH   7   8
BRANCH   7  19
ATOM     18  C   UNL     1      -0.031   1.151  -0.615  0.00  0.00    +0.006 C 
ATOM     19  C   UNL     1       0.047  -0.371  -0.748  0.00  0.00    +0.024 C 
ENDBRANCH   7  19
ENDBRANCH   1   7
BRANCH   4  20
ATOM     20  C   UNL     1       4.226   2.767  -2.313  0.00  0.00    +0.135 C 
BRANCH  20  21
ATOM     21  C   UNL     1       5.720   2.970  -2.051  0.00  0.00    +0.115 C 
BRANCH  21  22
ATOM     22  O   UNL     1       6.476   2.149  -2.943  0.00  0.00    -0.392 OA
ATOM     23  H   UNL     1       6.322   2.340  -3.879  0.00  0.00    +0.210 HD
ENDBRANCH  21  22
BRANCH  21  24
ATOM     24  C   UNL     1       6.083   4.439  -2.277  0.00  0.00    -0.046 C 
BRANCH  24  25
ATOM     25  N   UNL     1       7.514   4.636  -2.013  0.00  0.00    +0.381 N 
ATOM     26  C   UNL     1       7.893   6.006  -2.377  0.00  0.00    -0.078 C 
ATOM     27  C   UNL     1       9.399   6.192  -2.180  0.00  0.00    -0.016 C 
ATOM     28  C   UNL     1       9.752   5.937  -0.712  0.00  0.00    -0.018 C 
ATOM     29  C   UNL     1       9.285   4.531  -0.322  0.00  0.00    -0.016 C 
ATOM     30  C   UNL     1       7.783   4.407  -0.588  0.00  0.00    -0.078 C 
ATOM     31  C   UNL     1      11.267   6.043  -0.523  0.00  0.00    +0.007 C 
ATOM     32  H   UNL     1       8.050   3.983  -2.565  0.00  0.00    -0.082 HD
ENDBRANCH  24  25
ENDBRANCH  21  24
ENDBRANCH  20  21
ENDBRANCH   4  20
TORSDOF 10
