REMARK  Name = ZINC58994102
REMARK  7 active torsions:
REMARK  status: ('A' for Active; 'I' for Inactive)
REMARK    1  A    between atoms: C_3  and  C_8
REMARK    2  A    between atoms: C_8  and  S_9
REMARK    3  A    between atoms: S_9  and  C_10
REMARK    4  A    between atoms: N_16  and  N_17
REMARK    5  A    between atoms: C_18  and  C_19
REMARK    6  A    between atoms: C_22  and  O_26
REMARK    7  A    between atoms: C_24  and  O_25
REMARK                            x       y       z     vdW  Elec       q    Type
REMARK                         _______ _______ _______ _____ _____    ______ ____
ROOT
ATOM      1  C   UNL     1       5.713   3.383   1.506  0.00  0.00    +0.191 A 
ATOM      2  N   UNL     1       6.503   3.837   2.525  0.00  0.00    -0.303 N 
ATOM      3  H   UNL     1       6.334   3.719   3.473  0.00  0.00    +0.171 HD
ATOM      4  C   UNL     1       7.573   4.484   1.973  0.00  0.00    +0.235 A 
ATOM      5  N   UNL     1       7.450   4.432   0.669  0.00  0.00    -0.111 NA
ATOM      6  N   UNL     1       6.274   3.730   0.373  0.00  0.00    -0.121 NA
ATOM      7  N   UNL     1       8.608   5.089   2.671  0.00  0.00    -0.205 N 
ATOM      8  H   UNL     1       8.613   5.075   3.640  0.00  0.00    +0.177 HD
ENDROOT
BRANCH   7   9
ATOM      9  N   UNL     1       9.648   5.720   1.974  0.00  0.00    -0.187 NA
ATOM     10  C   UNL     1      10.617   6.287   2.628  0.00  0.00    +0.142 C 
BRANCH  10  11
ATOM     11  C   UNL     1      11.710   6.950   1.895  0.00  0.00    +0.036 A 
ATOM     12  C   UNL     1      12.756   7.555   2.595  0.00  0.00    +0.016 A 
ATOM     13  C   UNL     1      13.777   8.175   1.907  0.00  0.00    +0.046 A 
ATOM     14  C   UNL     1      13.769   8.200   0.517  0.00  0.00    +0.120 A 
ATOM     15  C   UNL     1      12.734   7.601  -0.187  0.00  0.00    +0.091 A 
ATOM     16  C   UNL     1      11.706   6.971   0.494  0.00  0.00    +0.129 A 
BRANCH  16  17
ATOM     17  O   UNL     1      10.695   6.380  -0.195  0.00  0.00    -0.506 OA
ATOM     18  H   UNL     1       9.950   6.968  -0.381  0.00  0.00    +0.292 HD
ENDBRANCH  16  17
BRANCH  14  19
ATOM     19  O   UNL     1      14.778   8.813  -0.154  0.00  0.00    -0.507 OA
ATOM     20  H   UNL     1      15.521   8.230  -0.365  0.00  0.00    +0.292 HD
ENDBRANCH  14  19
ENDBRANCH  10  11
ENDBRANCH   7   9
BRANCH   1  21
ATOM     21  S   UNL     1       4.208   2.484   1.684  0.00  0.00    -0.081 S 
BRANCH  21  22
ATOM     22  C   UNL     1       3.672   2.183  -0.022  0.00  0.00    +0.112 C 
BRANCH  22  25
ATOM     23  C   UNL     1      -0.017   1.378   0.010  0.00  0.00    +0.001 A 
ATOM     24  C   UNL     1       1.171   2.086   0.002  0.00  0.00    +0.004 A 
ATOM     25  C   UNL     1       2.378   1.411  -0.013  0.00  0.00    -0.036 A 
ATOM     26  C   UNL     1       2.397   0.029  -0.022  0.00  0.00    +0.019 A 
ATOM     27  C   UNL     1       1.210  -0.679  -0.014  0.00  0.00    +0.018 A 
ATOM     28  C   UNL     1       0.002  -0.004   0.002  0.00  0.00    +0.015 A 
ATOM     29 BR   UNL     1       1.236  -2.570  -0.025  0.00  0.00    -0.050 Br
ENDBRANCH  22  25
ENDBRANCH  21  22
ENDBRANCH   1  21
TORSDOF 7
