REMARK  Name = ZINC54361144
REMARK  4 active torsions:
REMARK  status: ('A' for Active; 'I' for Inactive)
REMARK    1  A    between atoms: C_1  and  O_2
REMARK    2  A    between atoms: O_2  and  C_3
REMARK    3  A    between atoms: C_8  and  N_9
REMARK    4  A    between atoms: C_13  and  C_14
REMARK                            x       y       z     vdW  Elec       q    Type
REMARK                         _______ _______ _______ _____ _____    ______ ____
ROOT
ATOM      1  N   UNL     1      -0.302  -2.021   0.385  0.00  0.00    -0.220 N 
ATOM      2  C   UNL     1      -1.442  -2.639   0.126  0.00  0.00    +0.263 C 
ATOM      3  O   UNL     1      -2.123  -2.348  -0.840  0.00  0.00    -0.269 OA
ATOM      4  C   UNL     1      -1.847  -3.703   1.070  0.00  0.00    +0.078 C 
ATOM      5  C   UNL     1      -2.949  -4.495   1.060  0.00  0.00    +0.028 C 
ATOM      6  S   UNL     1      -0.487  -3.658   2.229  0.00  0.00    -0.061 S 
ATOM      7  C   UNL     1       0.452  -2.351   1.454  0.00  0.00    +0.125 C 
ATOM      8  S   UNL     1       1.946  -1.679   1.948  0.00  0.00    -0.027 S 
ENDROOT
BRANCH   5   9
ATOM      9  C   UNL     1      -3.227  -5.381   2.199  0.00  0.00    -0.022 A 
ATOM     10  C   UNL     1      -2.596  -5.148   3.438  0.00  0.00    +0.010 A 
ATOM     11  C   UNL     1      -2.838  -5.953   4.502  0.00  0.00    +0.030 A 
ATOM     12  C   UNL     1      -3.728  -7.037   4.380  0.00  0.00    +0.089 A 
ATOM     13  C   UNL     1      -4.371  -7.283   3.139  0.00  0.00    +0.090 A 
ATOM     14  C   UNL     1      -4.114  -6.438   2.049  0.00  0.00    +0.037 A 
ATOM     15  N   UNL     1      -5.218  -8.313   3.026  0.00  0.00    -0.252 NA
ATOM     16  C   UNL     1      -5.446  -9.086   4.064  0.00  0.00    +0.131 A 
ATOM     17  C   UNL     1      -4.814  -8.843   5.285  0.00  0.00    +0.131 A 
ATOM     18  N   UNL     1      -3.977  -7.839   5.421  0.00  0.00    -0.252 NA
ENDBRANCH   5   9
BRANCH   1  24
ATOM     19  C   UNL     1      -0.233   0.319  -0.237  0.00  0.00    +0.142 A 
ATOM     20  C   UNL     1       0.207   1.321  -1.086  0.00  0.00    +0.047 A 
ATOM     21  C   UNL     1       1.006   1.008  -2.170  0.00  0.00    +0.004 A 
ATOM     22  C   UNL     1       1.369  -0.305  -2.409  0.00  0.00    +0.002 A 
ATOM     23  C   UNL     1       0.934  -1.310  -1.567  0.00  0.00    +0.027 A 
ATOM     24  C   UNL     1       0.136  -1.003  -0.474  0.00  0.00    +0.084 A 
BRANCH  19  26
ATOM     25  C   UNL     1      -1.358   2.002   1.011  0.00  0.00    +0.277 C 
ATOM     26  O   UNL     1      -1.019   0.625   0.829  0.00  0.00    -0.493 OA
ENDBRANCH  19  26
ENDBRANCH   1  24
TORSDOF 3
