REMARK  Name = ZINC59990817
REMARK  8 active torsions:
REMARK  status: ('A' for Active; 'I' for Inactive)
REMARK    1  A    between atoms: C_1  and  C_2
REMARK    2  A    between atoms: N_7  and  C_9
REMARK    3  A    between atoms: C_9  and  C_10
REMARK    4  A    between atoms: C_9  and  C_11
REMARK    5  A    between atoms: C_9  and  C_12
REMARK    6  A    between atoms: C_12  and  N_13
REMARK    7  A    between atoms: C_14  and  C_16
REMARK    8  A    between atoms: C_18  and  N_23
REMARK                            x       y       z     vdW  Elec       q    Type
REMARK                         _______ _______ _______ _____ _____    ______ ____
ROOT
ATOM      1  N   UNL     1      -0.065  -4.403   2.277  0.00  0.00    -0.313 N 
ATOM      2  C   UNL     1      -0.407  -5.702   2.380  0.00  0.00    +0.245 C 
ATOM      3  O   UNL     1       0.432  -6.531   2.675  0.00  0.00    -0.270 OA
ATOM      4  H   UNL     1      -0.734  -3.742   2.042  0.00  0.00    +0.149 HD
ENDROOT
BRANCH   2   5
ATOM      5  C   UNL     1      -1.804  -6.120   2.136  0.00  0.00    +0.052 A 
ATOM      6  C   UNL     1      -2.769  -5.171   1.792  0.00  0.00    +0.046 A 
ATOM      7  C   UNL     1      -4.071  -5.568   1.565  0.00  0.00    +0.127 A 
ATOM      8  C   UNL     1      -4.421  -6.902   1.678  0.00  0.00    +0.034 A 
ATOM      9  C   UNL     1      -3.471  -7.847   2.018  0.00  0.00    +0.017 A 
ATOM     10  C   UNL     1      -2.163  -7.465   2.242  0.00  0.00    +0.026 A 
ATOM     11  I   UNL     1      -0.722  -8.899   2.749  0.00  0.00    -0.043 I 
BRANCH   7  12
ATOM     12  N   UNL     1      -5.095  -4.564   1.201  0.00  0.00    +0.056 N 
ATOM     13  O   UNL     1      -4.791  -3.398   1.102  0.00  0.00    -0.126 OA
ATOM     14  O   UNL     1      -6.237  -4.909   1.002  0.00  0.00    -0.126 OA
ENDBRANCH   7  12
ENDBRANCH   2   5
BRANCH   1  15
ATOM     15  C   UNL     1       1.320  -3.989   2.519  0.00  0.00    +0.092 C 
BRANCH  15  16
ATOM     16  C   UNL     1       1.467  -2.497   2.214  0.00  0.00    -0.055 C 
ATOM     17  C   UNL     1       2.930  -2.083   2.387  0.00  0.00    -0.008 C 
ATOM     18  C   UNL     1       0.591  -1.691   3.175  0.00  0.00    -0.008 C 
BRANCH  16  24
ATOM     19  C   UNL     1       0.868   0.971  -1.189  0.00  0.00    +0.005 C 
ATOM     20  C   UNL     1       0.694  -0.517  -0.879  0.00  0.00    -0.031 C 
ATOM     21  C   UNL     1       1.493  -1.346  -1.889  0.00  0.00    -0.001 C 
ATOM     22  C   UNL     1       1.376  -2.829  -1.523  0.00  0.00    -0.018 C 
ATOM     23  C   UNL     1       1.865  -3.035  -0.088  0.00  0.00    -0.078 C 
ATOM     24  N   UNL     1       1.045  -2.236   0.831  0.00  0.00    +0.384 N 
ATOM     25  C   UNL     1       1.207  -0.808   0.533  0.00  0.00    -0.075 C 
ATOM     26  H   UNL     1       0.075  -2.493   0.724  0.00  0.00    -0.081 HD
ENDBRANCH  16  24
ENDBRANCH  15  16
ENDBRANCH   1  15
TORSDOF 5
