REMARK  Name = ZINC01442276
REMARK  5 active torsions:
REMARK  status: ('A' for Active; 'I' for Inactive)
REMARK    1  A    between atoms: C_4  and  N_7
REMARK    2  A    between atoms: N_10  and  C_11
REMARK    3  A    between atoms: N_10  and  C_17
REMARK    4  A    between atoms: C_11  and  C_12
REMARK    5  A    between atoms: N_22  and  C_25
REMARK                            x       y       z     vdW  Elec       q    Type
REMARK                         _______ _______ _______ _____ _____    ______ ____
ROOT
ATOM      1  N   UNL     1       3.115  -0.805  -0.689  0.00  0.00    -0.269 N 
ATOM      2  C   UNL     1       3.301  -2.106  -0.389  0.00  0.00    +0.307 C 
ATOM      3  O   UNL     1       2.354  -2.868  -0.370  0.00  0.00    -0.252 OA
ATOM      4  N   UNL     1       4.538  -2.563  -0.108  0.00  0.00    -0.269 N 
ATOM      5  H   UNL     1       3.879  -0.214  -0.778  0.00  0.00    +0.156 HD
ENDROOT
BRANCH   4   6
ATOM      6  C   UNL     1       4.740  -3.977   0.218  0.00  0.00    +0.173 C 
ATOM      7  C   UNL     1       4.239  -4.876  -0.930  0.00  0.00    +0.128 C 
ATOM      8  C   UNL     1       3.142  -5.695  -0.287  0.00  0.00    +0.228 C 
ATOM      9  O   UNL     1       2.476  -6.539  -0.846  0.00  0.00    -0.275 OA
ATOM     10  N   UNL     1       3.024  -5.340   0.999  0.00  0.00    -0.209 N 
ATOM     11  C   UNL     1       3.877  -4.381   1.393  0.00  0.00    +0.247 C 
ATOM     12  O   UNL     1       3.945  -3.912   2.509  0.00  0.00    -0.273 OA
BRANCH  10  13
ATOM     13  C   UNL     1       2.088  -5.924   1.865  0.00  0.00    +0.044 A 
ATOM     14  C   UNL     1       0.731  -5.708   1.668  0.00  0.00    +0.025 A 
ATOM     15  C   UNL     1      -0.190  -6.284   2.522  0.00  0.00    +0.022 A 
ATOM     16  C   UNL     1       0.240  -7.075   3.572  0.00  0.00    +0.041 A 
ATOM     17  C   UNL     1       1.593  -7.291   3.771  0.00  0.00    +0.022 A 
ATOM     18  C   UNL     1       2.517  -6.722   2.916  0.00  0.00    +0.025 A 
ATOM     19 CL   UNL     1      -0.919  -7.798   4.644  0.00  0.00    -0.084 Cl
ENDBRANCH  10  13
ENDBRANCH   4   6
BRANCH   1  23
ATOM     20  C   UNL     1      -0.741   0.675  -1.234  0.00  0.00    +0.000 A 
ATOM     21  C   UNL     1      -0.514  -0.340  -0.324  0.00  0.00    +0.002 A 
ATOM     22  C   UNL     1       0.763  -0.833  -0.141  0.00  0.00    +0.023 A 
ATOM     23  C   UNL     1       1.820  -0.308  -0.872  0.00  0.00    +0.035 A 
ATOM     24  C   UNL     1       1.589   0.712  -1.786  0.00  0.00    +0.023 A 
ATOM     25  C   UNL     1       0.310   1.201  -1.964  0.00  0.00    +0.002 A 
ENDBRANCH   1  23
BRANCH   4  26
ATOM     26  C   UNL     1       5.680  -1.645  -0.130  0.00  0.00    +0.152 C 
BRANCH  26  27
ATOM     27  C   UNL     1       5.866  -1.042   1.238  0.00  0.00    +0.007 A 
ATOM     28  C   UNL     1       6.618  -1.491   2.273  0.00  0.00    +0.013 A 
ATOM     29  C   UNL     1       6.639  -0.765   3.450  0.00  0.00    +0.008 A 
ATOM     30  C   UNL     1       5.908   0.373   3.534  0.00  0.00    +0.045 A 
ATOM     31  S   UNL     1       5.160   0.452   1.914  0.00  0.00    -0.100 S 
ENDBRANCH  26  27
ENDBRANCH   4  26
TORSDOF 5
