REMARK  Name = ZINC01817954
REMARK  10 active torsions:
REMARK  status: ('A' for Active; 'I' for Inactive)
REMARK    1  A    between atoms: C_1  and  C_2
REMARK    2  A    between atoms: C_2  and  C_26
REMARK    3  A    between atoms: C_4  and  C_9
REMARK    4  A    between atoms: C_9  and  C_11
REMARK    5  A    between atoms: C_9  and  C_19
REMARK    6  A    between atoms: C_11  and  C_12
REMARK    7  A    between atoms: C_12  and  N_55
REMARK    8  A    between atoms: C_13  and  C_14
REMARK    9  A    between atoms: C_13  and  N_55
REMARK   10  A    between atoms: C_19  and  C_20
REMARK                            x       y       z     vdW  Elec       q    Type
REMARK                         _______ _______ _______ _____ _____    ______ ____
ROOT
ATOM      1  C   UNL     1      -2.915   0.602   1.483  0.00  0.00    -0.005 C 
ENDROOT
BRANCH   1   5
ATOM      2  C   UNL     1      -1.346  -2.783   3.747  0.00  0.00    +0.041 C 
ATOM      3  C   UNL     1      -0.797  -2.494   2.348  0.00  0.00    +0.064 C 
ATOM      4  C   UNL     1      -1.800  -1.635   1.573  0.00  0.00    +0.038 C 
ATOM      5  C   UNL     1      -1.974  -0.294   2.292  0.00  0.00    -0.003 C 
ATOM      6  C   UNL     1      -0.607   0.385   2.421  0.00  0.00    +0.032 C 
ATOM      7  C   UNL     1       0.350  -0.551   3.164  0.00  0.00    +0.161 C 
ATOM      8  O   UNL     1       0.443  -1.792   2.459  0.00  0.00    -0.374 OA
ATOM      9  C   UNL     1      -0.572  -3.812   1.605  0.00  0.00    +0.041 C 
ENDBRANCH   1   5
BRANCH   1  10
ATOM     10  C   UNL     1      -4.326   0.009   1.503  0.00  0.00    -0.015 C 
BRANCH  10  11
ATOM     11  C   UNL     1      -4.877   0.053   2.930  0.00  0.00    -0.082 C 
BRANCH  11  12
ATOM     12  N   UNL     1      -6.188  -0.622   2.962  0.00  0.00    +0.384 N 
ATOM     13  H   UNL     1      -6.075  -1.597   2.662  0.00  0.00    -0.085 HD
ATOM     14  H   UNL     1      -6.833  -0.140   2.325  0.00  0.00    -0.085 HD
BRANCH  12  15
ATOM     15  C   UNL     1      -6.744  -0.595   4.328  0.00  0.00    -0.007 C 
BRANCH  15  16
ATOM     16  C   UNL     1      -8.082  -1.289   4.331  0.00  0.00    +0.088 A 
ATOM     17  C   UNL     1      -8.286  -2.601   4.546  0.00  0.00    +0.042 A 
ATOM     18  C   UNL     1      -9.681  -2.818   4.461  0.00  0.00    +0.041 A 
ATOM     19  C   UNL     1     -10.244  -1.627   4.190  0.00  0.00    +0.195 A 
ATOM     20  O   UNL     1      -9.271  -0.704   4.113  0.00  0.00    -0.470 OA
ENDBRANCH  15  16
ENDBRANCH  12  15
ENDBRANCH  11  12
ENDBRANCH  10  11
ENDBRANCH   1  10
BRANCH   1  21
ATOM     21  C   UNL     1      -2.419   0.689   0.038  0.00  0.00    +0.039 C 
BRANCH  21  22
ATOM     22  C   UNL     1      -1.244   1.629  -0.034  0.00  0.00    -0.047 A 
ATOM     23  C   UNL     1       0.012   1.143  -0.347  0.00  0.00    +0.003 A 
ATOM     24  C   UNL     1       1.089   2.006  -0.419  0.00  0.00    +0.000 A 
ATOM     25  C   UNL     1       0.912   3.355  -0.172  0.00  0.00    +0.000 A 
ATOM     26  C   UNL     1      -0.343   3.840   0.147  0.00  0.00    +0.000 A 
ATOM     27  C   UNL     1      -1.420   2.977   0.219  0.00  0.00    +0.003 A 
ENDBRANCH  21  22
ENDBRANCH   1  21
TORSDOF 8
