REMARK  Name = ZINC06402699
REMARK  5 active torsions:
REMARK  status: ('A' for Active; 'I' for Inactive)
REMARK    1  A    between atoms: C_5  and  C_7
REMARK    2  A    between atoms: C_7  and  C_8
REMARK    3  A    between atoms: C_10  and  C_16
REMARK    4  A    between atoms: C_11  and  O_15
REMARK    5  A    between atoms: N_17  and  C_18
REMARK                            x       y       z     vdW  Elec       q    Type
REMARK                         _______ _______ _______ _____ _____    ______ ____
ROOT
ATOM      1  C   UNL     1       1.373  -2.695   1.389  0.00  0.00    -0.041 A 
ATOM      2  C   UNL     1       2.629  -2.904   1.917  0.00  0.00    +0.017 A 
ATOM      3  C   UNL     1       2.765  -3.376   3.227  0.00  0.00    +0.036 A 
ATOM      4  C   UNL     1       1.619  -3.633   3.994  0.00  0.00    +0.144 A 
ATOM      5  C   UNL     1       0.363  -3.416   3.446  0.00  0.00    +0.083 A 
ATOM      6  C   UNL     1       0.244  -2.944   2.151  0.00  0.00    +0.027 A 
ATOM      7 CL   UNL     1      -1.060  -3.732   4.388  0.00  0.00    -0.080 Cl
ENDROOT
BRANCH   4   8
ATOM      8  O   UNL     1       1.737  -4.092   5.266  0.00  0.00    -0.505 OA
ATOM      9  H   UNL     1       1.785  -3.393   5.933  0.00  0.00    +0.292 HD
ENDBRANCH   4   8
BRANCH   3  10
ATOM     10  C   UNL     1       4.102  -3.602   3.796  0.00  0.00    +0.123 C 
ATOM     11  N   UNL     1       4.224  -4.042   5.017  0.00  0.00    -0.255 NA
BRANCH  11  12
ATOM     12  C   UNL     1       5.468  -4.253   5.547  0.00  0.00    +0.066 A 
ATOM     13  C   UNL     1       6.449  -4.903   4.793  0.00  0.00    +0.030 A 
ATOM     14  C   UNL     1       7.703  -5.116   5.324  0.00  0.00    +0.030 A 
ATOM     15  C   UNL     1       7.995  -4.685   6.611  0.00  0.00    +0.067 A 
ATOM     16  C   UNL     1       7.019  -4.034   7.371  0.00  0.00    +0.069 A 
ATOM     17  C   UNL     1       5.760  -3.813   6.839  0.00  0.00    +0.055 A 
ATOM     18  N   UNL     1       7.602  -3.727   8.599  0.00  0.00    -0.306 N 
ATOM     19  H   UNL     1       7.167  -3.272   9.336  0.00  0.00    +0.170 HD
ATOM     20  C   UNL     1       8.873  -4.171   8.586  0.00  0.00    +0.325 A 
ATOM     21  O   UNL     1       9.662  -4.063   9.506  0.00  0.00    -0.247 OA
ATOM     22  N   UNL     1       9.140  -4.753   7.402  0.00  0.00    -0.306 N 
ATOM     23  H   UNL     1       9.985  -5.152   7.143  0.00  0.00    +0.170 HD
ENDBRANCH  11  12
ENDBRANCH   3  10
BRANCH   1  24
ATOM     24  C   UNL     1       1.229  -2.186  -0.022  0.00  0.00    +0.071 C 
BRANCH  24  29
ATOM     25  C   UNL     1      -0.017   1.378   0.010  0.00  0.00    +0.000 A 
ATOM     26  C   UNL     1       1.171   2.086   0.002  0.00  0.00    +0.001 A 
ATOM     27  C   UNL     1       2.377   1.412  -0.013  0.00  0.00    +0.020 A 
ATOM     28  C   UNL     1       2.397   0.029  -0.021  0.00  0.00    +0.044 A 
ATOM     29  C   UNL     1       1.208  -0.679  -0.013  0.00  0.00    -0.025 A 
ATOM     30  C   UNL     1       0.002  -0.004   0.002  0.00  0.00    +0.005 A 
ATOM     31 CL   UNL     1       3.912  -0.818  -0.041  0.00  0.00    -0.083 Cl
ENDBRANCH  24  29
ENDBRANCH   1  24
TORSDOF 5
