REMARK  Name = ZINC41004786
REMARK  14 active torsions:
REMARK  status: ('A' for Active; 'I' for Inactive)
REMARK    1  A    between atoms: C_1  and  C_2
REMARK    2  A    between atoms: C_2  and  C_3
REMARK    3  A    between atoms: C_3  and  C_4
REMARK    4  A    between atoms: C_4  and  C_5
REMARK    5  A    between atoms: C_5  and  O_6
REMARK    6  A    between atoms: O_6  and  C_7
REMARK    7  A    between atoms: C_10  and  C_15
REMARK    8  A    between atoms: C_12  and  O_13
REMARK    9  A    between atoms: O_13  and  C_14
REMARK   10  A    between atoms: C_17  and  C_29
REMARK   11  A    between atoms: C_18  and  C_28
REMARK   12  A    between atoms: C_23  and  S_25
REMARK   13  A    between atoms: S_25  and  C_26
REMARK   14  A    between atoms: C_26  and  C_27
REMARK                            x       y       z     vdW  Elec       q    Type
REMARK                         _______ _______ _______ _____ _____    ______ ____
ROOT
ATOM      1  C   UNL     1       3.977  -6.373  -6.862  0.00  0.00    +0.177 C 
ATOM      2  C   UNL     1       3.216  -5.882  -8.064  0.00  0.00    +0.060 C 
ATOM      3  C   UNL     1       3.766  -5.110  -9.013  0.00  0.00    +0.018 C 
ATOM      4  N   UNL     1       5.081  -4.715  -8.965  0.00  0.00    -0.287 N 
ATOM      5  C   UNL     1       5.905  -5.349  -8.045  0.00  0.00    +0.219 A 
ATOM      6  N   UNL     1       5.404  -6.132  -7.057  0.00  0.00    -0.220 N 
ATOM      7  N   UNL     1       6.496  -6.609  -6.333  0.00  0.00    -0.141 NA
ATOM      8  C   UNL     1       7.573  -6.103  -6.896  0.00  0.00    +0.210 A 
ATOM      9  N   UNL     1       7.205  -5.338  -7.934  0.00  0.00    -0.187 NA
ATOM     10  C   UNL     1       2.913  -4.661 -10.171  0.00  0.00    +0.061 C 
ATOM     11  H   UNL     1       5.420  -4.021  -9.550  0.00  0.00    +0.155 HD
ENDROOT
BRANCH   1  15
ATOM     12  C   UNL     1       2.643  -4.275  -3.382  0.00  0.00    +0.162 A 
ATOM     13  C   UNL     1       3.196  -3.579  -4.445  0.00  0.00    +0.050 A 
ATOM     14  C   UNL     1       3.627  -4.260  -5.568  0.00  0.00    +0.010 A 
ATOM     15  C   UNL     1       3.507  -5.636  -5.634  0.00  0.00    -0.015 A 
ATOM     16  C   UNL     1       2.956  -6.337  -4.578  0.00  0.00    +0.055 A 
ATOM     17  C   UNL     1       2.528  -5.661  -3.446  0.00  0.00    +0.162 A 
BRANCH  17  18
ATOM     18  O   UNL     1       1.992  -6.349  -2.403  0.00  0.00    -0.491 OA
ATOM     19  C   UNL     1       1.905  -7.769  -2.539  0.00  0.00    +0.277 C 
ENDBRANCH  17  18
BRANCH  12  20
ATOM     20  O   UNL     1       2.220  -3.607  -2.276  0.00  0.00    -0.488 OA
BRANCH  20  21
ATOM     21  C   UNL     1       2.369  -2.186  -2.279  0.00  0.00    +0.229 C 
BRANCH  21  22
ATOM     22  C   UNL     1       1.842  -1.614  -0.962  0.00  0.00    +0.041 C 
BRANCH  22  23
ATOM     23  C   UNL     1       2.002  -0.092  -0.966  0.00  0.00    +0.003 C 
BRANCH  23  25
ATOM     24  C   UNL     1       1.634   2.001   0.347  0.00  0.00    +0.004 C 
ATOM     25  C   UNL     1       1.474   0.479   0.351  0.00  0.00    -0.003 C 
ENDBRANCH  23  25
ENDBRANCH  22  23
ENDBRANCH  21  22
ENDBRANCH  20  21
ENDBRANCH  12  20
ENDBRANCH   1  15
BRANCH   2  26
ATOM     26  C   UNL     1       1.857  -6.253  -8.200  0.00  0.00    +0.241 C 
ATOM     27  O   UNL     1       1.566  -7.388  -8.527  0.00  0.00    -0.271 OA
ATOM     28  N   UNL     1       0.886  -5.348  -7.966  0.00  0.00    -0.325 N 
ATOM     29  H   UNL     1       1.118  -4.443  -7.706  0.00  0.00    +0.145 HD
ATOM     30  H   UNL     1      -0.046  -5.602  -8.059  0.00  0.00    +0.145 HD
ENDBRANCH   2  26
BRANCH   8  31
ATOM     31  S   UNL     1       9.231  -6.386  -6.370  0.00  0.00    -0.085 S 
BRANCH  31  32
ATOM     32  C   UNL     1      10.232  -5.425  -7.537  0.00  0.00    +0.074 C 
ATOM     33  C   UNL     1      11.713  -5.583  -7.190  0.00  0.00    +0.016 C 
ENDBRANCH  31  32
ENDBRANCH   8  31
TORSDOF 10
