REMARK  Name = ZINC43254158
REMARK  5 active torsions:
REMARK  status: ('A' for Active; 'I' for Inactive)
REMARK    1  A    between atoms: C_4  and  C_7
REMARK    2  A    between atoms: C_7  and  N_8
REMARK    3  A    between atoms: C_9  and  C_27
REMARK    4  A    between atoms: N_18  and  C_21
REMARK    5  A    between atoms: C_30  and  O_33
REMARK                            x       y       z     vdW  Elec       q    Type
REMARK                         _______ _______ _______ _____ _____    ______ ____
ROOT
ATOM      1  N   UNL     1       4.153  -0.953   1.342  0.00  0.00    -0.175 NA
ATOM      2  C   UNL     1       5.409  -1.767   1.365  0.00  0.00    +0.130 C 
ATOM      3  C   UNL     1       6.342  -0.959   2.255  0.00  0.00    +0.139 C 
ATOM      4  C   UNL     1       5.800   0.478   1.896  0.00  0.00    +0.241 C 
ATOM      5  O   UNL     1       4.446   0.333   2.048  0.00  0.00    -0.283 OA
ATOM      6  C   UNL     1       6.889   1.316   2.365  0.00  0.00    +0.254 C 
ATOM      7  O   UNL     1       6.809   2.426   2.844  0.00  0.00    -0.272 OA
ATOM      8  N   UNL     1       8.027   0.583   2.152  0.00  0.00    -0.236 N 
ATOM      9  C   UNL     1       7.772  -0.741   1.873  0.00  0.00    +0.230 C 
ATOM     10  O   UNL     1       8.537  -1.560   1.411  0.00  0.00    -0.275 OA
ENDROOT
BRANCH   8  11
ATOM     11  C   UNL     1       9.379   1.144   2.223  0.00  0.00    +0.084 C 
ATOM     12  C   UNL     1       9.622   1.710   3.624  0.00  0.00    +0.023 C 
ATOM     13  C   UNL     1      11.033   2.296   3.699  0.00  0.00    +0.002 C 
ATOM     14  C   UNL     1      11.176   3.415   2.665  0.00  0.00    +0.000 C 
ATOM     15  C   UNL     1      10.932   2.850   1.264  0.00  0.00    +0.002 C 
ATOM     16  C   UNL     1       9.521   2.263   1.190  0.00  0.00    +0.023 C 
ENDBRANCH   8  11
BRANCH   2  17
ATOM     17  C   UNL     1       5.148  -3.127   1.962  0.00  0.00    -0.027 A 
ATOM     18  C   UNL     1       4.284  -3.256   3.034  0.00  0.00    +0.009 A 
ATOM     19  C   UNL     1       4.043  -4.501   3.582  0.00  0.00    +0.046 A 
ATOM     20  C   UNL     1       4.670  -5.622   3.057  0.00  0.00    +0.117 A 
ATOM     21  C   UNL     1       5.536  -5.489   1.982  0.00  0.00    +0.046 A 
ATOM     22  C   UNL     1       5.769  -4.243   1.433  0.00  0.00    +0.009 A 
BRANCH  20  23
ATOM     23  O   UNL     1       4.435  -6.847   3.596  0.00  0.00    -0.507 OA
ATOM     24  H   UNL     1       3.692  -7.318   3.194  0.00  0.00    +0.292 HD
ENDBRANCH  20  23
ENDBRANCH   2  17
BRANCH   1  25
ATOM     25  C   UNL     1       3.711  -0.707  -0.038  0.00  0.00    +0.150 C 
BRANCH  25  29
ATOM     26  C   UNL     1      -0.017   1.378   0.010  0.00  0.00    +0.000 A 
ATOM     27  C   UNL     1       1.171   2.086   0.002  0.00  0.00    +0.000 A 
ATOM     28  C   UNL     1       2.377   1.411  -0.013  0.00  0.00    +0.005 A 
ATOM     29  C   UNL     1       2.396   0.029  -0.020  0.00  0.00    -0.031 A 
ATOM     30  C   UNL     1       1.208  -0.679  -0.012  0.00  0.00    +0.005 A 
ATOM     31  C   UNL     1       0.002  -0.004   0.002  0.00  0.00    +0.000 A 
ENDBRANCH  25  29
ENDBRANCH   1  25
TORSDOF 5
