REMARK  Name = ZINC44900660
REMARK  6 active torsions:
REMARK  status: ('A' for Active; 'I' for Inactive)
REMARK    1  A    between atoms: C_1  and  C_2
REMARK    2  A    between atoms: C_9  and  O_28
REMARK    3  A    between atoms: C_12  and  C_14
REMARK    4  A    between atoms: C_15  and  C_27
REMARK    5  A    between atoms: N_17  and  C_20
REMARK    6  A    between atoms: C_18  and  C_19
REMARK                            x       y       z     vdW  Elec       q    Type
REMARK                         _______ _______ _______ _____ _____    ______ ____
ROOT
ATOM      1  C   UNL     1       0.165   1.519  -0.096  0.00  0.00    +0.068 C 
ATOM      2  C   UNL     1       0.119   0.013  -0.052  0.00  0.00    +0.066 A 
ATOM      3  C   UNL     1      -0.114  -0.830  -1.153  0.00  0.00    +0.036 A 
ATOM      4  C   UNL     1      -0.080  -2.123  -0.703  0.00  0.00    +0.157 A 
ATOM      5  N   UNL     1       0.179  -2.061   0.650  0.00  0.00    -0.260 N 
ATOM      6  H   UNL     1       0.267  -2.821   1.248  0.00  0.00    +0.191 HD
ATOM      7  N   UNL     1       0.296  -0.719   1.011  0.00  0.00    -0.177 NA
ATOM      8  N   UNL     1      -0.254  -3.297  -1.331  0.00  0.00    -0.197 NA
ATOM      9  C   UNL     1      -0.496  -3.676  -2.500  0.00  0.00    +0.199 C 
ATOM     10  C   UNL     1      -0.639  -2.888  -3.742  0.00  0.00    +0.165 C 
ATOM     11  S   UNL     1      -1.479  -1.318  -3.490  0.00  0.00    -0.138 S 
ATOM     12  C   UNL     1      -0.344  -0.302  -2.537  0.00  0.00    +0.116 C 
ENDROOT
BRANCH  12  13
ATOM     13  C   UNL     1      -0.906   1.093  -2.438  0.00  0.00    +0.014 A 
ATOM     14  C   UNL     1      -2.201   1.431  -2.030  0.00  0.00    +0.065 A 
ATOM     15  N   UNL     1      -2.316   2.734  -2.073  0.00  0.00    -0.171 NA
ATOM     16  N   UNL     1      -1.097   3.268  -2.510  0.00  0.00    -0.236 N 
ATOM     17  C   UNL     1      -0.246   2.239  -2.723  0.00  0.00    +0.047 A 
ATOM     18  C   UNL     1       1.181   2.349  -3.195  0.00  0.00    +0.066 C 
ATOM     19  C   UNL     1      -3.277   0.463  -1.614  0.00  0.00    +0.068 C 
BRANCH  16  20
ATOM     20  C   UNL     1      -0.808   4.628  -2.691  0.00  0.00    +0.066 A 
ATOM     21  C   UNL     1      -0.091   5.045  -3.804  0.00  0.00    +0.030 A 
ATOM     22  C   UNL     1       0.191   6.386  -3.980  0.00  0.00    +0.040 A 
ATOM     23  C   UNL     1      -0.240   7.314  -3.047  0.00  0.00    +0.124 A 
ATOM     24  C   UNL     1      -0.956   6.900  -1.936  0.00  0.00    +0.040 A 
ATOM     25  C   UNL     1      -1.245   5.561  -1.759  0.00  0.00    +0.030 A 
ATOM     26  F   UNL     1       0.037   8.624  -3.221  0.00  0.00    -0.205 F 
ENDBRANCH  16  20
ENDBRANCH  12  13
BRANCH   9  27
ATOM     27  O   UNL     1      -0.650  -5.008  -2.649  0.00  0.00    -0.495 OA
ATOM     28  H   UNL     1      -0.554  -5.509  -1.827  0.00  0.00    +0.293 HD
ENDBRANCH   9  27
TORSDOF 3
