REMARK  Name = ZINC06655030
REMARK  7 active torsions:
REMARK  status: ('A' for Active; 'I' for Inactive)
REMARK    1  A    between atoms: C_1  and  C_2
REMARK    2  A    between atoms: C_2  and  N_3
REMARK    3  A    between atoms: C_4  and  C_6
REMARK    4  A    between atoms: C_10  and  N_11
REMARK    5  A    between atoms: C_12  and  C_14
REMARK    6  A    between atoms: C_15  and  C_24
REMARK    7  A    between atoms: C_18  and  C_23
REMARK                            x       y       z     vdW  Elec       q    Type
REMARK                         _______ _______ _______ _____ _____    ______ ____
ROOT
ATOM      1  C   UNL     1       8.736   3.356  -0.070  0.00  0.00    +0.069 A 
ATOM      2  C   UNL     1      10.178   3.178  -0.080  0.00  0.00    -0.023 A 
ATOM      3  C   UNL     1      10.599   1.895  -0.092  0.00  0.00    -0.004 A 
ATOM      4  S   UNL     1       9.114   0.931  -0.082  0.00  0.00    -0.077 S 
ATOM      5  C   UNL     1       7.949   2.212  -0.063  0.00  0.00    +0.085 A 
ATOM      6  C   UNL     1      12.016   1.409  -0.109  0.00  0.00    +0.043 C 
ATOM      7  C   UNL     1      12.926   2.587  -0.490  0.00  0.00    +0.005 C 
ATOM      8  C   UNL     1      12.540   3.802   0.358  0.00  0.00    +0.005 C 
ATOM      9  C   UNL     1      11.174   4.331  -0.083  0.00  0.00    +0.037 C 
ENDROOT
BRANCH   1  11
ATOM     10  N   UNL     1       7.846   5.308  -1.228  0.00  0.00    -0.312 N 
ATOM     11  C   UNL     1       8.134   4.693  -0.064  0.00  0.00    +0.247 C 
ATOM     12  O   UNL     1       7.896   5.248   0.993  0.00  0.00    -0.270 OA
ATOM     13  H   UNL     1       8.037   4.865  -2.070  0.00  0.00    +0.149 HD
BRANCH  10  15
ATOM     14  C   UNL     1       7.021   7.109  -2.662  0.00  0.00    +0.024 C 
ATOM     15  C   UNL     1       7.245   6.644  -1.222  0.00  0.00    +0.101 C 
ENDBRANCH  10  15
ENDBRANCH   1  11
BRANCH   5  16
ATOM     16  N   UNL     1       6.567   2.119  -0.050  0.00  0.00    -0.273 N 
ATOM     17  C   UNL     1       5.973   0.909  -0.050  0.00  0.00    +0.284 C 
ATOM     18  O   UNL     1       6.651  -0.101  -0.062  0.00  0.00    -0.266 OA
ATOM     19  H   UNL     1       6.026   2.924  -0.040  0.00  0.00    +0.156 HD
BRANCH  17  20
ATOM     20  C   UNL     1       4.508   0.810  -0.036  0.00  0.00    +0.194 A 
ATOM     21  C   UNL     1       3.803  -0.352  -0.035  0.00  0.00    +0.008 A 
ATOM     22  C   UNL     1       2.391   0.032  -0.020  0.00  0.00    +0.024 A 
ATOM     23  C   UNL     1       1.189  -0.680  -0.013  0.00  0.00    +0.015 A 
ATOM     24  C   UNL     1       0.002  -0.004   0.002  0.00  0.00    -0.050 A 
ATOM     25  C   UNL     1      -0.017   1.384   0.010  0.00  0.00    +0.007 A 
ATOM     26  C   UNL     1       1.158   2.105   0.002  0.00  0.00    +0.047 A 
ATOM     27  C   UNL     1       2.378   1.439  -0.013  0.00  0.00    +0.136 A 
ATOM     28  O   UNL     1       3.658   1.858  -0.023  0.00  0.00    -0.450 OA
ATOM     29  C   UNL     1      -1.296  -0.770   0.010  0.00  0.00    +0.044 C 
ATOM     30  C   UNL     1       4.362  -1.751  -0.047  0.00  0.00    +0.048 C 
ENDBRANCH  17  20
ENDBRANCH   5  16
TORSDOF 4
