REMARK  Name = ZINC04836005
REMARK  9 active torsions:
REMARK  status: ('A' for Active; 'I' for Inactive)
REMARK    1  A    between atoms: C_1  and  C_2
REMARK    2  A    between atoms: C_2  and  C_3
REMARK    3  A    between atoms: C_3  and  C_4
REMARK    4  A    between atoms: C_4  and  C_5
REMARK    5  A    between atoms: C_9  and  N_26
REMARK    6  A    between atoms: C_10  and  C_25
REMARK    7  A    between atoms: N_13  and  C_14
REMARK    8  A    between atoms: C_14  and  C_15
REMARK    9  A    between atoms: C_18  and  C_21
REMARK                            x       y       z     vdW  Elec       q    Type
REMARK                         _______ _______ _______ _____ _____    ______ ____
ROOT
ATOM      1  C   UNL     1      -0.364  -2.183  -0.006  0.00  0.00    +0.112 A 
ATOM      2  N   UNL     1       0.928  -2.025  -0.018  0.00  0.00    -0.231 NA
ATOM      3  C   UNL     1       1.223  -0.701  -0.013  0.00  0.00    +0.110 A 
ATOM      4  C   UNL     1       2.419   0.024  -0.021  0.00  0.00    +0.056 A 
ATOM      5  C   UNL     1       2.343   1.409  -0.013  0.00  0.00    +0.048 A 
ATOM      6  C   UNL     1       1.095   2.026   0.003  0.00  0.00    +0.061 A 
ATOM      7  N   UNL     1      -0.016   1.319   0.009  0.00  0.00    -0.231 NA
ATOM      8  C   UNL     1       0.002  -0.004   0.002  0.00  0.00    +0.161 A 
ATOM      9  N   UNL     1      -0.983  -0.971   0.006  0.00  0.00    -0.308 N 
ATOM     10  C   UNL     1       1.014   3.530   0.011  0.00  0.00    +0.067 C 
ENDROOT
BRANCH   5  11
ATOM     11  N   UNL     1       3.512   2.180  -0.021  0.00  0.00    -0.357 N 
ATOM     12  H   UNL     1       4.379   1.746  -0.031  0.00  0.00    +0.142 HD
ATOM     13  H   UNL     1       3.454   3.148  -0.015  0.00  0.00    +0.142 HD
ENDBRANCH   5  11
BRANCH   1  14
ATOM     14  C   UNL     1      -1.071  -3.514  -0.007  0.00  0.00    +0.074 C 
BRANCH  14  15
ATOM     15  C   UNL     1      -1.297  -3.972   1.435  0.00  0.00    +0.007 C 
BRANCH  15  17
ATOM     16  C   UNL     1      -2.242  -5.781   2.876  0.00  0.00    +0.004 C 
ATOM     17  C   UNL     1      -2.015  -5.323   1.434  0.00  0.00    -0.003 C 
ENDBRANCH  15  17
ENDBRANCH  14  15
ENDBRANCH   1  14
BRANCH   9  18
ATOM     18  C   UNL     1      -2.429  -0.736   0.021  0.00  0.00    +0.160 C 
BRANCH  18  19
ATOM     19  C   UNL     1      -2.938  -0.649  -1.395  0.00  0.00    -0.028 A 
ATOM     20  C   UNL     1      -2.985   0.574  -2.038  0.00  0.00    +0.006 A 
ATOM     21  C   UNL     1      -3.448   0.653  -3.338  0.00  0.00    +0.013 A 
ATOM     22  C   UNL     1      -3.872  -0.489  -3.992  0.00  0.00    +0.055 A 
ATOM     23  C   UNL     1      -3.830  -1.711  -3.346  0.00  0.00    +0.013 A 
ATOM     24  C   UNL     1      -3.363  -1.791  -2.048  0.00  0.00    +0.006 A 
BRANCH  22  25
ATOM     25  C   UNL     1      -4.381  -0.402  -5.408  0.00  0.00    +0.417 C 
ATOM     26  F   UNL     1      -5.762  -0.178  -5.394  0.00  0.00    -0.166 F 
ATOM     27  F   UNL     1      -3.744   0.654  -6.068  0.00  0.00    -0.166 F 
ATOM     28  F   UNL     1      -4.109  -1.601  -6.076  0.00  0.00    -0.166 F 
ENDBRANCH  22  25
ENDBRANCH  18  19
ENDBRANCH   9  18
TORSDOF 7
