REMARK  Name = ZINC63857545
REMARK  6 active torsions:
REMARK  status: ('A' for Active; 'I' for Inactive)
REMARK    1  A    between atoms: C_1  and  C_2
REMARK    2  A    between atoms: N_11  and  C_12
REMARK    3  A    between atoms: C_12  and  C_13
REMARK    4  A    between atoms: N_15  and  C_16
REMARK    5  A    between atoms: C_16  and  C_17
REMARK    6  A    between atoms: C_17  and  C_18
REMARK                            x       y       z     vdW  Elec       q    Type
REMARK                         _______ _______ _______ _____ _____    ______ ____
ROOT
ATOM      1  C   UNL     1       2.808  -0.462   2.411  0.00  0.00    +0.196 C 
ATOM      2  O   UNL     1       2.196  -1.038   3.284  0.00  0.00    -0.278 OA
ATOM      3  N   UNL     1       4.114  -0.172   2.582  0.00  0.00    -0.317 N 
ATOM      4  H   UNL     1       4.604   0.289   1.883  0.00  0.00    +0.149 HD
ENDROOT
BRANCH   1   5
ATOM      5  C   UNL     1       2.110  -0.069   1.134  0.00  0.00    +0.019 C 
BRANCH   5  15
ATOM      6  C   UNL     1      -0.019   1.526   0.010  0.00  0.00    -0.008 C 
ATOM      7  C   UNL     1       0.002  -0.004   0.002  0.00  0.00    -0.039 C 
ATOM      8  C   UNL     1      -1.428  -0.535   0.020  0.00  0.00    -0.051 A 
ATOM      9  C   UNL     1      -2.474   0.018  -0.714  0.00  0.00    +0.010 A 
ATOM     10  C   UNL     1      -3.714  -0.519  -0.634  0.00  0.00    +0.045 A 
ATOM     11  S   UNL     1      -3.461  -1.867   0.511  0.00  0.00    -0.101 S 
ATOM     12  C   UNL     1      -1.732  -1.616   0.793  0.00  0.00    -0.010 A 
ATOM     13  C   UNL     1      -0.785  -2.380   1.661  0.00  0.00    +0.024 C 
ATOM     14  C   UNL     1       0.643  -1.960   1.272  0.00  0.00    -0.072 C 
ATOM     15  N   UNL     1       0.705  -0.493   1.194  0.00  0.00    +0.390 N 
ATOM     16  H   UNL     1       0.275  -0.100   2.018  0.00  0.00    -0.080 HD
ENDBRANCH   5  15
ENDBRANCH   1   5
BRANCH   3  17
ATOM     17  C   UNL     1       4.792  -0.554   3.823  0.00  0.00    +0.108 C 
BRANCH  17  18
ATOM     18  C   UNL     1       6.255  -0.112   3.760  0.00  0.00    +0.052 C 
BRANCH  18  19
ATOM     19  C   UNL     1       6.954  -0.504   5.037  0.00  0.00    -0.040 C 
ATOM     20  C   UNL     1       7.682  -1.623   5.255  0.00  0.00    -0.001 A 
ATOM     21  C   UNL     1       8.029  -2.766   4.401  0.00  0.00    +0.010 A 
ATOM     22  C   UNL     1       8.792  -3.758   4.912  0.00  0.00    +0.001 A 
ATOM     23  C   UNL     1       9.259  -3.724   6.233  0.00  0.00    +0.002 A 
ATOM     24  C   UNL     1       8.982  -2.708   7.078  0.00  0.00    +0.026 A 
ATOM     25  C   UNL     1       8.188  -1.610   6.646  0.00  0.00    +0.043 A 
ATOM     26  N   UNL     1       7.787  -0.525   7.264  0.00  0.00    -0.380 N 
ATOM     27  C   UNL     1       6.987   0.276   6.332  0.00  0.00    +0.144 C 
ATOM     28  H   UNL     1       7.990  -0.290   8.183  0.00  0.00    +0.160 HD
ENDBRANCH  18  19
ENDBRANCH  17  18
ENDBRANCH   3  17
TORSDOF 5
