REMARK  Name = ZINC15834120
REMARK  8 active torsions:
REMARK  status: ('A' for Active; 'I' for Inactive)
REMARK    1  A    between atoms: C_1  and  C_2
REMARK    2  A    between atoms: C_2  and  O_3
REMARK    3  A    between atoms: O_3  and  C_4
REMARK    4  A    between atoms: C_7  and  C_10
REMARK    5  A    between atoms: C_15  and  C_24
REMARK    6  A    between atoms: C_27  and  C_30
REMARK    7  A    between atoms: N_33  and  C_38
REMARK    8  A    between atoms: N_36  and  C_37
REMARK                            x       y       z     vdW  Elec       q    Type
REMARK                         _______ _______ _______ _____ _____    ______ ____
ROOT
ATOM      1  C   UNL     1      -1.194   2.253   0.037  0.00  0.00    +0.150 C 
ATOM      2  C   UNL     1      -0.013   1.307   0.070  0.00  0.00    +0.073 A 
ATOM      3  C   UNL     1       0.003  -0.017   0.087  0.00  0.00    +0.082 A 
ATOM      4  C   UNL     1       1.431  -0.425   0.080  0.00  0.00    +0.089 A 
ATOM      5  C   UNL     1       2.168   0.733   0.063  0.00  0.00    +0.069 A 
ATOM      6  N   UNL     1       1.294   1.776   0.069  0.00  0.00    -0.306 N 
ATOM      7  C   UNL     1       1.575   3.150   0.091  0.00  0.00    +0.068 A 
ATOM      8  C   UNL     1       2.854   3.631  -0.108  0.00  0.00    +0.028 A 
ATOM      9  C   UNL     1       3.084   4.996  -0.093  0.00  0.00    +0.002 A 
ATOM     10  C   UNL     1       2.038   5.874   0.125  0.00  0.00    +0.002 A 
ATOM     11  C   UNL     1       0.759   5.398   0.342  0.00  0.00    +0.025 A 
ATOM     12  C   UNL     1       0.519   4.033   0.340  0.00  0.00    +0.052 A 
ATOM     13  N   UNL     1      -0.760   3.536   0.613  0.00  0.00    -0.330 N 
ATOM     14  C   UNL     1       1.768  -1.852   0.093  0.00  0.00    +0.266 A 
ATOM     15  O   UNL     1       2.919  -2.248   0.086  0.00  0.00    -0.267 OA
ATOM     16  N   UNL     1       0.709  -2.701   0.114  0.00  0.00    -0.263 N 
ATOM     17  C   UNL     1      -0.566  -2.299   0.122  0.00  0.00    +0.332 A 
ATOM     18  O   UNL     1      -1.421  -3.163   0.143  0.00  0.00    -0.246 OA
ATOM     19  N   UNL     1      -0.984  -1.014   0.110  0.00  0.00    -0.294 N 
ATOM     20  C   UNL     1      -2.409  -0.675   0.120  0.00  0.00    +0.154 C 
ATOM     21  C   UNL     1       0.979  -4.141   0.128  0.00  0.00    +0.157 C 
ATOM     22  H   UNL     1      -1.363   4.039   1.183  0.00  0.00    +0.147 HD
ENDROOT
BRANCH   5  23
ATOM     23  C   UNL     1       3.640   0.830   0.041  0.00  0.00    -0.000 A 
ATOM     24  C   UNL     1       4.368   0.234  -0.992  0.00  0.00    +0.010 A 
ATOM     25  C   UNL     1       5.743   0.333  -1.008  0.00  0.00    +0.004 A 
ATOM     26  C   UNL     1       6.404   1.011   0.001  0.00  0.00    -0.050 A 
ATOM     27  C   UNL     1       5.690   1.600   1.030  0.00  0.00    +0.004 A 
ATOM     28  C   UNL     1       4.314   1.513   1.057  0.00  0.00    +0.010 A 
ATOM     29  C   UNL     1       7.907   1.111  -0.021  0.00  0.00    +0.044 C 
ENDBRANCH   5  23
BRANCH   1  33
ATOM     30  C   UNL     1      -2.469   2.837  -3.999  0.00  0.00    +0.121 A 
ATOM     31  C   UNL     1      -3.151   1.952  -3.176  0.00  0.00    +0.046 A 
ATOM     32  C   UNL     1      -2.736   1.765  -1.872  0.00  0.00    +0.009 A 
ATOM     33  C   UNL     1      -1.643   2.459  -1.386  0.00  0.00    -0.021 A 
ATOM     34  C   UNL     1      -0.966   3.346  -2.203  0.00  0.00    +0.009 A 
ATOM     35  C   UNL     1      -1.372   3.532  -3.510  0.00  0.00    +0.046 A 
BRANCH  30  36
ATOM     36  O   UNL     1      -2.875   3.023  -5.283  0.00  0.00    -0.492 OA
BRANCH  36  38
ATOM     37  C   UNL     1      -2.728   4.025  -7.477  0.00  0.00    +0.048 C 
ATOM     38  C   UNL     1      -2.126   3.949  -6.072  0.00  0.00    +0.225 C 
ENDBRANCH  36  38
ENDBRANCH  30  36
ENDBRANCH   1  33
TORSDOF 4
