REMARK  Name = ZINC19898852
REMARK  11 active torsions:
REMARK  status: ('A' for Active; 'I' for Inactive)
REMARK    1  A    between atoms: C_1  and  C_2
REMARK    2  A    between atoms: C_2  and  O_3
REMARK    3  A    between atoms: O_3  and  C_4
REMARK    4  A    between atoms: C_7  and  C_10
REMARK    5  A    between atoms: N_13  and  C_34
REMARK    6  A    between atoms: C_18  and  N_33
REMARK    7  A    between atoms: C_19  and  C_31
REMARK    8  A    between atoms: C_20  and  C_22
REMARK    9  A    between atoms: C_25  and  O_28
REMARK   10  A    between atoms: O_28  and  C_29
REMARK   11  A    between atoms: C_29  and  C_30
REMARK                            x       y       z     vdW  Elec       q    Type
REMARK                         _______ _______ _______ _____ _____    ______ ____
ROOT
ATOM      1  C   UNL     1      -4.609  -0.665   0.626  0.00  0.00    +0.016 C 
ATOM      2  C   UNL     1      -4.705   0.674   0.715  0.00  0.00    +0.009 C 
ATOM      3  C   UNL     1      -5.981   1.340   1.185  0.00  0.00    +0.123 C 
ATOM      4  N   UNL     1      -6.191   2.521   0.328  0.00  0.00    -0.297 NA
ATOM      5  C   UNL     1      -5.107   3.489   0.506  0.00  0.00    +0.120 C 
ATOM      6  C   UNL     1      -3.759   2.865   0.249  0.00  0.00    -0.001 C 
ATOM      7  C   UNL     1      -3.570   1.549   0.357  0.00  0.00    +0.136 C 
ATOM      8  O   UNL     1      -2.359   0.980   0.138  0.00  0.00    -0.441 OA
ATOM      9  C   UNL     1      -1.243   1.727   0.205  0.00  0.00    +0.199 C 
ATOM     10  C   UNL     1      -1.301   3.077   0.086  0.00  0.00    +0.098 C 
ATOM     11  C   UNL     1      -2.614   3.771  -0.136  0.00  0.00    +0.095 C 
ATOM     12  C   UNL     1      -7.497   3.139   0.594  0.00  0.00    +0.105 C 
ENDROOT
BRANCH   1  16
ATOM     13  C   UNL     1      -7.730  -3.121   2.123  0.00  0.00    +0.121 A 
ATOM     14  C   UNL     1      -6.997  -3.530   1.016  0.00  0.00    +0.046 A 
ATOM     15  C   UNL     1      -5.983  -2.736   0.527  0.00  0.00    +0.011 A 
ATOM     16  C   UNL     1      -5.692  -1.517   1.146  0.00  0.00    -0.024 A 
ATOM     17  C   UNL     1      -6.429  -1.112   2.263  0.00  0.00    +0.011 A 
ATOM     18  C   UNL     1      -7.444  -1.910   2.742  0.00  0.00    +0.046 A 
BRANCH  13  19
ATOM     19  O   UNL     1      -8.728  -3.907   2.603  0.00  0.00    -0.492 OA
BRANCH  19  21
ATOM     20  C   UNL     1     -10.520  -4.439   4.135  0.00  0.00    +0.048 C 
ATOM     21  C   UNL     1      -9.442  -3.426   3.743  0.00  0.00    +0.225 C 
ENDBRANCH  19  21
ENDBRANCH  13  19
ENDBRANCH   1  16
BRANCH  11  22
ATOM     22  C   UNL     1      -2.742   4.145  -1.591  0.00  0.00    -0.035 A 
ATOM     23  C   UNL     1      -2.727   3.159  -2.560  0.00  0.00    +0.008 A 
ATOM     24  C   UNL     1      -2.850   3.499  -3.894  0.00  0.00    +0.046 A 
ATOM     25  C   UNL     1      -2.978   4.831  -4.260  0.00  0.00    +0.121 A 
ATOM     26  C   UNL     1      -2.986   5.818  -3.286  0.00  0.00    +0.046 A 
ATOM     27  C   UNL     1      -2.869   5.473  -1.954  0.00  0.00    +0.008 A 
BRANCH  25  28
ATOM     28  O   UNL     1      -3.093   5.168  -5.572  0.00  0.00    -0.492 OA
BRANCH  28  29
ATOM     29  C   UNL     1      -3.076   4.099  -6.520  0.00  0.00    +0.225 C 
ATOM     30  C   UNL     1      -3.217   4.669  -7.933  0.00  0.00    +0.048 C 
ENDBRANCH  28  29
ENDBRANCH  25  28
ENDBRANCH  11  22
BRANCH   9  31
ATOM     31  N   UNL     1      -0.030   1.115   0.404  0.00  0.00    -0.328 N 
ATOM     32  H   UNL     1       0.887   1.719   0.460  0.00  0.00    +0.145 HD
ATOM     33  H   UNL     1       0.024   0.021   0.506  0.00  0.00    +0.145 HD
ENDBRANCH   9  31
BRANCH  10  34
ATOM     34  C   UNL     1      -0.097   3.847   0.167  0.00  0.00    +0.101 C 
ATOM     35  N   UNL     1       0.858   4.459   0.232  0.00  0.00    -0.191 NA
ENDBRANCH  10  34
TORSDOF 8
