REMARK  Name = ZINC11867356
REMARK  8 active torsions:
REMARK  status: ('A' for Active; 'I' for Inactive)
REMARK    1  A    between atoms: C_1  and  C_2
REMARK    2  A    between atoms: C_6  and  C_32
REMARK    3  A    between atoms: C_10  and  C_31
REMARK    4  A    between atoms: C_15  and  C_16
REMARK    5  A    between atoms: C_16  and  C_17
REMARK    6  A    between atoms: C_22  and  O_30
REMARK    7  A    between atoms: C_35  and  O_38
REMARK    8  A    between atoms: O_38  and  C_39
REMARK                            x       y       z     vdW  Elec       q    Type
REMARK                         _______ _______ _______ _____ _____    ______ ____
ROOT
ATOM      1  C   UNL     1      -0.013   1.086   0.008  0.00  0.00    +0.045 C 
ATOM      2  C   UNL     1      -0.718   1.572   1.248  0.00  0.00    -0.029 A 
ATOM      3  C   UNL     1       0.025   1.826   2.486  0.00  0.00    +0.022 A 
ATOM      4  C   UNL     1       1.404   1.624   2.545  0.00  0.00    +0.024 A 
ATOM      5  C   UNL     1       2.076   1.874   3.731  0.00  0.00    +0.029 A 
ATOM      6  C   UNL     1       3.488   1.774   4.150  0.00  0.00    +0.028 A 
ATOM      7  C   UNL     1       3.518   2.159   5.445  0.00  0.00    +0.204 A 
ATOM      8  O   UNL     1       2.281   2.482   5.859  0.00  0.00    -0.462 OA
ATOM      9  C   UNL     1       1.379   2.328   4.867  0.00  0.00    +0.142 A 
ATOM     10  C   UNL     1       0.007   2.527   4.802  0.00  0.00    +0.035 A 
ATOM     11  C   UNL     1      -0.675   2.281   3.623  0.00  0.00    +0.146 A 
ATOM     12  O   UNL     1      -2.011   2.473   3.553  0.00  0.00    -0.422 OA
ATOM     13  C   UNL     1      -2.695   2.242   2.422  0.00  0.00    +0.341 A 
ATOM     14  O   UNL     1      -3.898   2.430   2.408  0.00  0.00    -0.245 OA
ATOM     15  C   UNL     1      -2.058   1.791   1.247  0.00  0.00    +0.049 A 
ATOM     16  C   UNL     1      -0.741   3.013   6.016  0.00  0.00    +0.051 C 
ENDROOT
BRANCH   6  17
ATOM     17  C   UNL     1       4.638   1.339   3.320  0.00  0.00    -0.014 A 
ATOM     18  C   UNL     1       4.566   0.152   2.594  0.00  0.00    +0.012 A 
ATOM     19  C   UNL     1       5.635  -0.247   1.819  0.00  0.00    +0.046 A 
ATOM     20  C   UNL     1       6.786   0.528   1.770  0.00  0.00    +0.120 A 
ATOM     21  C   UNL     1       6.863   1.708   2.497  0.00  0.00    +0.046 A 
ATOM     22  C   UNL     1       5.795   2.115   3.270  0.00  0.00    +0.012 A 
BRANCH  20  23
ATOM     23  O   UNL     1       7.840   0.129   1.010  0.00  0.00    -0.495 OA
ATOM     24  C   UNL     1       7.693  -1.095   0.289  0.00  0.00    +0.277 C 
ENDBRANCH  20  23
ENDBRANCH   6  17
BRANCH  15  25
ATOM     25  C   UNL     1      -2.862   1.549  -0.004  0.00  0.00    +0.138 C 
BRANCH  25  26
ATOM     26  C   UNL     1      -3.351   0.124  -0.019  0.00  0.00    +0.220 C 
ATOM     27  O   UNL     1      -3.073  -0.622   0.896  0.00  0.00    -0.275 OA
ATOM     28  N   UNL     1      -4.096  -0.322  -1.049  0.00  0.00    -0.301 N 
ATOM     29  C   UNL     1      -4.447   0.571  -2.163  0.00  0.00    +0.110 C 
ATOM     30  C   UNL     1      -5.962   0.556  -2.352  0.00  0.00    +0.054 C 
ATOM     31  C   UNL     1      -6.440  -0.887  -2.532  0.00  0.00    +0.072 C 
ATOM     32  C   UNL     1      -7.955  -0.892  -2.750  0.00  0.00    +0.035 C 
ATOM     33  C   UNL     1      -8.443  -2.331  -2.924  0.00  0.00    +0.003 C 
ATOM     34  C   UNL     1      -8.107  -3.137  -1.667  0.00  0.00    +0.001 C 
ATOM     35  C   UNL     1      -6.593  -3.137  -1.453  0.00  0.00    +0.008 C 
ATOM     36  C   UNL     1      -6.100  -1.698  -1.280  0.00  0.00    +0.038 C 
ATOM     37  C   UNL     1      -4.581  -1.709  -1.079  0.00  0.00    +0.114 C 
BRANCH  31  38
ATOM     38  O   UNL     1      -5.793  -1.468  -3.667  0.00  0.00    -0.388 OA
ATOM     39  H   UNL     1      -5.965  -1.003  -4.498  0.00  0.00    +0.210 HD
ENDBRANCH  31  38
ENDBRANCH  25  26
ENDBRANCH  15  25
TORSDOF 5
