REMARK  Name = ZINC40157925
REMARK  6 active torsions:
REMARK  status: ('A' for Active; 'I' for Inactive)
REMARK    1  A    between atoms: C_3  and  C_23
REMARK    2  A    between atoms: C_5  and  N_7
REMARK    3  A    between atoms: C_8  and  C_10
REMARK    4  A    between atoms: C_10  and  C_11
REMARK    5  A    between atoms: C_23  and  N_24
REMARK    6  A    between atoms: C_28  and  C_30
REMARK                            x       y       z     vdW  Elec       q    Type
REMARK                         _______ _______ _______ _____ _____    ______ ____
ROOT
ATOM      1  C   UNL     1      -0.028   1.373  -0.012  0.00  0.00    +0.002 A 
ATOM      2  C   UNL     1       1.157   2.086  -0.017  0.00  0.00    +0.002 A 
ATOM      3  C   UNL     1       2.368   1.419  -0.023  0.00  0.00    -0.062 A 
ATOM      4  C   UNL     1       2.398   0.038  -0.025  0.00  0.00    +0.025 A 
ATOM      5  C   UNL     1       1.210  -0.681  -0.020  0.00  0.00    +0.034 A 
ATOM      6  C   UNL     1      -0.005  -0.008  -0.013  0.00  0.00    +0.023 A 
ENDROOT
BRANCH   5   7
ATOM      7  N   UNL     1       1.237  -2.080  -0.021  0.00  0.00    -0.285 N 
ATOM      8  C   UNL     1       0.299  -2.773   0.653  0.00  0.00    +0.222 C 
ATOM      9  O   UNL     1      -0.617  -2.187   1.192  0.00  0.00    -0.275 OA
ATOM     10  H   UNL     1       1.932  -2.551  -0.508  0.00  0.00    +0.155 HD
BRANCH   8  11
ATOM     11  C   UNL     1       0.387  -4.275   0.738  0.00  0.00    +0.135 C 
BRANCH  11  12
ATOM     12  C   UNL     1      -0.774  -4.801   1.542  0.00  0.00    +0.007 A 
ATOM     13  C   UNL     1      -0.785  -5.080   2.852  0.00  0.00    +0.200 A 
ATOM     14  O   UNL     1      -1.998  -5.530   3.220  0.00  0.00    -0.463 OA
ATOM     15  C   UNL     1      -2.837  -5.567   2.166  0.00  0.00    +0.135 A 
ATOM     16  C   UNL     1      -2.122  -5.106   1.047  0.00  0.00    +0.024 A 
ATOM     17  C   UNL     1      -2.745  -5.031  -0.196  0.00  0.00    +0.015 A 
ATOM     18  C   UNL     1      -4.066  -5.406  -0.327  0.00  0.00    -0.043 A 
ATOM     19  C   UNL     1      -4.775  -5.857   0.777  0.00  0.00    -0.041 A 
ATOM     20  C   UNL     1      -4.165  -5.942   2.014  0.00  0.00    +0.050 A 
ATOM     21  C   UNL     1      -6.192  -6.201   0.366  0.00  0.00    +0.036 C 
ATOM     22  C   UNL     1      -6.399  -5.503  -0.995  0.00  0.00    +0.009 C 
ATOM     23  C   UNL     1      -4.961  -5.419  -1.548  0.00  0.00    +0.036 C 
ENDBRANCH  11  12
ENDBRANCH   8  11
ENDBRANCH   5   7
BRANCH   3  24
ATOM     24  C   UNL     1       3.657   2.200  -0.029  0.00  0.00    -0.042 C 
BRANCH  24  25
ATOM     25  N   UNL     1       4.083   2.453   1.354  0.00  0.00    +0.390 N 
ATOM     26  C   UNL     1       3.110   3.347   2.018  0.00  0.00    -0.077 C 
ATOM     27  C   UNL     1       3.968   4.249   2.941  0.00  0.00    -0.020 C 
ATOM     28  C   UNL     1       5.237   4.466   2.075  0.00  0.00    -0.008 C 
ATOM     29  C   UNL     1       5.402   3.111   1.354  0.00  0.00    +0.019 C 
ATOM     30  H   UNL     1       4.138   1.581   1.858  0.00  0.00    -0.080 HD
BRANCH  29  31
ATOM     31  C   UNL     1       6.401   2.256   2.091  0.00  0.00    +0.197 C 
ATOM     32  O   UNL     1       6.055   1.198   2.573  0.00  0.00    -0.278 OA
ATOM     33  N   UNL     1       7.678   2.668   2.215  0.00  0.00    -0.331 N 
ATOM     34  H   UNL     1       7.955   3.514   1.829  0.00  0.00    +0.145 HD
ATOM     35  H   UNL     1       8.321   2.118   2.689  0.00  0.00    +0.145 HD
ENDBRANCH  29  31
ENDBRANCH  24  25
ENDBRANCH   3  24
TORSDOF 6
