REMARK  Name = ZINC35521739
REMARK  4 active torsions:
REMARK  status: ('A' for Active; 'I' for Inactive)
REMARK    1  A    between atoms: C_9  and  O_13
REMARK    2  A    between atoms: C_10  and  C_11
REMARK    3  A    between atoms: O_13  and  S_14
REMARK    4  A    between atoms: S_14  and  C_17
REMARK                            x       y       z     vdW  Elec       q    Type
REMARK                         _______ _______ _______ _____ _____    ______ ____
ROOT
ATOM      1  C   UNL     1      -0.016   1.358   0.009  0.00  0.00    +0.001 A 
ATOM      2  C   UNL     1       1.167   2.091   0.002  0.00  0.00    +0.001 A 
ATOM      3  C   UNL     1       2.378   1.463  -0.013  0.00  0.00    +0.009 A 
ATOM      4  C   UNL     1       2.433   0.066  -0.021  0.00  0.00    -0.004 A 
ATOM      5  C   UNL     1       1.232  -0.682  -0.013  0.00  0.00    -0.017 A 
ATOM      6  C   UNL     1       0.002  -0.004   0.002  0.00  0.00    +0.008 A 
ATOM      7  C   UNL     1       1.289  -2.089  -0.020  0.00  0.00    +0.012 A 
ATOM      8  C   UNL     1       2.482  -2.738  -0.034  0.00  0.00    +0.050 A 
ATOM      9  C   UNL     1       3.695  -2.048  -0.042  0.00  0.00    +0.168 A 
ATOM     10  C   UNL     1       3.712  -0.648  -0.036  0.00  0.00    +0.066 A 
ENDROOT
BRANCH  10  11
ATOM     11  C   UNL     1       4.976   0.084  -0.045  0.00  0.00    +0.263 C 
ATOM     12  O   UNL     1       6.028  -0.521  -0.058  0.00  0.00    -0.296 OA
ENDBRANCH  10  11
BRANCH   9  13
ATOM     13  O   UNL     1       4.862  -2.736  -0.055  0.00  0.00    -0.342 OA
BRANCH  13  14
ATOM     14  S   UNL     1       5.383  -3.044  -1.452  0.00  0.00    +0.151 S 
ATOM     15  O   UNL     1       6.479  -3.934  -1.289  0.00  0.00    -0.131 OA
ATOM     16  O   UNL     1       4.249  -3.369  -2.245  0.00  0.00    -0.131 OA
BRANCH  14  17
ATOM     17  C   UNL     1       6.042  -1.546  -2.104  0.00  0.00    +0.128 A 
ATOM     18  C   UNL     1       5.228  -0.685  -2.815  0.00  0.00    +0.031 A 
ATOM     19  C   UNL     1       5.745   0.491  -3.327  0.00  0.00    +0.017 A 
ATOM     20  C   UNL     1       7.077   0.804  -3.128  0.00  0.00    +0.018 A 
ATOM     21  C   UNL     1       7.892  -0.058  -2.417  0.00  0.00    +0.017 A 
ATOM     22  C   UNL     1       7.373  -1.231  -1.901  0.00  0.00    +0.031 A 
ATOM     23 BR   UNL     1       7.785   2.412  -3.828  0.00  0.00    -0.050 Br
ENDBRANCH  14  17
ENDBRANCH  13  14
ENDBRANCH   9  13
TORSDOF 4
