REMARK  Name = ZINC35746550
REMARK  15 active torsions:
REMARK  status: ('A' for Active; 'I' for Inactive)
REMARK    1  A    between atoms: C_1  and  C_2
REMARK    2  A    between atoms: C_2  and  C_3
REMARK    3  A    between atoms: C_2  and  C_4
REMARK    4  A    between atoms: C_4  and  C_5
REMARK    5  A    between atoms: C_5  and  N_6
REMARK    6  A    between atoms: N_6  and  C_7
REMARK    7  A    between atoms: N_6  and  C_27
REMARK    8  A    between atoms: C_7  and  C_8
REMARK    9  A    between atoms: C_14  and  C_19
REMARK   10  A    between atoms: C_24  and  O_25
REMARK   11  A    between atoms: O_25  and  C_26
REMARK   12  A    between atoms: C_27  and  C_28
REMARK   13  A    between atoms: C_28  and  C_30
REMARK   14  A    between atoms: C_28  and  O_37
REMARK   15  A    between atoms: C_30  and  C_31
REMARK                            x       y       z     vdW  Elec       q    Type
REMARK                         _______ _______ _______ _____ _____    ______ ____
ROOT
ATOM      1  C   UNL     1      -3.566  -2.197  -1.175  0.00  0.00    -0.003 C 
ENDROOT
BRANCH   1   2
ATOM      2  C   UNL     1      -5.021  -2.510  -0.937  0.00  0.00    +0.094 A 
ATOM      3  N   UNL     1      -5.942  -2.151  -1.867  0.00  0.00    -0.312 N 
ATOM      4  H   UNL     1      -5.651  -1.696  -2.673  0.00  0.00    +0.170 HD
ATOM      5  C   UNL     1      -7.251  -2.412  -1.694  0.00  0.00    +0.260 A 
ATOM      6  O   UNL     1      -8.065  -2.083  -2.539  0.00  0.00    -0.267 OA
ATOM      7  C   UNL     1      -7.672  -3.084  -0.502  0.00  0.00    +0.080 A 
ATOM      8  C   UNL     1      -9.014  -3.474  -0.088  0.00  0.00    +0.007 A 
ATOM      9  C   UNL     1      -9.171  -4.109   1.099  0.00  0.00    +0.056 A 
ATOM     10  S   UNL     1      -7.509  -4.218   1.732  0.00  0.00    -0.076 S 
ATOM     11  C   UNL     1      -6.650  -3.417   0.402  0.00  0.00    +0.116 A 
ATOM     12  N   UNL     1      -5.374  -3.128   0.158  0.00  0.00    -0.229 NA
BRANCH   8  13
ATOM     13  C   UNL     1     -10.185  -3.183  -0.949  0.00  0.00    +0.025 A 
ATOM     14  C   UNL     1     -11.168  -2.295  -0.517  0.00  0.00    +0.012 A 
ATOM     15  C   UNL     1     -12.256  -2.027  -1.323  0.00  0.00    +0.001 A 
ATOM     16  C   UNL     1     -12.374  -2.636  -2.559  0.00  0.00    +0.004 A 
ATOM     17  C   UNL     1     -11.404  -3.518  -2.998  0.00  0.00    +0.046 A 
ATOM     18  C   UNL     1     -10.304  -3.792  -2.202  0.00  0.00    +0.128 A 
BRANCH  18  19
ATOM     19  O   UNL     1      -9.348  -4.655  -2.635  0.00  0.00    -0.495 OA
ATOM     20  C   UNL     1      -9.537  -5.240  -3.925  0.00  0.00    +0.277 C 
ENDBRANCH  18  19
ENDBRANCH   8  13
ENDBRANCH   1   2
BRANCH   1  21
ATOM     21  N   UNL     1      -2.753  -2.813  -0.117  0.00  0.00    +0.386 N 
ATOM     22  H   UNL     1      -3.110  -2.537   0.785  0.00  0.00    -0.081 HD
BRANCH  21  23
ATOM     23  C   UNL     1      -1.359  -2.369  -0.250  0.00  0.00    -0.078 C 
BRANCH  23  24
ATOM     24  C   UNL     1      -1.277  -0.863   0.008  0.00  0.00    -0.016 C 
BRANCH  24  26
ATOM     25  C   UNL     1       0.265   1.099   0.134  0.00  0.00    +0.007 C 
ATOM     26  C   UNL     1       0.188  -0.423   0.001  0.00  0.00    -0.019 C 
ATOM     27  C   UNL     1       0.922  -1.076   1.174  0.00  0.00    +0.007 C 
ENDBRANCH  24  26
ENDBRANCH  23  24
ENDBRANCH  21  23
BRANCH  21  28
ATOM     28  C   UNL     1      -2.815  -4.275  -0.242  0.00  0.00    -0.046 C 
BRANCH  28  29
ATOM     29  C   UNL     1      -2.072  -4.919   0.931  0.00  0.00    +0.102 C 
BRANCH  29  30
ATOM     30  O   UNL     1      -2.752  -4.614   2.151  0.00  0.00    -0.393 OA
ATOM     31  H   UNL     1      -3.665  -4.932   2.182  0.00  0.00    +0.210 HD
ENDBRANCH  29  30
BRANCH  29  32
ATOM     32  C   UNL     1      -2.029  -6.436   0.737  0.00  0.00    +0.064 C 
BRANCH  32  33
ATOM     33  C   UNL     1      -1.193  -7.058   1.825  0.00  0.00    -0.045 A 
ATOM     34  C   UNL     1       0.167  -7.223   1.643  0.00  0.00    +0.004 A 
ATOM     35  C   UNL     1       0.934  -7.793   2.642  0.00  0.00    +0.000 A 
ATOM     36  C   UNL     1       0.341  -8.199   3.823  0.00  0.00    +0.000 A 
ATOM     37  C   UNL     1      -1.020  -8.033   4.005  0.00  0.00    +0.000 A 
ATOM     38  C   UNL     1      -1.786  -7.459   3.008  0.00  0.00    +0.004 A 
ENDBRANCH  32  33
ENDBRANCH  29  32
ENDBRANCH  28  29
ENDBRANCH  21  28
ENDBRANCH   1  21
TORSDOF 12
