REMARK  Name = ZINC01467277
REMARK  7 active torsions:
REMARK  status: ('A' for Active; 'I' for Inactive)
REMARK    1  A    between atoms: C_1  and  C_2
REMARK    2  A    between atoms: C_2  and  O_3
REMARK    3  A    between atoms: O_3  and  C_4
REMARK    4  A    between atoms: C_4  and  C_6
REMARK    5  A    between atoms: C_7  and  C_22
REMARK    6  A    between atoms: N_8  and  C_21
REMARK    7  A    between atoms: C_12  and  C_14
REMARK                            x       y       z     vdW  Elec       q    Type
REMARK                         _______ _______ _______ _____ _____    ______ ____
ROOT
ATOM      1  C   UNL     1      -2.839  -2.448   0.428  0.00  0.00    +0.078 C 
ATOM      2  C   UNL     1      -2.994  -3.749   0.098  0.00  0.00    +0.021 C 
ATOM      3  N   UNL     1      -4.206  -4.236  -0.297  0.00  0.00    -0.289 N 
ATOM      4  C   UNL     1      -5.313  -3.488  -0.387  0.00  0.00    +0.137 C 
ATOM      5  S   UNL     1      -6.771  -4.226  -0.897  0.00  0.00    -0.018 S 
ATOM      6  N   UNL     1      -5.317  -2.174  -0.091  0.00  0.00    -0.315 N 
ATOM      7  C   UNL     1      -4.058  -1.551   0.352  0.00  0.00    +0.141 C 
ATOM      8  C   UNL     1      -4.301  -5.657  -0.641  0.00  0.00    +0.137 C 
ATOM      9  C   UNL     1      -1.808  -4.677   0.165  0.00  0.00    +0.061 C 
ATOM     10  H   UNL     1      -6.131  -1.651  -0.163  0.00  0.00    +0.149 HD
ENDROOT
BRANCH   7  11
ATOM     11  C   UNL     1      -3.745  -0.422  -0.596  0.00  0.00    -0.023 A 
ATOM     12  C   UNL     1      -3.821  -0.625  -1.961  0.00  0.00    +0.007 A 
ATOM     13  C   UNL     1      -3.538   0.412  -2.830  0.00  0.00    +0.015 A 
ATOM     14  C   UNL     1      -3.170   1.650  -2.334  0.00  0.00    +0.018 A 
ATOM     15  C   UNL     1      -3.089   1.850  -0.968  0.00  0.00    +0.015 A 
ATOM     16  C   UNL     1      -3.377   0.815  -0.099  0.00  0.00    +0.007 A 
ATOM     17 BR   UNL     1      -2.776   3.066  -3.523  0.00  0.00    -0.050 Br
ENDBRANCH   7  11
BRANCH   1  18
ATOM     18  C   UNL     1      -1.583  -1.942   0.838  0.00  0.00    +0.339 C 
ATOM     19  O   UNL     1      -0.632  -2.693   0.949  0.00  0.00    -0.245 OA
BRANCH  18  20
ATOM     20  O   UNL     1      -1.440  -0.627   1.105  0.00  0.00    -0.462 OA
BRANCH  20  22
ATOM     21  C   UNL     1      -0.176   1.323   1.768  0.00  0.00    +0.048 C 
ATOM     22  C   UNL     1      -0.144  -0.186   1.513  0.00  0.00    +0.229 C 
ENDBRANCH  20  22
ENDBRANCH  18  20
ENDBRANCH   1  18
TORSDOF 4
