REMARK  Name = ZINC22432408
REMARK  4 active torsions:
REMARK  status: ('A' for Active; 'I' for Inactive)
REMARK    1  A    between atoms: C_4  and  C_7
REMARK    2  A    between atoms: C_7  and  C_9
REMARK    3  A    between atoms: C_7  and  N_12
REMARK    4  A    between atoms: N_18  and  C_21
REMARK                            x       y       z     vdW  Elec       q    Type
REMARK                         _______ _______ _______ _____ _____    ______ ____
ROOT
ATOM      1  N   UNL     1       3.620  -1.871  -0.921  0.00  0.00    -0.292 N 
ATOM      2  C   UNL     1       4.728  -2.370  -1.505  0.00  0.00    +0.303 C 
ATOM      3  O   UNL     1       5.796  -1.807  -1.363  0.00  0.00    -0.253 OA
ATOM      4  N   UNL     1       4.651  -3.494  -2.244  0.00  0.00    -0.283 N 
ATOM      5  C   UNL     1       3.350  -4.119  -2.524  0.00  0.00    +0.128 C 
ATOM      6  C   UNL     1       3.192  -4.262  -4.043  0.00  0.00    +0.124 C 
ATOM      7  N   UNL     1       4.408  -4.886  -4.585  0.00  0.00    -0.327 N 
ATOM      8  C   UNL     1       5.709  -4.261  -4.305  0.00  0.00    +0.124 C 
ATOM      9  C   UNL     1       5.866  -4.115  -2.791  0.00  0.00    +0.128 C 
ATOM     10  H   UNL     1       2.756  -2.274  -1.097  0.00  0.00    +0.151 HD
ENDROOT
BRANCH   7  11
ATOM     11  C   UNL     1       4.329  -6.046  -5.349  0.00  0.00    +0.033 A 
ATOM     12  C   UNL     1       5.483  -6.707  -5.768  0.00  0.00    +0.040 A 
ATOM     13  C   UNL     1       5.362  -7.854  -6.523  0.00  0.00    +0.084 A 
ATOM     14  N   UNL     1       4.173  -8.327  -6.849  0.00  0.00    -0.367 N 
ATOM     15  C   UNL     1       3.058  -7.731  -6.472  0.00  0.00    +0.084 A 
ATOM     16  C   UNL     1       3.093  -6.582  -5.710  0.00  0.00    +0.040 A 
ATOM     17  H   UNL     1       4.118  -9.136  -7.381  0.00  0.00    +0.165 HD
ENDBRANCH   7  11
BRANCH   1  18
ATOM     18  C   UNL     1       3.722  -0.719  -0.021  0.00  0.00    +0.108 C 
BRANCH  18  22
ATOM     19  C   UNL     1      -0.010   1.357   0.060  0.00  0.00    +0.000 A 
ATOM     20  C   UNL     1       1.176   2.067   0.051  0.00  0.00    +0.000 A 
ATOM     21  C   UNL     1       2.384   1.395   0.025  0.00  0.00    +0.005 A 
ATOM     22  C   UNL     1       2.406   0.013   0.008  0.00  0.00    -0.027 A 
ATOM     23  C   UNL     1       1.220  -0.697   0.018  0.00  0.00    +0.005 A 
ATOM     24  C   UNL     1       0.012  -0.025   0.043  0.00  0.00    +0.000 A 
ENDBRANCH  18  22
BRANCH  18  25
ATOM     25  C   UNL     1       4.069  -1.203   1.388  0.00  0.00    +0.014 C 
ATOM     26  C   UNL     1       5.256  -0.541   2.090  0.00  0.00    +0.006 C 
ATOM     27  C   UNL     1       5.378  -1.974   1.569  0.00  0.00    +0.006 C 
ENDBRANCH  18  25
ENDBRANCH   1  18
TORSDOF 4
