REMARK  Name = ZINC32091745
REMARK  8 active torsions:
REMARK  status: ('A' for Active; 'I' for Inactive)
REMARK    1  A    between atoms: C_1  and  C_2
REMARK    2  A    between atoms: C_2  and  C_3
REMARK    3  A    between atoms: C_2  and  C_4
REMARK    4  A    between atoms: C_4  and  N_5
REMARK    5  A    between atoms: N_23  and  C_24
REMARK    6  A    between atoms: C_24  and  C_25
REMARK    7  A    between atoms: C_24  and  C_26
REMARK    8  A    between atoms: C_24  and  C_27
REMARK                            x       y       z     vdW  Elec       q    Type
REMARK                         _______ _______ _______ _____ _____    ______ ____
ROOT
ATOM      1  N   UNL     1       2.125  -0.091  -1.209  0.00  0.00    -0.270 N 
ATOM      2  C   UNL     1       2.602   1.106  -1.714  0.00  0.00    +0.041 A 
ATOM      3  C   UNL     1       1.909   2.141  -2.345  0.00  0.00    +0.025 A 
ATOM      4  C   UNL     1       2.646   3.240  -2.755  0.00  0.00    +0.022 A 
ATOM      5  C   UNL     1       4.010   3.322  -2.556  0.00  0.00    +0.041 A 
ATOM      6  C   UNL     1       4.713   2.297  -1.929  0.00  0.00    +0.026 A 
ATOM      7  C   UNL     1       3.986   1.200  -1.518  0.00  0.00    -0.005 A 
ATOM      8  C   UNL     1       4.396  -0.060  -0.827  0.00  0.00    +0.112 C 
ATOM      9  C   UNL     1       3.108  -0.837  -0.663  0.00  0.00    +0.235 C 
ATOM     10  O   UNL     1       2.983  -1.925  -0.141  0.00  0.00    -0.274 OA
ATOM     11  C   UNL     1       5.392  -0.854  -1.669  0.00  0.00    +0.122 C 
ATOM     12  C   UNL     1       6.784  -0.305  -1.527  0.00  0.00    +0.220 C 
ATOM     13  O   UNL     1       7.510  -0.287  -2.498  0.00  0.00    -0.275 OA
ATOM     14  N   UNL     1       7.253   0.168  -0.353  0.00  0.00    -0.270 N 
ATOM     15  C   UNL     1       6.356   0.329   0.703  0.00  0.00    +0.128 A 
ATOM     16  C   UNL     1       5.000   0.227   0.519  0.00  0.00    +0.032 A 
ATOM     17  C   UNL     1       4.388   0.431   1.747  0.00  0.00    +0.141 A 
ATOM     18  N   UNL     1       5.324   0.659   2.638  0.00  0.00    -0.177 NA
ATOM     19  N   UNL     1       6.571   0.608   1.996  0.00  0.00    -0.245 N 
ATOM     20 CL   UNL     1       4.866   4.731  -3.099  0.00  0.00    -0.084 Cl
ATOM     21  H   UNL     1       8.190   0.391  -0.246  0.00  0.00    +0.156 HD
ENDROOT
BRANCH  19  22
ATOM     22  C   UNL     1       7.876   0.820   2.627  0.00  0.00    +0.057 C 
ATOM     23  C   UNL     1       8.578   2.005   1.962  0.00  0.00    +0.036 C 
ATOM     24  C   UNL     1       7.681   1.113   4.116  0.00  0.00    +0.036 C 
ATOM     25  C   UNL     1       8.732  -0.438   2.463  0.00  0.00    +0.036 C 
ENDBRANCH  19  22
BRANCH   1  26
ATOM     26  C   UNL     1       0.718  -0.497  -1.257  0.00  0.00    +0.116 C 
BRANCH  26  28
ATOM     27  C   UNL     1      -0.019   1.526   0.010  0.00  0.00    +0.009 C 
ATOM     28  C   UNL     1       0.002  -0.004   0.002  0.00  0.00    +0.001 C 
ATOM     29  C   UNL     1      -1.433  -0.534   0.013  0.00  0.00    +0.009 C 
ENDBRANCH  26  28
ENDBRANCH   1  26
TORSDOF 3
