REMARK  Name = ZINC53909511
REMARK  3 active torsions:
REMARK  status: ('A' for Active; 'I' for Inactive)
REMARK    1  A    between atoms: C_3  and  C_6
REMARK    2  A    between atoms: C_6  and  C_8
REMARK    3  A    between atoms: C_6  and  N_18
REMARK                            x       y       z     vdW  Elec       q    Type
REMARK                         _______ _______ _______ _____ _____    ______ ____
ROOT
ATOM      1  C   UNL     1       3.762   1.846  -0.024  0.00  0.00    +0.142 C 
ENDROOT
BRANCH   1   2
ATOM      2  C   UNL     1       4.332   1.776   1.369  0.00  0.00    -0.022 A 
ATOM      3  C   UNL     1       4.808   0.576   1.864  0.00  0.00    +0.006 A 
ATOM      4  C   UNL     1       5.326   0.519   3.141  0.00  0.00    +0.004 A 
ATOM      5  C   UNL     1       5.374   1.658   3.935  0.00  0.00    -0.044 A 
ATOM      6  C   UNL     1       4.904   2.854   3.441  0.00  0.00    -0.044 A 
ATOM      7  C   UNL     1       4.385   2.909   2.153  0.00  0.00    +0.009 A 
ATOM      8  C   UNL     1       4.939   4.131   4.239  0.00  0.00    +0.035 C 
ATOM      9  C   UNL     1       5.126   3.831   5.724  0.00  0.00    +0.005 C 
ATOM     10  C   UNL     1       6.327   2.891   5.882  0.00  0.00    +0.005 C 
ATOM     11  C   UNL     1       5.944   1.522   5.322  0.00  0.00    +0.035 C 
ENDBRANCH   1   2
BRANCH   1  12
ATOM     12  N   UNL     1       4.569   1.019  -0.924  0.00  0.00    -0.288 N 
ATOM     13  C   UNL     1       4.598   1.290  -2.244  0.00  0.00    +0.303 C 
ATOM     14  O   UNL     1       3.884   2.162  -2.702  0.00  0.00    -0.253 OA
ATOM     15  N   UNL     1       5.419   0.596  -3.057  0.00  0.00    -0.281 N 
ATOM     16  C   UNL     1       5.554   0.949  -4.479  0.00  0.00    +0.137 C 
ATOM     17  C   UNL     1       7.046   1.075  -4.807  0.00  0.00    +0.179 C 
ATOM     18  O   UNL     1       7.723  -0.109  -4.380  0.00  0.00    -0.377 OA
ATOM     19  C   UNL     1       7.667  -0.340  -2.970  0.00  0.00    +0.179 C 
ATOM     20  C   UNL     1       6.211  -0.534  -2.547  0.00  0.00    +0.137 C 
ATOM     21  H   UNL     1       5.083   0.276  -0.570  0.00  0.00    +0.151 HD
ENDBRANCH   1  12
BRANCH   1  24
ATOM     22  C   UNL     1      -0.016   1.358   0.010  0.00  0.00    +0.008 A 
ATOM     23  C   UNL     1       1.185   2.043   0.003  0.00  0.00    +0.013 A 
ATOM     24  C   UNL     1       2.343   1.339  -0.013  0.00  0.00    +0.014 A 
ATOM     25  S   UNL     1       1.752  -0.346  -0.016  0.00  0.00    -0.099 S 
ATOM     26  C   UNL     1       0.001   0.003   0.003  0.00  0.00    +0.045 A 
ENDBRANCH   1  24
TORSDOF 3
