REMARK  Name = ZINC16599022
REMARK  9 active torsions:
REMARK  status: ('A' for Active; 'I' for Inactive)
REMARK    1  A    between atoms: C_1  and  C_2
REMARK    2  A    between atoms: C_9  and  C_19
REMARK    3  A    between atoms: C_12  and  C_13
REMARK    4  A    between atoms: N_21  and  C_22
REMARK    5  A    between atoms: C_22  and  C_23
REMARK    6  A    between atoms: C_23  and  C_25
REMARK    7  A    between atoms: C_23  and  N_31
REMARK    8  A    between atoms: N_31  and  C_32
REMARK    9  A    between atoms: N_31  and  C_33
REMARK                            x       y       z     vdW  Elec       q    Type
REMARK                         _______ _______ _______ _____ _____    ______ ____
ROOT
ATOM      1  C   UNL     1      -2.784  -0.193  -1.235  0.00  0.00    +0.051 C 
ATOM      2  C   UNL     1      -2.136  -1.543  -1.070  0.00  0.00    +0.040 A 
ATOM      3  C   UNL     1      -2.128  -2.466  -2.143  0.00  0.00    +0.196 A 
ATOM      4  O   UNL     1      -2.639  -2.194  -3.217  0.00  0.00    -0.287 OA
ATOM      5  C   UNL     1      -1.475  -3.769  -1.911  0.00  0.00    +0.065 A 
ATOM      6  C   UNL     1      -1.419  -4.739  -2.911  0.00  0.00    +0.015 A 
ATOM      7  C   UNL     1      -0.800  -5.948  -2.663  0.00  0.00    +0.002 A 
ATOM      8  C   UNL     1      -0.235  -6.206  -1.428  0.00  0.00    +0.017 A 
ATOM      9  C   UNL     1      -0.280  -5.250  -0.414  0.00  0.00    +0.080 A 
ATOM     10  C   UNL     1      -0.905  -4.016  -0.653  0.00  0.00    +0.151 A 
ATOM     11  O   UNL     1      -0.964  -3.074   0.306  0.00  0.00    -0.454 OA
ATOM     12  C   UNL     1      -1.549  -1.883   0.109  0.00  0.00    +0.142 A 
ENDROOT
BRANCH  12  13
ATOM     13  C   UNL     1      -1.562  -0.905   1.216  0.00  0.00    +0.018 A 
ATOM     14  C   UNL     1      -1.965  -1.298   2.494  0.00  0.00    +0.011 A 
ATOM     15  C   UNL     1      -1.975  -0.379   3.523  0.00  0.00    +0.001 A 
ATOM     16  C   UNL     1      -1.586   0.928   3.291  0.00  0.00    +0.000 A 
ATOM     17  C   UNL     1      -1.186   1.324   2.027  0.00  0.00    +0.001 A 
ATOM     18  C   UNL     1      -1.165   0.415   0.990  0.00  0.00    +0.011 A 
ENDBRANCH  12  13
BRANCH   9  19
ATOM     19  C   UNL     1       0.325  -5.532   0.901  0.00  0.00    +0.248 C 
ATOM     20  O   UNL     1       0.283  -4.695   1.782  0.00  0.00    -0.270 OA
ATOM     21  N   UNL     1       0.924  -6.718   1.127  0.00  0.00    -0.312 N 
ATOM     22  H   UNL     1       0.958  -7.386   0.424  0.00  0.00    +0.149 HD
BRANCH  21  23
ATOM     23  C   UNL     1       1.526  -6.999   2.433  0.00  0.00    +0.094 C 
BRANCH  23  24
ATOM     24  C   UNL     1       2.255  -8.343   2.380  0.00  0.00    -0.021 C 
BRANCH  24  25
ATOM     25  C   UNL     1       3.426  -8.242   1.437  0.00  0.00    -0.059 A 
ATOM     26  C   UNL     1       4.607  -7.662   1.861  0.00  0.00    +0.002 A 
ATOM     27  C   UNL     1       5.682  -7.570   0.996  0.00  0.00    +0.000 A 
ATOM     28  C   UNL     1       5.575  -8.057  -0.293  0.00  0.00    +0.000 A 
ATOM     29  C   UNL     1       4.394  -8.638  -0.717  0.00  0.00    +0.000 A 
ATOM     30  C   UNL     1       3.321  -8.734   0.150  0.00  0.00    +0.002 A 
ENDBRANCH  24  25
BRANCH  24  31
ATOM     31  N   UNL     1       2.737  -8.691   3.724  0.00  0.00    +0.382 N 
ATOM     32  C   UNL     1       1.598  -8.762   4.649  0.00  0.00    -0.096 C 
ATOM     33  C   UNL     1       3.413  -9.995   3.679  0.00  0.00    -0.096 C 
ATOM     34  H   UNL     1       3.385  -7.987   4.042  0.00  0.00    -0.082 HD
ENDBRANCH  24  31
ENDBRANCH  23  24
ENDBRANCH  21  23
ENDBRANCH   9  19
TORSDOF 6
