REMARK  Name = ZINC13122862
REMARK  11 active torsions:
REMARK  status: ('A' for Active; 'I' for Inactive)
REMARK    1  A    between atoms: C_1  and  C_2
REMARK    2  A    between atoms: C_2  and  C_3
REMARK    3  A    between atoms: C_2  and  C_4
REMARK    4  A    between atoms: C_10  and  N_15
REMARK    5  A    between atoms: C_11  and  O_14
REMARK    6  A    between atoms: N_16  and  C_17
REMARK    7  A    between atoms: C_17  and  C_19
REMARK    8  A    between atoms: C_22  and  C_25
REMARK    9  A    between atoms: C_25  and  S_26
REMARK   10  A    between atoms: S_26  and  C_27
REMARK   11  A    between atoms: N_31  and  C_32
REMARK                            x       y       z     vdW  Elec       q    Type
REMARK                         _______ _______ _______ _____ _____    ______ ____
ROOT
ATOM      1  N   UNL     1      -3.530  -3.199  -3.069  0.00  0.00    -0.151 NA
ATOM      2  N   UNL     1      -4.334  -3.927  -3.768  0.00  0.00    -0.075 NA
ENDROOT
BRANCH   1   9
ATOM      3  C   UNL     1      -1.412  -0.526   0.013  0.00  0.00    -0.044 A 
ATOM      4  C   UNL     1      -2.260  -0.202   1.060  0.00  0.00    +0.006 A 
ATOM      5  C   UNL     1      -3.557  -0.671   1.085  0.00  0.00    +0.026 A 
ATOM      6  C   UNL     1      -4.024  -1.476   0.053  0.00  0.00    +0.051 A 
ATOM      7  C   UNL     1      -3.164  -1.802  -1.006  0.00  0.00    +0.031 A 
ATOM      8  C   UNL     1      -1.860  -1.319  -1.023  0.00  0.00    +0.016 A 
ATOM      9  C   UNL     1      -3.948  -2.656  -1.923  0.00  0.00    +0.152 A 
ATOM     10  C   UNL     1      -5.218  -2.778  -1.347  0.00  0.00    +0.219 A 
ATOM     11  N   UNL     1      -5.248  -2.080  -0.186  0.00  0.00    -0.324 N 
ATOM     12  H   UNL     1      -6.020  -2.011   0.397  0.00  0.00    +0.169 HD
BRANCH   3  14
ATOM     13  C   UNL     1      -0.019   1.526   0.010  0.00  0.00    +0.012 C 
ATOM     14  C   UNL     1       0.002  -0.004   0.002  0.00  0.00    +0.013 C 
ATOM     15  C   UNL     1       0.742  -0.511   1.242  0.00  0.00    +0.012 C 
ENDBRANCH   3  14
BRANCH  10  16
ATOM     16  O   UNL     1      -6.248  -3.480  -1.864  0.00  0.00    -0.492 OA
ATOM     17  H   UNL     1      -6.279  -4.402  -1.575  0.00  0.00    +0.294 HD
ENDBRANCH  10  16
ENDBRANCH   1   9
BRANCH   2  18
ATOM     18  C   UNL     1      -3.912  -4.476  -4.925  0.00  0.00    +0.285 C 
ATOM     19  O   UNL     1      -2.773  -4.285  -5.310  0.00  0.00    -0.267 OA
BRANCH  18  20
ATOM     20  C   UNL     1      -4.833  -5.311  -5.727  0.00  0.00    +0.040 A 
ATOM     21  C   UNL     1      -6.142  -5.527  -5.291  0.00  0.00    +0.013 A 
ATOM     22  C   UNL     1      -6.996  -6.306  -6.044  0.00  0.00    +0.005 A 
ATOM     23  C   UNL     1      -6.558  -6.873  -7.228  0.00  0.00    -0.037 A 
ATOM     24  C   UNL     1      -5.262  -6.662  -7.665  0.00  0.00    +0.005 A 
ATOM     25  C   UNL     1      -4.399  -5.881  -6.925  0.00  0.00    +0.013 A 
BRANCH  23  26
ATOM     26  C   UNL     1      -7.496  -7.723  -8.045  0.00  0.00    +0.112 C 
BRANCH  26  27
ATOM     27  S   UNL     1      -8.388  -6.675  -9.227  0.00  0.00    -0.081 S 
BRANCH  27  28
ATOM     28  C   UNL     1      -9.430  -7.801 -10.094  0.00  0.00    +0.191 A 
ATOM     29  N   UNL     1      -9.516  -9.096  -9.895  0.00  0.00    -0.123 NA
ATOM     30  N   UNL     1     -10.375  -9.606 -10.704  0.00  0.00    -0.137 NA
ATOM     31  C   UNL     1     -10.883  -8.675 -11.461  0.00  0.00    +0.225 A 
ATOM     32  N   UNL     1     -10.304  -7.492 -11.096  0.00  0.00    -0.312 N 
ATOM     33  C   UNL     1     -10.564  -6.167 -11.665  0.00  0.00    +0.152 C 
ENDBRANCH  27  28
ENDBRANCH  26  27
ENDBRANCH  23  26
ENDBRANCH  18  20
ENDBRANCH   2  18
TORSDOF 8
