REMARK  Name = ZINC33633121
REMARK  6 active torsions:
REMARK  status: ('A' for Active; 'I' for Inactive)
REMARK    1  A    between atoms: C_1  and  C_2
REMARK    2  A    between atoms: C_5  and  O_33
REMARK    3  A    between atoms: C_15  and  C_18
REMARK    4  A    between atoms: C_21  and  S_24
REMARK    5  A    between atoms: S_24  and  N_27
REMARK    6  A    between atoms: O_33  and  C_34
REMARK                            x       y       z     vdW  Elec       q    Type
REMARK                         _______ _______ _______ _____ _____    ______ ____
ROOT
ATOM      1  C   UNL     1      -0.415  -2.693  -0.272  0.00  0.00    +0.044 C 
ATOM      2  C   UNL     1       0.997  -2.781  -0.790  0.00  0.00    -0.045 A 
ATOM      3  C   UNL     1       1.525  -4.011  -1.135  0.00  0.00    +0.007 A 
ATOM      4  C   UNL     1       2.821  -4.091  -1.610  0.00  0.00    +0.048 A 
ATOM      5  C   UNL     1       3.582  -2.946  -1.747  0.00  0.00    +0.141 A 
ATOM      6  C   UNL     1       3.057  -1.693  -1.408  0.00  0.00    +0.074 A 
ATOM      7  C   UNL     1       1.768  -1.629  -0.902  0.00  0.00    -0.013 A 
ATOM      8  C   UNL     1       1.218  -0.305  -0.539  0.00  0.00    +0.049 C 
ATOM      9  C   UNL     1      -0.229   0.012  -0.630  0.00  0.00    -0.023 C 
ATOM     10  C   UNL     1      -0.360   1.301  -0.926  0.00  0.00    -0.030 C 
ATOM     11  C   UNL     1       1.020   1.941  -1.094  0.00  0.00    +0.033 C 
ATOM     12  C   UNL     1       1.868   0.733  -1.506  0.00  0.00    +0.029 C 
ATOM     13  C   UNL     1       3.340   0.718  -1.148  0.00  0.00    +0.105 C 
ATOM     14  N   UNL     1       3.879  -0.579  -1.588  0.00  0.00    -0.334 N 
ATOM     15  H   UNL     1       4.883  -0.635  -2.033  0.00  0.00    +0.147 HD
ENDROOT
BRANCH  13  16
ATOM     16  C   UNL     1       4.053   1.840  -1.857  0.00  0.00    -0.027 A 
ATOM     17  C   UNL     1       4.421   1.696  -3.182  0.00  0.00    +0.007 A 
ATOM     18  C   UNL     1       5.071   2.727  -3.834  0.00  0.00    +0.029 A 
ATOM     19  C   UNL     1       5.361   3.898  -3.159  0.00  0.00    +0.105 A 
ATOM     20  C   UNL     1       4.997   4.040  -1.833  0.00  0.00    +0.029 A 
ATOM     21  C   UNL     1       4.343   3.011  -1.182  0.00  0.00    +0.007 A 
BRANCH  19  22
ATOM     22  S   UNL     1       6.195   5.210  -3.989  0.00  0.00    +0.061 S 
ATOM     23  O   UNL     1       5.940   5.040  -5.377  0.00  0.00    -0.153 OA
ATOM     24  O   UNL     1       5.863   6.405  -3.295  0.00  0.00    -0.153 OA
BRANCH  22  25
ATOM     25  N   UNL     1       7.819   4.972  -3.773  0.00  0.00    -0.172 NA
ATOM     26  C   UNL     1       8.525   5.560  -2.623  0.00  0.00    +0.137 C 
ATOM     27  C   UNL     1       9.332   4.447  -1.937  0.00  0.00    +0.177 C 
ATOM     28  O   UNL     1      10.146   3.789  -2.911  0.00  0.00    -0.377 OA
ATOM     29  C   UNL     1       9.407   3.131  -3.942  0.00  0.00    +0.177 C 
ATOM     30  C   UNL     1       8.601   4.172  -4.729  0.00  0.00    +0.137 C 
ENDBRANCH  22  25
ENDBRANCH  19  22
ENDBRANCH  13  16
BRANCH   5  31
ATOM     31  O   UNL     1       4.855  -3.037  -2.216  0.00  0.00    -0.493 OA
ATOM     32  C   UNL     1       5.334  -4.343  -2.545  0.00  0.00    +0.277 C 
ENDBRANCH   5  31
TORSDOF 4
