REMARK  Name = ZINC39983664
REMARK  9 active torsions:
REMARK  status: ('A' for Active; 'I' for Inactive)
REMARK    1  A    between atoms: C_1  and  C_2
REMARK    2  A    between atoms: N_8  and  C_23
REMARK    3  A    between atoms: C_9  and  C_17
REMARK    4  A    between atoms: C_10  and  C_11
REMARK    5  A    between atoms: C_23  and  C_24
REMARK    6  A    between atoms: C_24  and  C_25
REMARK    7  A    between atoms: N_27  and  N_28
REMARK    8  A    between atoms: C_29  and  C_30
REMARK    9  A    between atoms: C_35  and  O_36
REMARK                            x       y       z     vdW  Elec       q    Type
REMARK                         _______ _______ _______ _____ _____    ______ ____
ROOT
ATOM      1  C   UNL     1      -0.185   1.497   0.013  0.00  0.00    +0.046 C 
ATOM      2  C   UNL     1       0.032   0.005   0.009  0.00  0.00    -0.026 A 
ATOM      3  C   UNL     1       0.244  -0.658  -1.181  0.00  0.00    +0.005 A 
ATOM      4  C   UNL     1       0.445  -2.031  -1.199  0.00  0.00    +0.001 A 
ATOM      5  C   UNL     1       0.436  -2.748  -0.035  0.00  0.00    +0.010 A 
ATOM      6  C   UNL     1       0.224  -2.096   1.180  0.00  0.00    +0.008 A 
ATOM      7  C   UNL     1       0.025  -0.704   1.206  0.00  0.00    +0.053 A 
ATOM      8  N   UNL     1      -0.150  -0.327   2.520  0.00  0.00    -0.339 N 
ATOM      9  C   UNL     1      -0.066  -1.424   3.342  0.00  0.00    +0.058 A 
ATOM     10  C   UNL     1       0.154  -2.550   2.576  0.00  0.00    +0.015 A 
ENDROOT
BRANCH  10  11
ATOM     11  C   UNL     1       0.306  -3.938   3.066  0.00  0.00    -0.015 A 
ATOM     12  C   UNL     1      -0.646  -4.904   2.740  0.00  0.00    +0.008 A 
ATOM     13  C   UNL     1      -0.498  -6.197   3.199  0.00  0.00    +0.001 A 
ATOM     14  C   UNL     1       0.592  -6.536   3.981  0.00  0.00    +0.000 A 
ATOM     15  C   UNL     1       1.540  -5.582   4.308  0.00  0.00    +0.001 A 
ATOM     16  C   UNL     1       1.407  -4.287   3.850  0.00  0.00    +0.008 A 
ENDBRANCH  10  11
BRANCH   9  17
ATOM     17  C   UNL     1      -0.205  -1.404   4.812  0.00  0.00    -0.001 A 
ATOM     18  C   UNL     1       0.601  -0.560   5.581  0.00  0.00    +0.010 A 
ATOM     19  C   UNL     1       0.466  -0.546   6.954  0.00  0.00    +0.001 A 
ATOM     20  C   UNL     1      -0.464  -1.365   7.569  0.00  0.00    +0.000 A 
ATOM     21  C   UNL     1      -1.265  -2.203   6.814  0.00  0.00    +0.001 A 
ATOM     22  C   UNL     1      -1.145  -2.223   5.440  0.00  0.00    +0.010 A 
ENDBRANCH   9  17
BRANCH   8  23
ATOM     23  C   UNL     1      -0.391   1.045   2.974  0.00  0.00    +0.131 C 
BRANCH  23  24
ATOM     24  C   UNL     1      -1.897   1.316   3.001  0.00  0.00    +0.119 C 
BRANCH  24  25
ATOM     25  C   UNL     1      -2.144   2.727   3.468  0.00  0.00    +0.234 C 
ATOM     26  O   UNL     1      -1.209   3.446   3.751  0.00  0.00    -0.274 OA
ATOM     27  N   UNL     1      -3.406   3.191   3.571  0.00  0.00    -0.207 N 
ATOM     28  H   UNL     1      -4.154   2.617   3.345  0.00  0.00    +0.177 HD
BRANCH  27  29
ATOM     29  N   UNL     1      -3.636   4.503   4.005  0.00  0.00    -0.188 NA
ATOM     30  C   UNL     1      -4.850   4.950   4.104  0.00  0.00    +0.142 C 
BRANCH  30  31
ATOM     31  C   UNL     1      -5.093   6.330   4.561  0.00  0.00    +0.036 A 
ATOM     32  C   UNL     1      -6.398   6.814   4.675  0.00  0.00    +0.013 A 
ATOM     33  C   UNL     1      -6.618   8.106   5.103  0.00  0.00    +0.001 A 
ATOM     34  C   UNL     1      -5.550   8.927   5.420  0.00  0.00    +0.004 A 
ATOM     35  C   UNL     1      -4.253   8.461   5.311  0.00  0.00    +0.046 A 
ATOM     36  C   UNL     1      -4.015   7.164   4.888  0.00  0.00    +0.125 A 
BRANCH  36  37
ATOM     37  O   UNL     1      -2.741   6.703   4.786  0.00  0.00    -0.506 OA
ATOM     38  H   UNL     1      -2.337   6.853   3.921  0.00  0.00    +0.292 HD
ENDBRANCH  36  37
ENDBRANCH  30  31
ENDBRANCH  27  29
ENDBRANCH  24  25
ENDBRANCH  23  24
ENDBRANCH   8  23
TORSDOF 8
