REMARK  Name = ZINC00861592
REMARK  6 active torsions:
REMARK  status: ('A' for Active; 'I' for Inactive)
REMARK    1  A    between atoms: C_3  and  N_32
REMARK    2  A    between atoms: C_6  and  C_7
REMARK    3  A    between atoms: C_10  and  C_12
REMARK    4  A    between atoms: N_14  and  C_15
REMARK    5  A    between atoms: C_18  and  N_21
REMARK    6  A    between atoms: C_22  and  C_24
REMARK                            x       y       z     vdW  Elec       q    Type
REMARK                         _______ _______ _______ _____ _____    ______ ____
ROOT
ATOM      1  C   UNL     1       6.982  -0.586   0.239  0.00  0.00    +0.284 C 
ATOM      2  O   UNL     1       6.969   0.468   0.849  0.00  0.00    -0.266 OA
ATOM      3  N   UNL     1       5.880  -0.998  -0.417  0.00  0.00    -0.279 N 
ATOM      4  H   UNL     1       5.910  -1.803  -0.958  0.00  0.00    +0.155 HD
ENDROOT
BRANCH   3   5
ATOM      5  C   UNL     1       4.692  -0.265  -0.319  0.00  0.00    +0.034 A 
ATOM      6  C   UNL     1       4.736   1.120  -0.226  0.00  0.00    +0.025 A 
ATOM      7  C   UNL     1       3.564   1.843  -0.129  0.00  0.00    +0.025 A 
ATOM      8  C   UNL     1       2.341   1.186  -0.124  0.00  0.00    +0.034 A 
ATOM      9  C   UNL     1       2.297  -0.200  -0.211  0.00  0.00    +0.025 A 
ATOM     10  C   UNL     1       3.468  -0.922  -0.314  0.00  0.00    +0.025 A 
BRANCH   8  11
ATOM     11  N   UNL     1       1.152   1.919  -0.025  0.00  0.00    -0.281 N 
ATOM     12  C   UNL     1       1.056   3.129  -0.611  0.00  0.00    +0.250 C 
ATOM     13  O   UNL     1       2.026   3.620  -1.154  0.00  0.00    -0.270 OA
ATOM     14  H   UNL     1       0.398   1.557   0.466  0.00  0.00    +0.155 HD
BRANCH  12  15
ATOM     15  C   UNL     1      -0.227   3.860  -0.589  0.00  0.00    +0.055 A 
ATOM     16  C   UNL     1      -1.344   3.298   0.034  0.00  0.00    +0.016 A 
ATOM     17  C   UNL     1      -2.538   3.986   0.051  0.00  0.00    +0.021 A 
ATOM     18  C   UNL     1      -2.634   5.232  -0.547  0.00  0.00    +0.042 A 
ATOM     19  C   UNL     1      -1.532   5.795  -1.167  0.00  0.00    +0.040 A 
ATOM     20  C   UNL     1      -0.327   5.119  -1.186  0.00  0.00    +0.054 A 
ATOM     21 CL   UNL     1       1.057   5.830  -1.957  0.00  0.00    -0.083 Cl
ATOM     22 CL   UNL     1      -4.142   6.090  -0.520  0.00  0.00    -0.083 Cl
ENDBRANCH  12  15
ENDBRANCH   8  11
ENDBRANCH   3   5
BRANCH   1  26
ATOM     23  C   UNL     1       9.590  -3.049  -0.214  0.00  0.00    +0.136 A 
ATOM     24  C   UNL     1      10.267  -2.154   0.564  0.00  0.00    +0.050 A 
ATOM     25  C   UNL     1       9.388  -1.101   0.840  0.00  0.00    +0.055 A 
ATOM     26  C   UNL     1       8.196  -1.405   0.219  0.00  0.00    +0.190 A 
ATOM     27  O   UNL     1       8.344  -2.587  -0.415  0.00  0.00    -0.450 OA
BRANCH  23  33
ATOM     28  C   UNL     1      11.455  -4.679  -0.469  0.00  0.00    +0.014 A 
ATOM     29  C   UNL     1      11.958  -5.864  -0.966  0.00  0.00    +0.033 A 
ATOM     30  C   UNL     1      11.161  -6.684  -1.745  0.00  0.00    +0.126 A 
ATOM     31  C   UNL     1       9.855  -6.325  -2.028  0.00  0.00    +0.033 A 
ATOM     32  C   UNL     1       9.338  -5.146  -1.534  0.00  0.00    +0.014 A 
ATOM     33  C   UNL     1      10.136  -4.313  -0.746  0.00  0.00    +0.017 A 
BRANCH  30  34
ATOM     34  N   UNL     1      11.709  -7.951  -2.279  0.00  0.00    +0.056 N 
ATOM     35  O   UNL     1      11.011  -8.675  -2.966  0.00  0.00    -0.126 OA
ATOM     36  O   UNL     1      12.859  -8.270  -2.032  0.00  0.00    -0.126 OA
ENDBRANCH  30  34
ENDBRANCH  23  33
ENDBRANCH   1  26
TORSDOF 6
