REMARK  Name = ZINC63407724
REMARK  7 active torsions:
REMARK  status: ('A' for Active; 'I' for Inactive)
REMARK    1  A    between atoms: C_3  and  C_8
REMARK    2  A    between atoms: C_5  and  O_7
REMARK    3  A    between atoms: C_8  and  N_9
REMARK    4  A    between atoms: N_9  and  C_10
REMARK    5  A    between atoms: N_15  and  C_16
REMARK    6  A    between atoms: N_19  and  C_22
REMARK    7  A    between atoms: C_22  and  C_23
REMARK                            x       y       z     vdW  Elec       q    Type
REMARK                         _______ _______ _______ _____ _____    ______ ____
ROOT
ATOM      1  N   UNL     1       3.964   2.691   1.026  0.00  0.00    -0.278 N 
ATOM      2  C   UNL     1       3.558   3.753   1.751  0.00  0.00    +0.303 C 
ATOM      3  O   UNL     1       2.766   4.545   1.278  0.00  0.00    -0.253 OA
ATOM      4  N   UNL     1       4.031   3.937   2.999  0.00  0.00    -0.297 N 
ATOM      5  H   UNL     1       4.717   3.348   3.350  0.00  0.00    +0.151 HD
ENDROOT
BRANCH   4   6
ATOM      6  C   UNL     1       3.510   5.028   3.826  0.00  0.00    +0.071 C 
ATOM      7  C   UNL     1       4.275   6.318   3.514  0.00  0.00    +0.004 C 
ATOM      8  C   UNL     1       3.780   7.434   4.437  0.00  0.00    -0.077 C 
ATOM      9  N   UNL     1       4.009   7.054   5.837  0.00  0.00    +0.380 N 
ATOM     10  C   UNL     1       3.222   5.858   6.163  0.00  0.00    -0.077 C 
ATOM     11  C   UNL     1       3.695   4.682   5.307  0.00  0.00    +0.004 C 
ATOM     12  H   UNL     1       4.989   6.858   5.975  0.00  0.00    -0.082 HD
BRANCH   9  13
ATOM     13  C   UNL     1       3.604   8.159   6.715  0.00  0.00    -0.075 C 
BRANCH  13  14
ATOM     14  C   UNL     1       4.531   9.355   6.489  0.00  0.00    -0.028 C 
ATOM     15  C   UNL     1       5.963   9.008   6.946  0.00  0.00    +0.002 C 
ATOM     16  C   UNL     1       6.492  10.322   7.572  0.00  0.00    +0.000 C 
ATOM     17  C   UNL     1       5.243  10.882   8.297  0.00  0.00    +0.000 C 
ATOM     18  C   UNL     1       4.073  10.547   7.348  0.00  0.00    +0.002 C 
ENDBRANCH  13  14
ENDBRANCH   9  13
ENDBRANCH   4   6
BRANCH   1  19
ATOM     19  C   UNL     1       4.831   1.678   1.634  0.00  0.00    +0.078 C 
ATOM     20  C   UNL     1       5.299   0.524   0.745  0.00  0.00    +0.024 C 
ATOM     21  C   UNL     1       4.250   0.277   1.831  0.00  0.00    +0.024 C 
ENDBRANCH   1  19
BRANCH   1  22
ATOM     22  C   UNL     1       3.537   2.549  -0.368  0.00  0.00    +0.144 C 
BRANCH  22  25
ATOM     23  C   UNL     1      -0.151   1.734  -0.409  0.00  0.00    +0.004 A 
ATOM     24  C   UNL     1       1.036   2.442  -0.361  0.00  0.00    +0.005 A 
ATOM     25  C   UNL     1       2.245   1.774  -0.421  0.00  0.00    -0.027 A 
ATOM     26  C   UNL     1       2.271   0.397  -0.531  0.00  0.00    +0.050 A 
ATOM     27  C   UNL     1       1.081  -0.316  -0.580  0.00  0.00    +0.117 A 
ATOM     28  C   UNL     1      -0.131   0.357  -0.519  0.00  0.00    +0.045 A 
BRANCH  27  29
ATOM     29  O   UNL     1       1.104  -1.670  -0.688  0.00  0.00    -0.507 OA
ATOM     30  H   UNL     1       1.116  -2.132   0.161  0.00  0.00    +0.292 HD
ENDBRANCH  27  29
ENDBRANCH  22  25
ENDBRANCH   1  22
TORSDOF 7
