REMARK  Name = ZINC20247902
REMARK  6 active torsions:
REMARK  status: ('A' for Active; 'I' for Inactive)
REMARK    1  A    between atoms: C_1  and  O_2
REMARK    2  A    between atoms: O_2  and  C_3
REMARK    3  A    between atoms: C_6  and  C_9
REMARK    4  A    between atoms: N_10  and  N_11
REMARK    5  A    between atoms: C_12  and  C_14
REMARK    6  A    between atoms: C_17  and  C_20
REMARK                            x       y       z     vdW  Elec       q    Type
REMARK                         _______ _______ _______ _____ _____    ______ ____
ROOT
ATOM      1  C   UNL     1      -3.482   2.496  -4.630  0.00  0.00    +0.038 A 
ATOM      2  C   UNL     1      -4.649   1.989  -4.057  0.00  0.00    +0.013 A 
ATOM      3  C   UNL     1      -4.696   1.737  -2.702  0.00  0.00    +0.006 A 
ATOM      4  C   UNL     1      -3.589   1.985  -1.910  0.00  0.00    -0.027 A 
ATOM      5  C   UNL     1      -2.430   2.493  -2.470  0.00  0.00    +0.006 A 
ATOM      6  C   UNL     1      -2.368   2.744  -3.825  0.00  0.00    +0.013 A 
ENDROOT
BRANCH   4   7
ATOM      7  C   UNL     1      -3.647   1.708  -0.430  0.00  0.00    +0.105 C 
ATOM      8  C   UNL     1      -3.197   0.269  -0.160  0.00  0.00    +0.029 C 
ATOM      9  C   UNL     1      -1.896   0.029  -0.981  0.00  0.00    +0.033 C 
ATOM     10  C   UNL     1      -2.412  -0.301  -2.369  0.00  0.00    -0.030 C 
ATOM     11  C   UNL     1      -3.648  -0.698  -2.308  0.00  0.00    -0.023 C 
ATOM     12  C   UNL     1      -4.137  -0.719  -0.879  0.00  0.00    +0.049 C 
ATOM     13  C   UNL     1      -5.577  -0.325  -0.788  0.00  0.00    -0.019 A 
ATOM     14  C   UNL     1      -6.544  -1.239  -1.184  0.00  0.00    +0.006 A 
ATOM     15  C   UNL     1      -7.884  -0.917  -1.113  0.00  0.00    +0.000 A 
ATOM     16  C   UNL     1      -8.280   0.323  -0.646  0.00  0.00    +0.002 A 
ATOM     17  C   UNL     1      -7.328   1.240  -0.249  0.00  0.00    +0.023 A 
ATOM     18  C   UNL     1      -5.979   0.919  -0.327  0.00  0.00    +0.031 A 
ATOM     19  N   UNL     1      -5.024   1.872   0.046  0.00  0.00    -0.336 N 
ATOM     20  H   UNL     1      -5.288   2.730   0.683  0.00  0.00    +0.147 HD
ENDBRANCH   4   7
BRANCH   1  22
ATOM     21  N   UNL     1      -2.296   3.258  -6.631  0.00  0.00    -0.203 N 
ATOM     22  C   UNL     1      -3.425   2.768  -6.081  0.00  0.00    +0.263 C 
ATOM     23  O   UNL     1      -4.396   2.551  -6.779  0.00  0.00    -0.268 OA
ATOM     24  H   UNL     1      -1.417   3.455  -6.000  0.00  0.00    +0.178 HD
BRANCH  21  26
ATOM     25  C   UNL     1      -1.154   3.988  -8.537  0.00  0.00    +0.138 C 
ATOM     26  N   UNL     1      -2.242   3.517  -8.007  0.00  0.00    -0.187 NA
BRANCH  25  30
ATOM     27  C   UNL     1      -0.990   4.771 -12.706  0.00  0.00    +0.120 A 
ATOM     28  C   UNL     1       0.121   5.021 -11.910  0.00  0.00    +0.046 A 
ATOM     29  C   UNL     1       0.072   4.768 -10.556  0.00  0.00    +0.013 A 
ATOM     30  C   UNL     1      -1.098   4.261  -9.984  0.00  0.00    -0.005 A 
ATOM     31  C   UNL     1      -2.211   4.006 -10.789  0.00  0.00    +0.013 A 
ATOM     32  C   UNL     1      -2.155   4.266 -12.142  0.00  0.00    +0.046 A 
BRANCH  27  34
ATOM     33  C   UNL     1      -2.116   4.742 -14.799  0.00  0.00    +0.277 C 
ATOM     34  O   UNL     1      -0.938   5.021 -14.040  0.00  0.00    -0.495 OA
ENDBRANCH  27  34
ENDBRANCH  25  30
ENDBRANCH  21  26
ENDBRANCH   1  22
TORSDOF 5
