REMARK  Name = ZINC15016378
REMARK  12 active torsions:
REMARK  status: ('A' for Active; 'I' for Inactive)
REMARK    1  A    between atoms: C_1  and  C_2
REMARK    2  A    between atoms: C_2  and  C_3
REMARK    3  A    between atoms: C_2  and  C_4
REMARK    4  A    between atoms: C_2  and  C_5
REMARK    5  A    between atoms: C_7  and  C_16
REMARK    6  A    between atoms: C_9  and  C_12
REMARK    7  A    between atoms: C_10  and  O_11
REMARK    8  A    between atoms: C_12  and  C_13
REMARK    9  A    between atoms: C_12  and  C_14
REMARK   10  A    between atoms: C_12  and  C_15
REMARK   11  A    between atoms: N_20  and  C_30
REMARK   12  A    between atoms: N_22  and  C_23
REMARK                            x       y       z     vdW  Elec       q    Type
REMARK                         _______ _______ _______ _____ _____    ______ ____
ROOT
ATOM      1  C   UNL     1       4.764  -3.697  -3.769  0.00  0.00    +0.028 C 
ATOM      2  C   UNL     1       4.212  -3.633  -2.530  0.00  0.00    +0.078 C 
ATOM      3  C   UNL     1       3.488  -4.672  -1.774  0.00  0.00    +0.263 C 
ATOM      4  O   UNL     1       3.303  -5.782  -2.236  0.00  0.00    -0.269 OA
ATOM      5  N   UNL     1       3.053  -4.344  -0.569  0.00  0.00    -0.214 N 
ATOM      6  C   UNL     1       3.268  -3.077  -0.066  0.00  0.00    +0.173 C 
ATOM      7  N   UNL     1       2.905  -2.588   1.099  0.00  0.00    -0.225 NA
ATOM      8  S   UNL     1       4.168  -2.268  -1.378  0.00  0.00    -0.048 S 
ENDROOT
BRANCH   1  11
ATOM      9  C   UNL     1       6.672  -1.440  -6.072  0.00  0.00    +0.000 A 
ATOM     10  C   UNL     1       6.174  -2.582  -5.486  0.00  0.00    +0.015 A 
ATOM     11  C   UNL     1       5.298  -2.483  -4.398  0.00  0.00    -0.023 A 
ATOM     12  C   UNL     1       4.929  -1.221  -3.916  0.00  0.00    +0.015 A 
ATOM     13  C   UNL     1       5.436  -0.086  -4.507  0.00  0.00    +0.000 A 
ATOM     14  C   UNL     1       6.306  -0.190  -5.587  0.00  0.00    +0.124 A 
BRANCH   9  16
ATOM     15  C   UNL     1       7.851  -3.020  -7.576  0.00  0.00    +0.015 C 
ATOM     16  C   UNL     1       7.615  -1.546  -7.243  0.00  0.00    -0.009 C 
ATOM     17  C   UNL     1       7.003  -0.841  -8.456  0.00  0.00    +0.015 C 
ATOM     18  C   UNL     1       8.947  -0.883  -6.887  0.00  0.00    +0.015 C 
ENDBRANCH   9  16
BRANCH  13  19
ATOM     19  C   UNL     1       5.044   1.273  -3.986  0.00  0.00    -0.009 C 
ATOM     20  C   UNL     1       4.087   1.109  -2.805  0.00  0.00    +0.015 C 
ATOM     21  C   UNL     1       6.296   2.025  -3.528  0.00  0.00    +0.015 C 
ATOM     22  C   UNL     1       4.352   2.065  -5.098  0.00  0.00    +0.015 C 
ENDBRANCH  13  19
BRANCH  14  23
ATOM     23  O   UNL     1       6.800   0.933  -6.169  0.00  0.00    -0.506 OA
ATOM     24  H   UNL     1       6.255   1.272  -6.892  0.00  0.00    +0.292 HD
ENDBRANCH  14  23
ENDBRANCH   1  11
BRANCH   7  25
ATOM     25  C   UNL     1       3.217  -1.297   1.425  0.00  0.00    +0.067 A 
ATOM     26  C   UNL     1       2.255  -0.468   2.008  0.00  0.00    +0.028 A 
ATOM     27  C   UNL     1       2.577   0.833   2.335  0.00  0.00    +0.002 A 
ATOM     28  C   UNL     1       3.849   1.317   2.088  0.00  0.00    +0.000 A 
ATOM     29  C   UNL     1       4.808   0.502   1.512  0.00  0.00    +0.002 A 
ATOM     30  C   UNL     1       4.500  -0.801   1.179  0.00  0.00    +0.028 A 
ENDBRANCH   7  25
BRANCH   5  31
ATOM     31  C   UNL     1       2.364  -5.289   0.202  0.00  0.00    +0.043 A 
ATOM     32  C   UNL     1       1.015  -5.112   0.478  0.00  0.00    +0.024 A 
ATOM     33  C   UNL     1       0.337  -6.048   1.234  0.00  0.00    +0.002 A 
ATOM     34  C   UNL     1       1.003  -7.156   1.724  0.00  0.00    +0.000 A 
ATOM     35  C   UNL     1       2.348  -7.333   1.455  0.00  0.00    +0.002 A 
ATOM     36  C   UNL     1       3.030  -6.403   0.696  0.00  0.00    +0.024 A 
ENDBRANCH   5  31
TORSDOF 6
