REMARK  Name = ZINC57414755
REMARK  12 active torsions:
REMARK  status: ('A' for Active; 'I' for Inactive)
REMARK    1  A    between atoms: C_1  and  C_2
REMARK    2  A    between atoms: C_2  and  O_3
REMARK    3  A    between atoms: O_3  and  C_4
REMARK    4  A    between atoms: C_4  and  C_6
REMARK    5  A    between atoms: C_7  and  C_22
REMARK    6  A    between atoms: C_12  and  C_14
REMARK    7  A    between atoms: C_18  and  O_20
REMARK    8  A    between atoms: O_20  and  C_21
REMARK    9  A    between atoms: C_22  and  N_23
REMARK   10  A    between atoms: N_26  and  C_29
REMARK   11  A    between atoms: C_33  and  C_36
REMARK   12  A    between atoms: C_34  and  C_35
REMARK                            x       y       z     vdW  Elec       q    Type
REMARK                         _______ _______ _______ _____ _____    ______ ____
ROOT
ATOM      1  C   UNL     1      -2.776  -2.417   0.214  0.00  0.00    +0.079 C 
ATOM      2  C   UNL     1      -2.975  -3.719  -0.083  0.00  0.00    +0.038 C 
ATOM      3  N   UNL     1      -4.234  -4.214  -0.270  0.00  0.00    -0.271 N 
ATOM      4  C   UNL     1      -5.345  -3.473  -0.178  0.00  0.00    +0.304 C 
ATOM      5  O   UNL     1      -6.423  -4.004  -0.362  0.00  0.00    -0.252 OA
ATOM      6  N   UNL     1      -5.307  -2.157   0.111  0.00  0.00    -0.288 N 
ATOM      7  C   UNL     1      -3.996  -1.527   0.338  0.00  0.00    +0.144 C 
ATOM      8  H   UNL     1      -4.328  -5.156  -0.482  0.00  0.00    +0.156 HD
ATOM      9  H   UNL     1      -6.125  -1.639   0.172  0.00  0.00    +0.151 HD
ENDROOT
BRANCH   7  10
ATOM     10  C   UNL     1      -3.851  -0.399  -0.651  0.00  0.00    -0.019 A 
ATOM     11  C   UNL     1      -4.161  -0.604  -1.983  0.00  0.00    +0.006 A 
ATOM     12  C   UNL     1      -4.029   0.428  -2.893  0.00  0.00    +0.004 A 
ATOM     13  C   UNL     1      -3.586   1.668  -2.474  0.00  0.00    +0.045 A 
ATOM     14  C   UNL     1      -3.274   1.876  -1.138  0.00  0.00    +0.120 A 
ATOM     15  C   UNL     1      -3.413   0.840  -0.226  0.00  0.00    +0.051 A 
BRANCH  14  16
ATOM     16  O   UNL     1      -2.838   3.095  -0.723  0.00  0.00    -0.495 OA
ATOM     17  C   UNL     1      -2.724   4.116  -1.716  0.00  0.00    +0.277 C 
ENDBRANCH  14  16
ENDBRANCH   7  10
BRANCH   1  18
ATOM     18  C   UNL     1      -1.472  -1.902   0.409  0.00  0.00    +0.339 C 
ATOM     19  O   UNL     1      -0.517  -2.655   0.424  0.00  0.00    -0.245 OA
BRANCH  18  20
ATOM     20  O   UNL     1      -1.289  -0.576   0.578  0.00  0.00    -0.462 OA
BRANCH  20  22
ATOM     21  C   UNL     1       0.063   1.394   0.943  0.00  0.00    +0.048 C 
ATOM     22  C   UNL     1       0.054  -0.126   0.770  0.00  0.00    +0.229 C 
ENDBRANCH  20  22
ENDBRANCH  18  20
ENDBRANCH   1  18
BRANCH   2  23
ATOM     23  C   UNL     1      -1.789  -4.640  -0.210  0.00  0.00    +0.136 C 
BRANCH  23  24
ATOM     24  N   UNL     1      -1.415  -5.143   1.119  0.00  0.00    -0.294 NA
ATOM     25  C   UNL     1      -2.410  -6.102   1.618  0.00  0.00    +0.103 C 
ATOM     26  C   UNL     1      -2.083  -6.463   3.071  0.00  0.00    +0.120 C 
ATOM     27  N   UNL     1      -0.688  -6.925   3.134  0.00  0.00    -0.327 N 
ATOM     28  C   UNL     1       0.353  -6.079   2.530  0.00  0.00    +0.120 C 
ATOM     29  C   UNL     1      -0.070  -5.733   1.099  0.00  0.00    +0.103 C 
BRANCH  27  30
ATOM     30  C   UNL     1      -0.360  -8.134   3.751  0.00  0.00    +0.033 A 
ATOM     31  C   UNL     1      -0.333  -9.309   3.011  0.00  0.00    +0.023 A 
ATOM     32  C   UNL     1      -0.008 -10.503   3.624  0.00  0.00    +0.002 A 
ATOM     33  C   UNL     1       0.290 -10.530   4.975  0.00  0.00    +0.004 A 
ATOM     34  C   UNL     1       0.264  -9.362   5.715  0.00  0.00    -0.046 A 
ATOM     35  C   UNL     1      -0.054  -8.164   5.106  0.00  0.00    -0.027 A 
ATOM     36  C   UNL     1      -0.076  -6.890   5.912  0.00  0.00    +0.046 C 
ATOM     37  C   UNL     1       0.588  -9.396   7.186  0.00  0.00    +0.044 C 
ENDBRANCH  27  30
ENDBRANCH  23  24
ENDBRANCH   2  23
TORSDOF 8
