REMARK  Name = ZINC59310223
REMARK  8 active torsions:
REMARK  status: ('A' for Active; 'I' for Inactive)
REMARK    1  A    between atoms: C_1  and  O_2
REMARK    2  A    between atoms: O_2  and  C_3
REMARK    3  A    between atoms: C_6  and  N_9
REMARK    4  A    between atoms: C_10  and  C_12
REMARK    5  A    between atoms: C_12  and  S_13
REMARK    6  A    between atoms: S_13  and  C_14
REMARK    7  A    between atoms: N_19  and  N_20
REMARK    8  A    between atoms: C_21  and  C_22
REMARK                            x       y       z     vdW  Elec       q    Type
REMARK                         _______ _______ _______ _____ _____    ______ ____
ROOT
ATOM      1  C   UNL     1      -7.649  -7.064  -0.465  0.00  0.00    +0.211 A 
ATOM      2  N   UNL     1      -7.958  -8.362  -0.557  0.00  0.00    -0.186 NA
ATOM      3  C   UNL     1      -9.266  -8.503  -0.604  0.00  0.00    +0.232 A 
ATOM      4  N   UNL     1      -9.821  -7.274  -0.542  0.00  0.00    -0.245 N 
ATOM      5  N   UNL     1      -8.758  -6.362  -0.447  0.00  0.00    -0.144 NA
ATOM      6  N   UNL     1      -9.951  -9.701  -0.702  0.00  0.00    -0.205 N 
ATOM      7  H   UNL     1     -10.921  -9.704  -0.731  0.00  0.00    +0.177 HD
ATOM      8  H   UNL     1     -10.768  -7.063  -0.556  0.00  0.00    +0.192 HD
ENDROOT
BRANCH   6   9
ATOM      9  N   UNL     1      -9.245 -10.910  -0.759  0.00  0.00    -0.188 NA
ATOM     10  C   UNL     1      -9.880 -12.018  -0.850  0.00  0.00    +0.139 C 
BRANCH  10  11
ATOM     11  C   UNL     1      -9.137 -13.289  -0.910  0.00  0.00    +0.002 A 
ATOM     12  C   UNL     1      -9.857 -14.554  -1.140  0.00  0.00    +0.010 A 
ATOM     13  C   UNL     1      -9.202 -15.696  -1.196  0.00  0.00    +0.009 A 
ATOM     14  C   UNL     1      -7.739 -15.708  -1.027  0.00  0.00    -0.017 A 
ATOM     15  C   UNL     1      -6.979 -16.968  -1.085  0.00  0.00    +0.009 A 
ATOM     16  C   UNL     1      -5.669 -16.958  -0.931  0.00  0.00    +0.009 A 
ATOM     17  C   UNL     1      -4.962 -15.686  -0.702  0.00  0.00    -0.017 A 
ATOM     18  C   UNL     1      -3.500 -15.651  -0.528  0.00  0.00    +0.008 A 
ATOM     19  C   UNL     1      -2.894 -14.499  -0.325  0.00  0.00    +0.001 A 
ATOM     20  C   UNL     1      -3.667 -13.245  -0.269  0.00  0.00    +0.008 A 
ATOM     21  C   UNL     1      -4.973 -13.274  -0.423  0.00  0.00    -0.017 A 
ATOM     22  C   UNL     1      -5.643 -14.566  -0.651  0.00  0.00    -0.002 A 
ATOM     23  C   UNL     1      -7.106 -14.578  -0.822  0.00  0.00    -0.002 A 
ATOM     24  C   UNL     1      -7.830 -13.296  -0.763  0.00  0.00    -0.008 A 
ATOM     25  C   UNL     1      -7.078 -12.052  -0.536  0.00  0.00    +0.010 A 
ATOM     26  C   UNL     1      -5.776 -12.043  -0.374  0.00  0.00    +0.009 A 
ENDBRANCH  10  11
ENDBRANCH   6   9
BRANCH   1  27
ATOM     27  S   UNL     1      -6.018  -6.404  -0.373  0.00  0.00    -0.075 S 
BRANCH  27  28
ATOM     28  C   UNL     1      -6.276  -4.612  -0.258  0.00  0.00    +0.173 C 
BRANCH  28  30
ATOM     29  N   UNL     1      -4.886  -2.573  -0.079  0.00  0.00    -0.285 N 
ATOM     30  C   UNL     1      -4.941  -3.917  -0.172  0.00  0.00    +0.227 C 
ATOM     31  O   UNL     1      -3.917  -4.566  -0.188  0.00  0.00    -0.275 OA
ATOM     32  H   UNL     1      -5.704  -2.059   0.007  0.00  0.00    +0.155 HD
BRANCH  29  36
ATOM     33  C   UNL     1      -1.198  -0.628  -0.156  0.00  0.00    +0.120 A 
ATOM     34  C   UNL     1      -1.387  -1.786  -0.897  0.00  0.00    +0.047 A 
ATOM     35  C   UNL     1      -2.608  -2.430  -0.872  0.00  0.00    +0.027 A 
ATOM     36  C   UNL     1      -3.647  -1.920  -0.104  0.00  0.00    +0.034 A 
ATOM     37  C   UNL     1      -3.457  -0.761   0.637  0.00  0.00    +0.027 A 
ATOM     38  C   UNL     1      -2.234  -0.121   0.615  0.00  0.00    +0.047 A 
BRANCH  33  40
ATOM     39  C   UNL     1       1.025  -0.572  -0.997  0.00  0.00    +0.277 C 
ATOM     40  O   UNL     1       0.004   0.006  -0.181  0.00  0.00    -0.495 OA
ENDBRANCH  33  40
ENDBRANCH  29  36
ENDBRANCH  28  30
ENDBRANCH  27  28
ENDBRANCH   1  27
TORSDOF 7
