REMARK  Name = ZINC12242419
REMARK  7 active torsions:
REMARK  status: ('A' for Active; 'I' for Inactive)
REMARK    1  A    between atoms: C_4  and  C_7
REMARK    2  A    between atoms: C_8  and  C_13
REMARK    3  A    between atoms: C_13  and  N_71
REMARK    4  A    between atoms: C_20  and  C_22
REMARK    5  A    between atoms: N_24  and  C_25
REMARK    6  A    between atoms: C_25  and  C_26
REMARK    7  A    between atoms: C_26  and  C_31
REMARK                            x       y       z     vdW  Elec       q    Type
REMARK                         _______ _______ _______ _____ _____    ______ ____
ROOT
ATOM      1  C   UNL     1      -1.849  -3.027  -5.024  0.00  0.00    -0.078 C 
ATOM      2  C   UNL     1      -1.598  -3.929  -3.811  0.00  0.00    -0.011 C 
ATOM      3  C   UNL     1      -0.213  -3.607  -3.239  0.00  0.00    -0.021 C 
ATOM      4  C   UNL     1       0.924  -3.621  -4.266  0.00  0.00    -0.011 C 
ATOM      5  C   UNL     1       0.524  -2.737  -5.452  0.00  0.00    -0.078 C 
ATOM      6  C   UNL     1       0.100  -4.078  -1.821  0.00  0.00    +0.020 C 
ATOM      7  C   UNL     1      -0.132  -2.592  -2.100  0.00  0.00    +0.082 C 
ATOM      8  N   UNL     1      -0.758  -3.230  -6.003  0.00  0.00    +0.382 N 
ATOM      9  H   UNL     1      -0.671  -4.234  -6.200  0.00  0.00    -0.081 HD
ENDROOT
BRANCH   7  10
ATOM     10  C   UNL     1       1.069  -1.681  -2.064  0.00  0.00    +0.217 C 
ATOM     11  O   UNL     1       2.177  -2.145  -1.900  0.00  0.00    -0.275 OA
ATOM     12  N   UNL     1       0.910  -0.351  -2.215  0.00  0.00    -0.314 N 
ATOM     13  H   UNL     1       0.024   0.020  -2.346  0.00  0.00    +0.149 HD
BRANCH  12  14
ATOM     14  C   UNL     1       2.077   0.534  -2.180  0.00  0.00    +0.115 C 
BRANCH  14  15
ATOM     15  C   UNL     1       1.614   1.991  -2.228  0.00  0.00    +0.011 C 
ATOM     16  C   UNL     1       0.712   2.301  -1.015  0.00  0.00    +0.013 C 
ATOM     17  C   UNL     1       1.676   2.926   0.024  0.00  0.00    +0.001 C 
ATOM     18  C   UNL     1       2.619   3.783  -0.856  0.00  0.00    +0.001 C 
ATOM     19  C   UNL     1       2.826   2.934  -2.127  0.00  0.00    +0.013 C 
BRANCH  15  20
ATOM     20  C   UNL     1       0.863   2.251  -3.509  0.00  0.00    -0.040 A 
ATOM     21  C   UNL     1       0.234   3.467  -3.707  0.00  0.00    +0.004 A 
ATOM     22  C   UNL     1      -0.459   3.703  -4.879  0.00  0.00    +0.000 A 
ATOM     23  C   UNL     1      -0.515   2.728  -5.858  0.00  0.00    +0.000 A 
ATOM     24  C   UNL     1       0.114   1.514  -5.660  0.00  0.00    +0.000 A 
ATOM     25  C   UNL     1       0.803   1.275  -4.486  0.00  0.00    +0.004 A 
ENDBRANCH  15  20
ENDBRANCH  14  15
ENDBRANCH  12  14
ENDBRANCH   7  10
BRANCH   8  26
ATOM     26  C   UNL     1      -1.071  -2.520  -7.260  0.00  0.00    -0.039 C 
BRANCH  26  28
ATOM     27  C   UNL     1       0.621  -3.573  -8.927  0.00  0.00    +0.094 A 
ATOM     28  C   UNL     1       0.154  -2.506  -8.136  0.00  0.00    -0.019 A 
ATOM     29  C   UNL     1       0.997  -1.464  -8.307  0.00  0.00    +0.107 A 
ATOM     30  N   UNL     1       1.968  -1.850  -9.163  0.00  0.00    -0.284 N 
ATOM     31  H   UNL     1       2.736  -1.288  -9.472  0.00  0.00    +0.188 HD
ATOM     32  N   UNL     1       1.713  -3.174  -9.544  0.00  0.00    -0.174 NA
BRANCH  27  36
ATOM     33  C   UNL     1      -1.181  -7.410  -9.266  0.00  0.00    +0.000 A 
ATOM     34  C   UNL     1      -0.564  -6.840 -10.364  0.00  0.00    +0.001 A 
ATOM     35  C   UNL     1       0.023  -5.595 -10.260  0.00  0.00    +0.010 A 
ATOM     36  C   UNL     1      -0.008  -4.912  -9.046  0.00  0.00    +0.002 A 
ATOM     37  C   UNL     1      -0.626  -5.494  -7.941  0.00  0.00    +0.010 A 
ATOM     38  C   UNL     1      -1.214  -6.737  -8.058  0.00  0.00    +0.001 A 
ENDBRANCH  27  36
ENDBRANCH  26  28
ENDBRANCH   8  26
TORSDOF 7
