REMARK  Name = ZINC48795016
REMARK  8 active torsions:
REMARK  status: ('A' for Active; 'I' for Inactive)
REMARK    1  A    between atoms: C_1  and  N_2
REMARK    2  A    between atoms: N_2  and  C_3
REMARK    3  A    between atoms: N_2  and  C_4
REMARK    4  A    between atoms: C_4  and  C_10
REMARK    5  A    between atoms: C_10  and  N_11
REMARK    6  A    between atoms: N_11  and  C_12
REMARK    7  A    between atoms: C_12  and  C_13
REMARK    8  A    between atoms: C_18  and  O_19
REMARK                            x       y       z     vdW  Elec       q    Type
REMARK                         _______ _______ _______ _____ _____    ______ ____
ROOT
ATOM      1  N   UNL     1      -1.408  -0.099   2.383  0.00  0.00    +0.381 N 
ATOM      2  H   UNL     1      -1.397  -1.094   2.547  0.00  0.00    -0.086 HD
ATOM      3  H   UNL     1      -0.461   0.237   2.290  0.00  0.00    -0.086 HD
ENDROOT
BRANCH   1   4
ATOM      4  C   UNL     1      -2.153   0.187   1.150  0.00  0.00    -0.094 C 
BRANCH   4   5
ATOM      5  C   UNL     1      -1.515  -0.569  -0.018  0.00  0.00    -0.082 C 
ATOM      6  C   UNL     1      -2.216  -0.180  -1.321  0.00  0.00    -0.014 C 
ATOM      7  C   UNL     1      -3.700  -0.542  -1.229  0.00  0.00    -0.001 C 
ATOM      8  C   UNL     1      -3.844  -2.048  -1.002  0.00  0.00    -0.000 C 
ATOM      9  C   UNL     1      -3.143  -2.437   0.301  0.00  0.00    -0.001 C 
ATOM     10  C   UNL     1      -1.659  -2.075   0.210  0.00  0.00    -0.014 C 
BRANCH   5  12
ATOM     11  C   UNL     1       0.505  -0.885  -1.273  0.00  0.00    -0.096 C 
ATOM     12  N   UNL     1      -0.090  -0.221  -0.106  0.00  0.00    +0.379 N 
ATOM     13  C   UNL     1       0.051   1.234  -0.246  0.00  0.00    -0.096 C 
ATOM     14  H   UNL     1       0.383  -0.526   0.732  0.00  0.00    -0.082 HD
ENDBRANCH   5  12
ENDBRANCH   4   5
ENDBRANCH   1   4
BRANCH   1  15
ATOM     15  C   UNL     1      -2.057   0.576   3.515  0.00  0.00    -0.043 C 
BRANCH  15  16
ATOM     16  C   UNL     1      -1.293   0.284   4.780  0.00  0.00    -0.022 A 
ATOM     17  C   UNL     1      -1.743  -0.691   5.650  0.00  0.00    +0.005 A 
ATOM     18  C   UNL     1      -1.043  -0.961   6.811  0.00  0.00    +0.002 A 
ATOM     19  C   UNL     1       0.110  -0.256   7.105  0.00  0.00    +0.019 A 
ATOM     20  C   UNL     1       0.565   0.720   6.239  0.00  0.00    +0.059 A 
ATOM     21  C   UNL     1      -0.134   0.989   5.070  0.00  0.00    +0.132 A 
ATOM     22 BR   UNL     1       2.141   1.684   6.642  0.00  0.00    -0.047 Br
BRANCH  21  23
ATOM     23  O   UNL     1       0.313   1.944   4.213  0.00  0.00    -0.505 OA
ATOM     24  H   UNL     1      -0.034   2.828   4.394  0.00  0.00    +0.292 HD
ENDBRANCH  21  23
ENDBRANCH  15  16
ENDBRANCH   1  15
TORSDOF 6
