REMARK  Name = ZINC64093485
REMARK  4 active torsions:
REMARK  status: ('A' for Active; 'I' for Inactive)
REMARK    1  A    between atoms: C_6  and  C_11
REMARK    2  A    between atoms: N_13  and  C_14
REMARK    3  A    between atoms: C_14  and  C_15
REMARK    4  A    between atoms: N_20  and  C_22
REMARK                            x       y       z     vdW  Elec       q    Type
REMARK                         _______ _______ _______ _____ _____    ______ ____
ROOT
ATOM      1  C   UNL     1       3.588  -4.660  -2.869  0.00  0.00    +0.106 C 
ENDROOT
BRANCH   1   2
ATOM      2  C   UNL     1       3.232  -6.145  -2.772  0.00  0.00    -0.011 C 
ATOM      3  C   UNL     1       1.709  -6.307  -2.779  0.00  0.00    +0.001 C 
ATOM      4  C   UNL     1       1.364  -7.799  -2.761  0.00  0.00    -0.018 C 
ATOM      5  C   UNL     1       2.026  -8.485  -3.958  0.00  0.00    -0.078 C 
ATOM      6  N   UNL     1       3.482  -8.316  -3.880  0.00  0.00    +0.383 N 
ATOM      7  C   UNL     1       3.825  -6.892  -3.969  0.00  0.00    -0.073 C 
ATOM      8  H   UNL     1       3.815  -8.687  -3.003  0.00  0.00    -0.081 HD
BRANCH   6   9
ATOM      9  C   UNL     1       4.117  -9.041  -4.989  0.00  0.00    -0.049 C 
ATOM     10  C   UNL     1       5.639  -9.075  -4.743  0.00  0.00    +0.055 C 
ATOM     11  S   UNL     1       6.293 -10.536  -5.556  0.00  0.00    -0.161 S 
ATOM     12  C   UNL     1       6.941  -9.967  -7.155  0.00  0.00    +0.079 C 
ATOM     13  C   UNL     1       6.019  -8.927  -7.836  0.00  0.00    +0.079 C 
ATOM     14  S   UNL     1       4.284  -9.357  -7.689  0.00  0.00    -0.161 S 
ATOM     15  C   UNL     1       3.733  -8.417  -6.221  0.00  0.00    +0.055 C 
ENDBRANCH   6   9
ENDBRANCH   1   2
BRANCH   1  18
ATOM     16  C   UNL     1       3.326  -2.641  -1.530  0.00  0.00    +0.239 C 
ATOM     17  O   UNL     1       3.897  -2.023  -2.404  0.00  0.00    -0.273 OA
ATOM     18  N   UNL     1       3.121  -3.966  -1.666  0.00  0.00    -0.313 N 
ATOM     19  H   UNL     1       2.665  -4.461  -0.968  0.00  0.00    +0.149 HD
BRANCH  16  25
ATOM     20  C   UNL     1      -0.560   1.226  -0.222  0.00  0.00    +0.001 A 
ATOM     21  C   UNL     1       0.559   2.064  -0.321  0.00  0.00    +0.002 A 
ATOM     22  C   UNL     1       1.822   1.591  -0.375  0.00  0.00    +0.026 A 
ATOM     23  C   UNL     1       2.068   0.191  -0.333  0.00  0.00    +0.043 A 
ATOM     24  N   UNL     1       3.180  -0.501  -0.370  0.00  0.00    -0.370 N 
ATOM     25  C   UNL     1       2.846  -1.928  -0.293  0.00  0.00    +0.190 C 
ATOM     26  C   UNL     1       1.338  -1.996  -0.202  0.00  0.00    +0.016 C 
ATOM     27  C   UNL     1       0.903  -0.716  -0.228  0.00  0.00    -0.004 A 
ATOM     28  C   UNL     1      -0.438  -0.120  -0.174  0.00  0.00    +0.010 A 
ATOM     29  H   UNL     1       4.075  -0.132  -0.438  0.00  0.00    +0.161 HD
ENDBRANCH  16  25
ENDBRANCH   1  18
TORSDOF 4
