REMARK  Name = ZINC08739526
REMARK  6 active torsions:
REMARK  status: ('A' for Active; 'I' for Inactive)
REMARK    1  A    between atoms: C_6  and  C_7
REMARK    2  A    between atoms: C_7  and  C_8
REMARK    3  A    between atoms: C_8  and  N_45
REMARK    4  A    between atoms: C_9  and  C_10
REMARK    5  A    between atoms: C_9  and  N_45
REMARK    6  A    between atoms: C_11  and  O_25
REMARK                            x       y       z     vdW  Elec       q    Type
REMARK                         _______ _______ _______ _____ _____    ______ ____
ROOT
ATOM      1  C   UNL     1       2.395   1.429  -0.014  0.00  0.00    +0.021 A 
ATOM      2  C   UNL     1       2.397   0.044  -0.022  0.00  0.00    +0.140 A 
ATOM      3  C   UNL     1       1.197  -0.666  -0.014  0.00  0.00    +0.083 A 
ATOM      4  C   UNL     1       0.002  -0.004   0.002  0.00  0.00    +0.035 A 
ATOM      5  C   UNL     1      -0.017   1.395   0.010  0.00  0.00    +0.023 A 
ATOM      6  C   UNL     1       1.192   2.116   0.002  0.00  0.00    +0.144 A 
ATOM      7  O   UNL     1       1.166   3.466   0.009  0.00  0.00    -0.422 OA
ATOM      8  C   UNL     1       0.009   4.145   0.023  0.00  0.00    +0.341 A 
ATOM      9  O   UNL     1       0.038   5.363   0.029  0.00  0.00    -0.245 OA
ATOM     10  C   UNL     1      -1.242   3.487   0.031  0.00  0.00    +0.041 A 
ATOM     11  C   UNL     1      -1.283   2.132   0.020  0.00  0.00    -0.027 A 
ATOM     12  C   UNL     1      -2.715   1.649   0.025  0.00  0.00    +0.036 C 
ATOM     13  C   UNL     1      -3.552   2.876  -0.400  0.00  0.00    +0.010 C 
ATOM     14  C   UNL     1      -2.647   4.048   0.046  0.00  0.00    +0.043 C 
ATOM     15 CL   UNL     1       1.221  -2.402  -0.024  0.00  0.00    -0.080 Cl
ENDROOT
BRANCH   2  16
ATOM     16  O   UNL     1       3.576  -0.628  -0.038  0.00  0.00    -0.505 OA
ATOM     17  H   UNL     1       3.909  -0.818  -0.927  0.00  0.00    +0.292 HD
ENDBRANCH   2  16
BRANCH   1  18
ATOM     18  C   UNL     1       3.698   2.186  -0.022  0.00  0.00    -0.039 C 
BRANCH  18  19
ATOM     19  N   UNL     1       4.103   2.437  -1.418  0.00  0.00    +0.382 N 
ATOM     20  H   UNL     1       4.218   1.540  -1.904  0.00  0.00    -0.085 HD
ATOM     21  H   UNL     1       3.376   2.990  -1.888  0.00  0.00    -0.085 HD
BRANCH  19  22
ATOM     22  C   UNL     1       5.378   3.179  -1.457  0.00  0.00    -0.077 C 
BRANCH  22  23
ATOM     23  C   UNL     1       5.771   3.424  -2.915  0.00  0.00    +0.016 C 
BRANCH  23  29
ATOM     24  C   UNL     1       7.068   5.563  -2.980  0.00  0.00    +0.006 A 
ATOM     25  C   UNL     1       8.261   6.259  -3.019  0.00  0.00    +0.038 A 
ATOM     26  C   UNL     1       9.462   5.571  -3.053  0.00  0.00    +0.123 A 
ATOM     27  C   UNL     1       9.466   4.186  -3.042  0.00  0.00    +0.038 A 
ATOM     28  C   UNL     1       8.271   3.493  -2.997  0.00  0.00    +0.006 A 
ATOM     29  C   UNL     1       7.073   4.181  -2.963  0.00  0.00    -0.049 A 
ATOM     30  F   UNL     1      10.630   6.250  -3.096  0.00  0.00    -0.205 F 
ENDBRANCH  23  29
ENDBRANCH  22  23
ENDBRANCH  19  22
ENDBRANCH  18  19
ENDBRANCH   1  18
TORSDOF 6
