REMARK  Name = ZINC29906852
REMARK  9 active torsions:
REMARK  status: ('A' for Active; 'I' for Inactive)
REMARK    1  A    between atoms: C_1  and  C_2
REMARK    2  A    between atoms: C_2  and  O_3
REMARK    3  A    between atoms: O_3  and  C_4
REMARK    4  A    between atoms: C_4  and  C_6
REMARK    5  A    between atoms: C_7  and  C_21
REMARK    6  A    between atoms: C_12  and  C_14
REMARK    7  A    between atoms: C_21  and  S_22
REMARK    8  A    between atoms: S_22  and  C_23
REMARK    9  A    between atoms: N_32  and  C_33
REMARK                            x       y       z     vdW  Elec       q    Type
REMARK                         _______ _______ _______ _____ _____    ______ ____
ROOT
ATOM      1  C   UNL     1       2.292   4.206   1.162  0.00  0.00    +0.079 C 
ATOM      2  C   UNL     1       1.925   3.596   0.014  0.00  0.00    +0.034 C 
ATOM      3  N   UNL     1       1.811   4.298  -1.152  0.00  0.00    -0.272 N 
ATOM      4  C   UNL     1       2.053   5.611  -1.255  0.00  0.00    +0.304 C 
ATOM      5  O   UNL     1       1.925   6.149  -2.337  0.00  0.00    -0.252 OA
ATOM      6  N   UNL     1       2.433   6.355  -0.198  0.00  0.00    -0.288 N 
ATOM      7  C   UNL     1       2.584   5.692   1.108  0.00  0.00    +0.144 C 
ATOM      8  H   UNL     1       1.506   3.784  -2.075  0.00  0.00    +0.156 HD
ATOM      9  H   UNL     1       2.629   7.434  -0.293  0.00  0.00    +0.151 HD
ENDROOT
BRANCH   7  10
ATOM     10  C   UNL     1       4.000   5.908   1.578  0.00  0.00    -0.022 A 
ATOM     11  C   UNL     1       5.046   5.831   0.677  0.00  0.00    +0.007 A 
ATOM     12  C   UNL     1       6.344   6.035   1.107  0.00  0.00    +0.020 A 
ATOM     13  C   UNL     1       6.597   6.305   2.439  0.00  0.00    +0.041 A 
ATOM     14  C   UNL     1       5.550   6.377   3.341  0.00  0.00    +0.020 A 
ATOM     15  C   UNL     1       4.252   6.179   2.910  0.00  0.00    +0.007 A 
ATOM     16 CL   UNL     1       8.228   6.555   2.980  0.00  0.00    -0.084 Cl
ENDBRANCH   7  10
BRANCH   1  17
ATOM     17  C   UNL     1       2.404   3.482   2.371  0.00  0.00    +0.339 C 
ATOM     18  O   UNL     1       2.313   2.268   2.365  0.00  0.00    -0.245 OA
BRANCH  17  19
ATOM     19  O   UNL     1       2.613   4.136   3.533  0.00  0.00    -0.462 OA
BRANCH  19  21
ATOM     20  C   UNL     1       2.951   4.252   5.923  0.00  0.00    +0.048 C 
ATOM     21  C   UNL     1       2.717   3.341   4.716  0.00  0.00    +0.229 C 
ENDBRANCH  19  21
ENDBRANCH  17  19
ENDBRANCH   1  17
BRANCH   2  22
ATOM     22  C   UNL     1       1.630   2.119   0.022  0.00  0.00    +0.128 C 
BRANCH  22  23
ATOM     23  S   UNL     1       3.071   1.212  -0.593  0.00  0.00    -0.082 S 
BRANCH  23  24
ATOM     24  C   UNL     1       2.466  -0.438  -0.480  0.00  0.00    +0.172 A 
ATOM     25  N   UNL     1       1.257  -0.630  -0.026  0.00  0.00    -0.223 NA
ATOM     26  C   UNL     1       0.716  -1.880   0.086  0.00  0.00    +0.086 A 
ATOM     27  C   UNL     1      -0.558  -2.240   0.547  0.00  0.00    +0.036 A 
ATOM     28  C   UNL     1      -0.922  -3.539   0.594  0.00  0.00    +0.048 A 
ATOM     29  S   UNL     1       0.530  -4.377  -0.020  0.00  0.00    -0.090 S 
ATOM     30  C   UNL     1       1.542  -2.949  -0.305  0.00  0.00    +0.102 A 
ATOM     31  C   UNL     1       2.833  -2.736  -0.783  0.00  0.00    +0.269 A 
ATOM     32  O   UNL     1       3.538  -3.673  -1.119  0.00  0.00    -0.266 OA
ATOM     33  N   UNL     1       3.284  -1.462  -0.865  0.00  0.00    -0.290 N 
ATOM     34  C   UNL     1       4.635  -1.184  -1.360  0.00  0.00    +0.154 C 
ENDBRANCH  23  24
ENDBRANCH  22  23
ENDBRANCH   2  22
TORSDOF 7
