REMARK  Name = ZINC16385150
REMARK  4 active torsions:
REMARK  status: ('A' for Active; 'I' for Inactive)
REMARK    1  A    between atoms: C_3  and  C_9
REMARK    2  A    between atoms: C_12  and  C_14
REMARK    3  A    between atoms: N_16  and  C_17
REMARK    4  A    between atoms: C_18  and  C_25
REMARK                            x       y       z     vdW  Elec       q    Type
REMARK                         _______ _______ _______ _____ _____    ______ ____
ROOT
ATOM      1  C   UNL     1      -4.637   2.811  -1.193  0.00  0.00    +0.284 C 
ATOM      2  O   UNL     1      -5.472   3.619  -0.831  0.00  0.00    -0.266 OA
ATOM      3  N   UNL     1      -4.905   1.979  -2.219  0.00  0.00    -0.273 N 
ATOM      4  H   UNL     1      -4.240   1.334  -2.508  0.00  0.00    +0.156 HD
ENDROOT
BRANCH   3   5
ATOM      5  C   UNL     1      -6.130   2.045  -2.862  0.00  0.00    +0.085 A 
ATOM      6  C   UNL     1      -6.584   1.287  -3.929  0.00  0.00    +0.068 A 
ATOM      7  C   UNL     1      -7.933   1.555  -4.424  0.00  0.00    -0.023 A 
ATOM      8  C   UNL     1      -8.593   2.535  -3.781  0.00  0.00    -0.004 A 
ATOM      9  S   UNL     1      -7.462   3.099  -2.534  0.00  0.00    -0.077 S 
ATOM     10  C   UNL     1      -9.970   2.754  -4.348  0.00  0.00    +0.043 C 
ATOM     11  C   UNL     1     -10.260   1.478  -5.169  0.00  0.00    +0.010 C 
ATOM     12  C   UNL     1      -8.838   1.005  -5.528  0.00  0.00    +0.037 C 
BRANCH   6  13
ATOM     13  C   UNL     1      -5.744   0.251  -4.537  0.00  0.00    +0.244 C 
ATOM     14  O   UNL     1      -5.786  -0.891  -4.117  0.00  0.00    -0.270 OA
ATOM     15  N   UNL     1      -4.924   0.562  -5.560  0.00  0.00    -0.325 N 
ATOM     16  H   UNL     1      -4.890   1.472  -5.894  0.00  0.00    +0.145 HD
ATOM     17  H   UNL     1      -4.368  -0.124  -5.962  0.00  0.00    +0.145 HD
ENDBRANCH   6  13
ENDBRANCH   3   5
BRANCH   1  21
ATOM     18  C   UNL     1      -1.304   2.118   0.020  0.00  0.00    +0.137 A 
ATOM     19  C   UNL     1      -1.643   3.125   0.877  0.00  0.00    +0.051 A 
ATOM     20  C   UNL     1      -2.941   3.528   0.545  0.00  0.00    +0.055 A 
ATOM     21  C   UNL     1      -3.342   2.741  -0.513  0.00  0.00    +0.190 A 
ATOM     22  O   UNL     1      -2.332   1.899  -0.817  0.00  0.00    -0.450 OA
BRANCH  18  25
ATOM     23  C   UNL     1       2.385   1.420  -0.013  0.00  0.00    +0.021 A 
ATOM     24  C   UNL     1       1.186   2.102   0.002  0.00  0.00    +0.014 A 
ATOM     25  C   UNL     1      -0.017   1.394   0.010  0.00  0.00    +0.036 A 
ATOM     26  C   UNL     1       0.002  -0.004   0.002  0.00  0.00    +0.053 A 
ATOM     27  C   UNL     1       1.209  -0.674  -0.013  0.00  0.00    +0.040 A 
ATOM     28  C   UNL     1       2.398   0.035  -0.021  0.00  0.00    +0.042 A 
ATOM     29 CL   UNL     1       3.911  -0.815  -0.039  0.00  0.00    -0.083 Cl
ATOM     30 CL   UNL     1      -1.488  -0.895   0.011  0.00  0.00    -0.083 Cl
ENDBRANCH  18  25
ENDBRANCH   1  21
TORSDOF 4
