REMARK  Name = ZINC12920138
REMARK  7 active torsions:
REMARK  status: ('A' for Active; 'I' for Inactive)
REMARK    1  A    between atoms: C_1  and  C_2
REMARK    2  A    between atoms: C_5  and  C_23
REMARK    3  A    between atoms: C_6  and  O_8
REMARK    4  A    between atoms: O_8  and  S_9
REMARK    5  A    between atoms: S_9  and  C_12
REMARK    6  A    between atoms: C_23  and  C_24
REMARK    7  A    between atoms: C_23  and  C_25
REMARK                            x       y       z     vdW  Elec       q    Type
REMARK                         _______ _______ _______ _____ _____    ______ ____
ROOT
ATOM      1  S   UNL     1       2.840   4.191  -1.394  0.00  0.00    +0.151 S 
ATOM      2  O   UNL     1       4.146   4.725  -1.228  0.00  0.00    -0.131 OA
ATOM      3  O   UNL     1       2.580   3.049  -2.200  0.00  0.00    -0.131 OA
ENDROOT
BRANCH   1   4
ATOM      4  C   UNL     1       1.840   5.494  -2.031  0.00  0.00    +0.130 A 
ATOM      5  C   UNL     1       0.698   5.198  -2.753  0.00  0.00    +0.034 A 
ATOM      6  C   UNL     1      -0.096   6.215  -3.251  0.00  0.00    +0.049 A 
ATOM      7  C   UNL     1       0.260   7.535  -3.036  0.00  0.00    +0.142 A 
ATOM      8  C   UNL     1       1.414   7.834  -2.314  0.00  0.00    +0.078 A 
ATOM      9  C   UNL     1       2.202   6.811  -1.812  0.00  0.00    +0.057 A 
ATOM     10  N   UNL     1       1.764   9.176  -2.105  0.00  0.00    -0.280 N 
ATOM     11  C   UNL     1       0.838  10.135  -2.321  0.00  0.00    +0.255 C 
ATOM     12  O   UNL     1       1.127  11.304  -2.176  0.00  0.00    -0.272 OA
ATOM     13  C   UNL     1      -0.556   9.746  -2.743  0.00  0.00    +0.325 C 
ATOM     14  O   UNL     1      -0.506   8.548  -3.522  0.00  0.00    -0.481 OA
ATOM     15  H   UNL     1       2.658   9.412  -1.810  0.00  0.00    +0.155 HD
ENDBRANCH   1   4
BRANCH   1  16
ATOM     16  O   UNL     1       2.322   3.866  -0.000  0.00  0.00    -0.342 OA
BRANCH  16  22
ATOM     17  C   UNL     1      -2.559   3.865   0.045  0.00  0.00    +0.044 C 
ATOM     18  C   UNL     1      -1.242   3.133   0.030  0.00  0.00    -0.047 A 
ATOM     19  C   UNL     1      -1.219   1.750   0.017  0.00  0.00    +0.004 A 
ATOM     20  C   UNL     1      -0.013   1.076   0.008  0.00  0.00    +0.008 A 
ATOM     21  C   UNL     1       1.175   1.782   0.000  0.00  0.00    -0.000 A 
ATOM     22  C   UNL     1       1.155   3.169   0.008  0.00  0.00    +0.160 A 
ATOM     23  C   UNL     1      -0.057   3.844   0.022  0.00  0.00    +0.052 A 
BRANCH  21  24
ATOM     24  C   UNL     1       2.490   1.047  -0.015  0.00  0.00    +0.016 C 
ATOM     25  C   UNL     1       2.594   0.162   1.229  0.00  0.00    +0.012 C 
ATOM     26  C   UNL     1       2.571   0.174  -1.269  0.00  0.00    +0.012 C 
ENDBRANCH  21  24
ENDBRANCH  16  22
ENDBRANCH   1  16
TORSDOF 4
