REMARK  Name = ZINC05456870
REMARK  7 active torsions:
REMARK  status: ('A' for Active; 'I' for Inactive)
REMARK    1  A    between atoms: C_1  and  N_2
REMARK    2  A    between atoms: N_2  and  C_3
REMARK    3  A    between atoms: N_2  and  S_4
REMARK    4  A    between atoms: S_4  and  C_7
REMARK    5  A    between atoms: N_13  and  O_16
REMARK    6  A    between atoms: O_16  and  C_17
REMARK    7  A    between atoms: C_17  and  C_18
REMARK                            x       y       z     vdW  Elec       q    Type
REMARK                         _______ _______ _______ _____ _____    ______ ____
ROOT
ATOM      1  C   UNL     1      -0.017   1.385   0.010  0.00  0.00    +0.108 A 
ATOM      2  C   UNL     1       0.002  -0.004   0.002  0.00  0.00    +0.031 A 
ATOM      3  C   UNL     1       1.184  -0.685  -0.013  0.00  0.00    +0.034 A 
ATOM      4  C   UNL     1       2.394   0.020  -0.021  0.00  0.00    +0.116 A 
ATOM      5  C   UNL     1       2.369   1.425  -0.013  0.00  0.00    +0.132 A 
ATOM      6  C   UNL     1       1.150   2.096   0.002  0.00  0.00    +0.061 A 
ATOM      7  N   UNL     1       3.682   1.831  -0.023  0.00  0.00    -0.077 N 
ATOM      8  N   UNL     1       4.459   0.663  -0.037  0.00  0.00    -0.029 NA
ATOM      9  N   UNL     1       3.686  -0.365  -0.035  0.00  0.00    -0.127 NA
ENDROOT
BRANCH   1  10
ATOM     10  S   UNL     1      -1.559   2.237   0.022  0.00  0.00    +0.060 S 
ATOM     11  O   UNL     1      -1.315   3.526  -0.523  0.00  0.00    -0.153 OA
ATOM     12  O   UNL     1      -2.519   1.347  -0.530  0.00  0.00    -0.153 OA
BRANCH  10  14
ATOM     13  C   UNL     1      -1.552   3.677   2.311  0.00  0.00    +0.131 C 
ATOM     14  N   UNL     1      -1.980   2.465   1.607  0.00  0.00    -0.183 NA
ATOM     15  C   UNL     1      -2.780   1.456   2.305  0.00  0.00    +0.131 C 
ENDBRANCH  10  14
ENDBRANCH   1  10
BRANCH   7  16
ATOM     16  O   UNL     1       4.157   3.165  -0.020  0.00  0.00    -0.388 OA
BRANCH  16  17
ATOM     17  C   UNL     1       5.582   3.274  -0.034  0.00  0.00    +0.299 C 
BRANCH  17  18
ATOM     18  C   UNL     1       5.974   4.729  -0.029  0.00  0.00    +0.011 A 
ATOM     19  C   UNL     1       4.998   5.708  -0.014  0.00  0.00    +0.010 A 
ATOM     20  C   UNL     1       5.356   7.043  -0.009  0.00  0.00    +0.020 A 
ATOM     21  C   UNL     1       6.693   7.400  -0.020  0.00  0.00    +0.042 A 
ATOM     22  C   UNL     1       7.670   6.421  -0.035  0.00  0.00    +0.040 A 
ATOM     23  C   UNL     1       7.311   5.085  -0.034  0.00  0.00    +0.049 A 
ATOM     24 CL   UNL     1       8.537   3.856  -0.046  0.00  0.00    -0.083 Cl
ATOM     25 CL   UNL     1       7.144   9.077  -0.015  0.00  0.00    -0.083 Cl
ENDBRANCH  17  18
ENDBRANCH  16  17
ENDBRANCH   7  16
TORSDOF 5
