REMARK  Name = ZINC25144139
REMARK  4 active torsions:
REMARK  status: ('A' for Active; 'I' for Inactive)
REMARK    1  A    between atoms: C_3  and  N_8
REMARK    2  A    between atoms: C_9  and  C_11
REMARK    3  A    between atoms: C_15  and  C_20
REMARK    4  A    between atoms: C_20  and  C_21
REMARK                            x       y       z     vdW  Elec       q    Type
REMARK                         _______ _______ _______ _____ _____    ______ ____
ROOT
ATOM      1  C   UNL     1       0.789   3.898  -1.896  0.00  0.00    +0.169 C 
ATOM      2  C   UNL     1       1.437   3.903  -0.511  0.00  0.00    +0.101 C 
ATOM      3  S   UNL     1       1.682   2.174   0.006  0.00  0.00    -0.145 S 
ATOM      4  C   UNL     1      -0.022   1.536   0.016  0.00  0.00    +0.136 C 
ATOM      5  C   UNL     1      -0.732   2.027  -1.213  0.00  0.00    +0.227 C 
ATOM      6  O   UNL     1      -1.719   1.412  -1.557  0.00  0.00    -0.275 OA
ATOM      7  N   UNL     1      -0.388   3.061  -1.953  0.00  0.00    -0.302 N 
ATOM      8  H   UNL     1      -1.165   3.255  -2.707  0.00  0.00    +0.150 HD
ENDROOT
BRANCH   1  10
ATOM      9  N   UNL     1       2.742   4.223  -3.379  0.00  0.00    -0.284 N 
ATOM     10  C   UNL     1       1.792   3.395  -2.902  0.00  0.00    +0.238 C 
ATOM     11  O   UNL     1       1.744   2.244  -3.282  0.00  0.00    -0.273 OA
ATOM     12  H   UNL     1       2.739   5.285  -3.093  0.00  0.00    +0.155 HD
BRANCH   9  15
ATOM     13  C   UNL     1       5.997   3.756  -5.025  0.00  0.00    +0.003 A 
ATOM     14  C   UNL     1       5.021   4.245  -4.178  0.00  0.00    +0.023 A 
ATOM     15  C   UNL     1       3.731   3.733  -4.238  0.00  0.00    +0.034 A 
ATOM     16  C   UNL     1       3.424   2.737  -5.156  0.00  0.00    +0.037 A 
ATOM     17  C   UNL     1       4.403   2.255  -6.003  0.00  0.00    +0.015 A 
ATOM     18  C   UNL     1       5.688   2.764  -5.937  0.00  0.00    +0.014 A 
ATOM     19  I   UNL     1       3.942   0.752  -7.388  0.00  0.00    -0.044 I 
ENDBRANCH   9  15
ENDBRANCH   1  10
BRANCH   4  20
ATOM     20  C   UNL     1       0.004   0.006   0.017  0.00  0.00    +0.058 C 
BRANCH  20  21
ATOM     21  C   UNL     1       0.621  -0.485   1.301  0.00  0.00    -0.046 A 
ATOM     22  C   UNL     1       1.985  -0.698   1.375  0.00  0.00    +0.006 A 
ATOM     23  C   UNL     1       2.552  -1.143   2.554  0.00  0.00    +0.038 A 
ATOM     24  C   UNL     1       1.752  -1.387   3.657  0.00  0.00    +0.123 A 
ATOM     25  C   UNL     1       0.386  -1.179   3.580  0.00  0.00    +0.038 A 
ATOM     26  C   UNL     1      -0.179  -0.729   2.402  0.00  0.00    +0.006 A 
ATOM     27  F   UNL     1       2.305  -1.828   4.809  0.00  0.00    -0.205 F 
ENDBRANCH  20  21
ENDBRANCH   4  20
TORSDOF 4
