REMARK  Name = ZINC36353082
REMARK  9 active torsions:
REMARK  status: ('A' for Active; 'I' for Inactive)
REMARK    1  A    between atoms: C_1  and  C_2
REMARK    2  A    between atoms: C_2  and  C_4
REMARK    3  A    between atoms: C_4  and  N_5
REMARK    4  A    between atoms: N_8  and  C_11
REMARK    5  A    between atoms: C_11  and  C_13
REMARK    6  A    between atoms: C_11  and  C_28
REMARK    7  A    between atoms: N_15  and  C_23
REMARK    8  A    between atoms: C_23  and  C_24
REMARK    9  A    between atoms: C_24  and  C_25
REMARK                            x       y       z     vdW  Elec       q    Type
REMARK                         _______ _______ _______ _____ _____    ______ ____
ROOT
ATOM      1  C   UNL     1      -3.799  -1.172   4.696  0.00  0.00    +0.203 C 
ENDROOT
BRANCH   1   2
ATOM      2  C   UNL     1      -5.125  -1.885   4.630  0.00  0.00    +0.006 A 
ATOM      3  C   UNL     1      -5.515  -2.761   3.691  0.00  0.00    +0.092 A 
ATOM      4  N   UNL     1      -6.782  -3.201   3.961  0.00  0.00    -0.346 N 
ATOM      5  C   UNL     1      -7.251  -2.604   5.110  0.00  0.00    +0.050 A 
ATOM      6  C   UNL     1      -6.231  -1.757   5.583  0.00  0.00    +0.005 A 
ATOM      7  C   UNL     1      -6.425  -1.018   6.751  0.00  0.00    +0.011 A 
ATOM      8  C   UNL     1      -7.605  -1.123   7.432  0.00  0.00    +0.016 A 
ATOM      9  C   UNL     1      -8.613  -1.959   6.972  0.00  0.00    +0.020 A 
ATOM     10  C   UNL     1      -8.446  -2.692   5.816  0.00  0.00    +0.041 A 
ATOM     11 BR   UNL     1     -10.236  -2.086   7.934  0.00  0.00    -0.050 Br
BRANCH   4  12
ATOM     12  C   UNL     1      -7.529  -4.165   3.149  0.00  0.00    +0.133 C 
BRANCH  12  13
ATOM     13  C   UNL     1      -8.427  -3.413   2.164  0.00  0.00    +0.146 C 
BRANCH  13  14
ATOM     14  C   UNL     1      -9.196  -4.404   1.328  0.00  0.00    +0.358 C 
ATOM     15  O   UNL     1      -9.040  -5.601   1.504  0.00  0.00    -0.246 OA
ATOM     16  O   UNL     1      -9.974  -4.010   0.476  0.00  0.00    -0.246 OA
ENDBRANCH  13  14
ENDBRANCH  12  13
ENDBRANCH   4  12
ENDBRANCH   1   2
BRANCH   1  20
ATOM     17  N   UNL     1      -2.272   0.397   1.080  0.00  0.00    +0.384 N 
ATOM     18  C   UNL     1      -3.571  -0.286   1.042  0.00  0.00    -0.063 C 
ATOM     19  C   UNL     1      -4.163  -0.336   2.452  0.00  0.00    +0.067 C 
ATOM     20  N   UNL     1      -3.240  -1.053   3.343  0.00  0.00    -0.290 NA
ATOM     21  C   UNL     1      -1.926  -0.394   3.372  0.00  0.00    +0.067 C 
ATOM     22  C   UNL     1      -1.353  -0.344   1.954  0.00  0.00    -0.063 C 
ATOM     23  H   UNL     1      -2.394   1.333   1.437  0.00  0.00    -0.081 HD
BRANCH  17  24
ATOM     24  C   UNL     1      -1.712   0.461  -0.277  0.00  0.00    -0.048 C 
BRANCH  24  26
ATOM     25  C   UNL     1      -2.436   2.825  -1.114  0.00  0.00    +0.036 C 
ATOM     26  C   UNL     1      -2.591   1.326  -1.143  0.00  0.00    -0.096 C 
ATOM     27  C   UNL     1      -3.490   0.775  -1.920  0.00  0.00    +0.005 C 
ENDBRANCH  24  26
ENDBRANCH  17  24
ENDBRANCH   1  20
BRANCH   1  28
ATOM     28  C   UNL     1      -2.850  -1.955   5.565  0.00  0.00    +0.377 C 
ATOM     29  O   UNL     1      -2.882  -1.823   6.777  0.00  0.00    -0.244 OA
ATOM     30  O   UNL     1      -2.049  -2.722   5.057  0.00  0.00    -0.244 OA
ENDBRANCH   1  28
TORSDOF 8
