REMARK  Name = ZINC41019365
REMARK  6 active torsions:
REMARK  status: ('A' for Active; 'I' for Inactive)
REMARK    1  A    between atoms: C_4  and  C_7
REMARK    2  A    between atoms: C_10  and  C_12
REMARK    3  A    between atoms: C_12  and  C_13
REMARK    4  A    between atoms: C_13  and  C_14
REMARK    5  A    between atoms: N_16  and  C_17
REMARK    6  A    between atoms: C_18  and  C_26
REMARK                            x       y       z     vdW  Elec       q    Type
REMARK                         _______ _______ _______ _____ _____    ______ ____
ROOT
ATOM      1  C   UNL     1       6.706  -5.462   1.336  0.00  0.00    +0.218 C 
ATOM      2  O   UNL     1       6.957  -6.000   0.278  0.00  0.00    -0.275 OA
ATOM      3  N   UNL     1       7.002  -6.083   2.495  0.00  0.00    -0.279 N 
ATOM      4  H   UNL     1       6.801  -5.653   3.341  0.00  0.00    +0.155 HD
ENDROOT
BRANCH   3   5
ATOM      5  C   UNL     1       7.595  -7.338   2.478  0.00  0.00    +0.090 A 
ATOM      6  C   UNL     1       7.961  -8.121   3.560  0.00  0.00    +0.084 A 
ATOM      7  C   UNL     1       8.569  -9.408   3.274  0.00  0.00    -0.018 A 
ATOM      8  C   UNL     1       8.699  -9.676   1.956  0.00  0.00    -0.004 A 
ATOM      9  S   UNL     1       8.025  -8.258   1.141  0.00  0.00    -0.077 S 
ATOM     10  C   UNL     1       9.285 -10.911   1.343  0.00  0.00    +0.043 C 
ATOM     11  C   UNL     1      10.061 -11.667   2.431  0.00  0.00    +0.005 C 
ATOM     12  C   UNL     1       9.184 -11.776   3.681  0.00  0.00    +0.005 C 
ATOM     13  C   UNL     1       9.032 -10.399   4.332  0.00  0.00    +0.037 C 
BRANCH   6  14
ATOM     14  C   UNL     1       7.749  -7.679   4.906  0.00  0.00    +0.102 C 
ATOM     15  N   UNL     1       7.582  -7.329   5.973  0.00  0.00    -0.191 NA
ENDBRANCH   6  14
ENDBRANCH   3   5
BRANCH   1  16
ATOM     16  C   UNL     1       6.062  -4.099   1.354  0.00  0.00    +0.105 C 
BRANCH  16  17
ATOM     17  C   UNL     1       5.834  -3.624  -0.082  0.00  0.00    +0.105 C 
BRANCH  17  21
ATOM     18  C   UNL     1       3.695  -0.685  -0.038  0.00  0.00    +0.155 A 
ATOM     19  C   UNL     1       4.932  -0.125  -0.042  0.00  0.00    +0.161 A 
ATOM     20  N   UNL     1       5.827  -1.124  -0.058  0.00  0.00    -0.221 NA
ATOM     21  C   UNL     1       5.191  -2.261  -0.064  0.00  0.00    +0.197 A 
ATOM     22  O   UNL     1       3.872  -2.024  -0.047  0.00  0.00    -0.440 OA
BRANCH  18  26
ATOM     23  C   UNL     1      -0.017   1.379   0.010  0.00  0.00    +0.000 A 
ATOM     24  C   UNL     1       1.168   2.093   0.002  0.00  0.00    +0.001 A 
ATOM     25  C   UNL     1       2.377   1.429  -0.013  0.00  0.00    +0.011 A 
ATOM     26  C   UNL     1       2.403   0.034  -0.021  0.00  0.00    +0.019 A 
ATOM     27  C   UNL     1       1.204  -0.681  -0.013  0.00  0.00    +0.011 A 
ATOM     28  C   UNL     1       0.002  -0.004   0.002  0.00  0.00    +0.001 A 
ENDBRANCH  18  26
ENDBRANCH  17  21
ENDBRANCH  16  17
ENDBRANCH   1  16
TORSDOF 6
