REMARK  Name = ZINC09324031
REMARK  8 active torsions:
REMARK  status: ('A' for Active; 'I' for Inactive)
REMARK    1  A    between atoms: C_7  and  C_11
REMARK    2  A    between atoms: C_11  and  C_12
REMARK    3  A    between atoms: C_12  and  N_13
REMARK    4  A    between atoms: C_14  and  C_16
REMARK    5  A    between atoms: C_16  and  C_33
REMARK    6  A    between atoms: C_17  and  C_18
REMARK    7  A    between atoms: C_21  and  C_23
REMARK    8  A    between atoms: C_27  and  N_29
REMARK                            x       y       z     vdW  Elec       q    Type
REMARK                         _______ _______ _______ _____ _____    ______ ____
ROOT
ATOM      1  C   UNL     1      -0.017   1.428   0.010  0.00  0.00    +0.117 C 
ATOM      2  C   UNL     1      -1.229   2.105   0.019  0.00  0.00    +0.070 C 
ENDROOT
BRANCH   2   3
ATOM      3  C   UNL     1      -2.435   1.387   0.021  0.00  0.00    +0.130 A 
ATOM      4  C   UNL     1      -3.710   1.936   0.036  0.00  0.00    +0.050 A 
ATOM      5  C   UNL     1      -4.607   0.870   0.030  0.00  0.00    +0.050 A 
ATOM      6  C   UNL     1      -3.859  -0.289   0.020  0.00  0.00    +0.136 A 
ATOM      7  O   UNL     1      -2.556   0.042   0.015  0.00  0.00    -0.455 OA
BRANCH   6   8
ATOM      8  C   UNL     1      -4.398  -1.662   0.015  0.00  0.00    +0.020 A 
ATOM      9  C   UNL     1      -5.780  -1.873   0.021  0.00  0.00    +0.013 A 
ATOM     10  C   UNL     1      -6.277  -3.159   0.016  0.00  0.00    +0.023 A 
ATOM     11  C   UNL     1      -5.411  -4.240   0.005  0.00  0.00    +0.071 A 
ATOM     12  C   UNL     1      -4.041  -4.038  -0.000  0.00  0.00    +0.145 A 
ATOM     13  C   UNL     1      -3.530  -2.757  -0.001  0.00  0.00    +0.045 A 
ATOM     14 CL   UNL     1      -6.046  -5.856  -0.000  0.00  0.00    -0.081 Cl
BRANCH  12  15
ATOM     15  N   UNL     1      -3.123  -5.199  -0.011  0.00  0.00    +0.058 N 
ATOM     16  O   UNL     1      -1.918  -5.022  -0.016  0.00  0.00    -0.126 OA
ATOM     17  O   UNL     1      -3.572  -6.331  -0.015  0.00  0.00    -0.126 OA
ENDBRANCH  12  15
ENDBRANCH   6   8
ENDBRANCH   2   3
BRANCH   1  19
ATOM     18  N   UNL     1       2.420   1.521  -0.013  0.00  0.00    -0.310 N 
ATOM     19  C   UNL     1       1.244   2.179   0.002  0.00  0.00    +0.254 C 
ATOM     20  O   UNL     1       1.227   3.396   0.009  0.00  0.00    -0.269 OA
ATOM     21  H   UNL     1       2.433   0.551  -0.018  0.00  0.00    +0.149 HD
BRANCH  18  22
ATOM     22  C   UNL     1       3.678   2.271  -0.021  0.00  0.00    +0.109 C 
BRANCH  22  23
ATOM     23  C   UNL     1       4.855   1.292  -0.037  0.00  0.00    +0.056 C 
BRANCH  23  30
ATOM     24  C   UNL     1       7.490   3.171   3.354  0.00  0.00    +0.001 A 
ATOM     25  C   UNL     1       8.626   3.804   2.868  0.00  0.00    +0.002 A 
ATOM     26  C   UNL     1       8.888   3.837   1.516  0.00  0.00    +0.026 A 
ATOM     27  C   UNL     1       8.007   3.231   0.626  0.00  0.00    +0.047 A 
ATOM     28  C   UNL     1       6.857   2.591   1.124  0.00  0.00    +0.003 A 
ATOM     29  C   UNL     1       6.611   2.570   2.498  0.00  0.00    +0.010 A 
ATOM     30  C   UNL     1       6.149   2.063  -0.046  0.00  0.00    -0.021 A 
ATOM     31  C   UNL     1       6.876   2.392  -1.125  0.00  0.00    +0.087 A 
ATOM     32  N   UNL     1       7.987   3.095  -0.744  0.00  0.00    -0.360 N 
ATOM     33  H   UNL     1       8.662   3.442  -1.348  0.00  0.00    +0.165 HD
ENDBRANCH  23  30
ENDBRANCH  22  23
ENDBRANCH  18  22
ENDBRANCH   1  19
BRANCH   1  34
ATOM     34  C   UNL     1       0.002  -0.004   0.002  0.00  0.00    +0.104 C 
ATOM     35  N   UNL     1       0.018  -1.140  -0.004  0.00  0.00    -0.191 NA
ENDBRANCH   1  34
TORSDOF 8
