REMARK  Name = ZINC39696376
REMARK  9 active torsions:
REMARK  status: ('A' for Active; 'I' for Inactive)
REMARK    1  A    between atoms: C_1  and  C_2
REMARK    2  A    between atoms: C_2  and  C_3
REMARK    3  A    between atoms: C_2  and  C_4
REMARK    4  A    between atoms: C_2  and  S_5
REMARK    5  A    between atoms: S_5  and  C_6
REMARK    6  A    between atoms: C_6  and  C_7
REMARK    7  A    between atoms: C_7  and  N_8
REMARK    8  A    between atoms: C_9  and  C_11
REMARK    9  A    between atoms: C_22  and  C_24
REMARK                            x       y       z     vdW  Elec       q    Type
REMARK                         _______ _______ _______ _____ _____    ______ ____
ROOT
ATOM      1  C   UNL     1       6.774   0.739  -3.448  0.00  0.00    +0.100 C 
ATOM      2  C   UNL     1       6.828   2.277  -3.576  0.00  0.00    +0.121 C 
ATOM      3  N   UNL     1       8.108   2.551  -4.271  0.00  0.00    -0.296 N 
ATOM      4  C   UNL     1       8.211   1.476  -5.287  0.00  0.00    +0.115 C 
ATOM      5  C   UNL     1       7.682   0.217  -4.574  0.00  0.00    -0.004 C 
ATOM      6  C   UNL     1       8.841  -0.584  -3.988  0.00  0.00    -0.010 C 
ATOM      7  C   UNL     1       9.699  -1.140  -5.129  0.00  0.00    -0.082 C 
ATOM      8  N   UNL     1       8.874  -1.994  -5.992  0.00  0.00    +0.379 N 
ATOM      9  C   UNL     1       7.816  -1.196  -6.623  0.00  0.00    -0.082 C 
ATOM     10  C   UNL     1       6.880  -0.642  -5.546  0.00  0.00    -0.010 C 
ATOM     11  C   UNL     1       8.980   3.550  -4.033  0.00  0.00    +0.247 C 
ATOM     12  O   UNL     1       9.950   3.694  -4.752  0.00  0.00    -0.270 OA
ATOM     13  H   UNL     1       9.454  -2.408  -6.707  0.00  0.00    -0.086 HD
ATOM     14  H   UNL     1       8.455  -2.726  -5.437  0.00  0.00    -0.086 HD
ENDROOT
BRANCH  11  15
ATOM     15  C   UNL     1       8.758   4.470  -2.899  0.00  0.00    +0.045 A 
ATOM     16  C   UNL     1       7.512   5.085  -2.727  0.00  0.00    +0.014 A 
ATOM     17  C   UNL     1       7.301   5.943  -1.670  0.00  0.00    +0.001 A 
ATOM     18  C   UNL     1       8.319   6.209  -0.767  0.00  0.00    +0.012 A 
ATOM     19  C   UNL     1       9.564   5.609  -0.920  0.00  0.00    +0.031 A 
ATOM     20  C   UNL     1       9.791   4.728  -1.989  0.00  0.00    +0.006 A 
ATOM     21  C   UNL     1      11.188   4.232  -1.910  0.00  0.00    -0.006 A 
ATOM     22  C   UNL     1      11.908   3.357  -2.713  0.00  0.00    +0.009 A 
ATOM     23  C   UNL     1      13.227   3.059  -2.405  0.00  0.00    +0.001 A 
ATOM     24  C   UNL     1      13.833   3.627  -1.302  0.00  0.00    +0.001 A 
ATOM     25  C   UNL     1      13.128   4.502  -0.490  0.00  0.00    +0.012 A 
ATOM     26  C   UNL     1      11.806   4.809  -0.788  0.00  0.00    +0.030 A 
ATOM     27  C   UNL     1      10.817   5.699  -0.133  0.00  0.00    +0.194 C 
ATOM     28  O   UNL     1      10.995   6.365   0.867  0.00  0.00    -0.287 OA
ENDBRANCH  11  15
BRANCH   1  30
ATOM     29  N   UNL     1       4.995  -0.954  -3.150  0.00  0.00    -0.314 N 
ATOM     30  C   UNL     1       5.363   0.246  -3.642  0.00  0.00    +0.218 C 
ATOM     31  O   UNL     1       4.558   0.928  -4.240  0.00  0.00    -0.275 OA
ATOM     32  H   UNL     1       5.638  -1.500  -2.672  0.00  0.00    +0.149 HD
BRANCH  29  33
ATOM     33  C   UNL     1       3.623  -1.433  -3.338  0.00  0.00    +0.115 C 
BRANCH  33  34
ATOM     34  C   UNL     1       3.470  -2.811  -2.690  0.00  0.00    +0.088 C 
BRANCH  34  35
ATOM     35  S   UNL     1       1.772  -3.404  -2.923  0.00  0.00    -0.153 S 
BRANCH  35  37
ATOM     36  C   UNL     1       2.111  -4.854  -0.628  0.00  0.00    +0.022 C 
ATOM     37  C   UNL     1       1.758  -5.024  -2.107  0.00  0.00    +0.008 C 
ATOM     38  C   UNL     1       2.785  -5.940  -2.775  0.00  0.00    +0.022 C 
ATOM     39  C   UNL     1       0.365  -5.645  -2.231  0.00  0.00    +0.022 C 
ENDBRANCH  35  37
ENDBRANCH  34  35
ENDBRANCH  33  34
ENDBRANCH  29  33
ENDBRANCH   1  30
TORSDOF 6
