REMARK  Name = ZINC02220024
REMARK  2 active torsions:
REMARK  status: ('A' for Active; 'I' for Inactive)
REMARK    1  A    between atoms: C_4  and  C_7
REMARK    2  A    between atoms: C_10  and  C_19
REMARK                            x       y       z     vdW  Elec       q    Type
REMARK                         _______ _______ _______ _____ _____    ______ ____
ROOT
ATOM      1  C   UNL     1       3.711  -0.707  -0.038  0.00  0.00    +0.143 C 
ATOM      2  C   UNL     1       3.791  -1.587  -1.291  0.00  0.00    +0.058 C 
ATOM      3  C   UNL     1       4.989  -2.538  -1.180  0.00  0.00    +0.106 C 
ATOM      4  N   UNL     1       4.779  -3.425  -0.020  0.00  0.00    -0.307 N 
ATOM      5  C   UNL     1       4.307  -2.821   1.138  0.00  0.00    +0.216 A 
ATOM      6  N   UNL     1       3.812  -1.558   1.147  0.00  0.00    -0.224 N 
ATOM      7  N   UNL     1       3.443  -1.282   2.464  0.00  0.00    -0.132 NA
ATOM      8  C   UNL     1       3.722  -2.355   3.170  0.00  0.00    +0.233 A 
ATOM      9  N   UNL     1       4.245  -3.291   2.355  0.00  0.00    -0.180 NA
ATOM     10  N   UNL     1       3.508  -2.502   4.541  0.00  0.00    -0.326 N 
ATOM     11  H   UNL     1       4.961  -4.377  -0.063  0.00  0.00    +0.149 HD
ATOM     12  H   UNL     1       3.121  -1.774   5.052  0.00  0.00    +0.145 HD
ATOM     13  H   UNL     1       3.745  -3.332   4.983  0.00  0.00    +0.145 HD
ENDROOT
BRANCH   3  14
ATOM     14  C   UNL     1       6.252  -1.740  -0.990  0.00  0.00    -0.026 A 
ATOM     15  C   UNL     1       6.579  -1.250   0.261  0.00  0.00    +0.007 A 
ATOM     16  C   UNL     1       7.737  -0.517   0.437  0.00  0.00    +0.022 A 
ATOM     17  C   UNL     1       8.572  -0.274  -0.639  0.00  0.00    +0.059 A 
ATOM     18  C   UNL     1       8.245  -0.765  -1.892  0.00  0.00    +0.060 A 
ATOM     19  C   UNL     1       7.088  -1.502  -2.065  0.00  0.00    +0.027 A 
ATOM     20 CL   UNL     1       9.291  -0.460  -3.244  0.00  0.00    -0.082 Cl
ATOM     21 CL   UNL     1      10.027   0.647  -0.419  0.00  0.00    -0.082 Cl
ENDBRANCH   3  14
BRANCH   1  25
ATOM     22  C   UNL     1      -0.017   1.378   0.010  0.00  0.00    +0.000 A 
ATOM     23  C   UNL     1       1.171   2.086   0.002  0.00  0.00    +0.000 A 
ATOM     24  C   UNL     1       2.377   1.411  -0.013  0.00  0.00    +0.006 A 
ATOM     25  C   UNL     1       2.396   0.029  -0.020  0.00  0.00    -0.023 A 
ATOM     26  C   UNL     1       1.208  -0.679  -0.012  0.00  0.00    +0.006 A 
ATOM     27  C   UNL     1       0.002  -0.004   0.002  0.00  0.00    +0.000 A 
ENDBRANCH   1  25
TORSDOF 2
