REMARK  Name = ZINC35132484
REMARK  11 active torsions:
REMARK  status: ('A' for Active; 'I' for Inactive)
REMARK    1  A    between atoms: C_1  and  C_2
REMARK    2  A    between atoms: C_2  and  O_3
REMARK    3  A    between atoms: O_3  and  C_4
REMARK    4  A    between atoms: C_4  and  C_6
REMARK    5  A    between atoms: C_10  and  N_11
REMARK    6  A    between atoms: C_12  and  C_14
REMARK    7  A    between atoms: C_18  and  N_23
REMARK    8  A    between atoms: C_26  and  C_32
REMARK    9  A    between atoms: C_26  and  C_33
REMARK   10  A    between atoms: C_28  and  C_30
REMARK   11  A    between atoms: C_28  and  C_31
REMARK                            x       y       z     vdW  Elec       q    Type
REMARK                         _______ _______ _______ _____ _____    ______ ____
ROOT
ATOM      1  C   UNL     1       1.449  -2.344  -2.516  0.00  0.00    +0.091 A 
ATOM      2  C   UNL     1       2.868  -2.618  -2.533  0.00  0.00    -0.024 A 
ATOM      3  C   UNL     1       3.334  -3.114  -3.703  0.00  0.00    -0.016 A 
ATOM      4  S   UNL     1       1.904  -3.214  -4.738  0.00  0.00    -0.079 S 
ATOM      5  C   UNL     1       0.741  -2.622  -3.680  0.00  0.00    +0.087 A 
ATOM      6  C   UNL     1       4.748  -3.476  -4.010  0.00  0.00    -0.041 C 
ATOM      7  N   UNL     1       5.602  -3.443  -2.824  0.00  0.00    +0.389 N 
ATOM      8  C   UNL     1       4.931  -3.497  -1.532  0.00  0.00    -0.069 C 
ATOM      9  C   UNL     1       3.855  -2.412  -1.394  0.00  0.00    +0.024 C 
ATOM     10  C   UNL     1       4.300  -4.872  -1.297  0.00  0.00    -0.010 C 
ATOM     11  C   UNL     1       5.980  -3.263  -0.429  0.00  0.00    -0.010 C 
ATOM     12  C   UNL     1       5.294  -2.466  -5.038  0.00  0.00    -0.005 C 
ATOM     13  C   UNL     1       4.790  -4.870  -4.652  0.00  0.00    -0.005 C 
ATOM     14  H   UNL     1       6.262  -4.222  -2.877  0.00  0.00    -0.084 HD
ATOM     15  H   UNL     1       6.173  -2.597  -2.857  0.00  0.00    -0.084 HD
ENDROOT
BRANCH   5  16
ATOM     16  N   UNL     1      -0.613  -2.449  -3.913  0.00  0.00    -0.275 N 
ATOM     17  C   UNL     1      -1.138  -2.774  -5.111  0.00  0.00    +0.255 C 
ATOM     18  O   UNL     1      -0.422  -3.218  -5.988  0.00  0.00    -0.269 OA
ATOM     19  H   UNL     1      -1.184  -2.095  -3.213  0.00  0.00    +0.156 HD
BRANCH  17  20
ATOM     20  C   UNL     1      -2.575  -2.591  -5.357  0.00  0.00    +0.075 A 
ATOM     21  C   UNL     1      -3.282  -2.862  -6.487  0.00  0.00    +0.029 A 
ATOM     22  C   UNL     1      -4.666  -2.615  -6.524  0.00  0.00    -0.008 A 
ATOM     23  C   UNL     1      -5.568  -2.829  -7.598  0.00  0.00    +0.041 A 
ATOM     24  C   UNL     1      -6.886  -2.533  -7.468  0.00  0.00    +0.127 A 
ATOM     25  C   UNL     1      -7.403  -2.012  -6.287  0.00  0.00    +0.034 A 
ATOM     26  C   UNL     1      -6.561  -1.788  -5.217  0.00  0.00    +0.018 A 
ATOM     27  C   UNL     1      -5.220  -2.084  -5.335  0.00  0.00    +0.020 A 
ATOM     28  S   UNL     1      -3.822  -1.964  -4.246  0.00  0.00    -0.084 S 
BRANCH  24  29
ATOM     29  N   UNL     1      -7.796  -2.771  -8.611  0.00  0.00    +0.056 N 
ATOM     30  O   UNL     1      -7.362  -3.223  -9.645  0.00  0.00    -0.126 OA
ATOM     31  O   UNL     1      -8.973  -2.512  -8.511  0.00  0.00    -0.126 OA
ENDBRANCH  24  29
ENDBRANCH  17  20
ENDBRANCH   5  16
BRANCH   1  32
ATOM     32  C   UNL     1       0.776  -1.800  -1.335  0.00  0.00    +0.342 C 
ATOM     33  O   UNL     1       0.312  -2.552  -0.499  0.00  0.00    -0.245 OA
BRANCH  32  34
ATOM     34  O   UNL     1       0.671  -0.465  -1.174  0.00  0.00    -0.461 OA
BRANCH  34  36
ATOM     35  C   UNL     1      -0.019   1.526   0.010  0.00  0.00    +0.048 C 
ATOM     36  C   UNL     1       0.002  -0.004   0.002  0.00  0.00    +0.229 C 
ENDBRANCH  34  36
ENDBRANCH  32  34
ENDBRANCH   1  32
TORSDOF 6
