REMARK  Name = ZINC49127111
REMARK  6 active torsions:
REMARK  status: ('A' for Active; 'I' for Inactive)
REMARK    1  A    between atoms: C_1  and  C_2
REMARK    2  A    between atoms: C_2  and  C_4
REMARK    3  A    between atoms: C_2  and  N_10
REMARK    4  A    between atoms: N_10  and  S_11
REMARK    5  A    between atoms: S_11  and  C_14
REMARK    6  A    between atoms: C_17  and  N_21
REMARK                            x       y       z     vdW  Elec       q    Type
REMARK                         _______ _______ _______ _____ _____    ______ ____
ROOT
ATOM      1  S   UNL     1      -0.139  -0.902   2.549  0.00  0.00    +0.064 S 
ATOM      2  O   UNL     1       0.814  -1.354   3.502  0.00  0.00    -0.153 OA
ATOM      3  O   UNL     1      -1.030   0.173   2.814  0.00  0.00    -0.153 OA
ENDROOT
BRANCH   1   4
ATOM      4  C   UNL     1      -1.137  -2.294   2.137  0.00  0.00    +0.175 A 
ATOM      5  C   UNL     1      -2.416  -2.105   1.639  0.00  0.00    +0.154 A 
ATOM      6  C   UNL     1      -3.201  -3.196   1.315  0.00  0.00    +0.063 A 
ATOM      7  C   UNL     1      -2.708  -4.483   1.490  0.00  0.00    +0.030 A 
ATOM      8  C   UNL     1      -1.425  -4.670   1.990  0.00  0.00    +0.063 A 
ATOM      9  C   UNL     1      -0.641  -3.576   2.307  0.00  0.00    +0.154 A 
ATOM     10  F   UNL     1       0.608  -3.757   2.788  0.00  0.00    -0.203 F 
ATOM     11  F   UNL     1      -2.895  -0.854   1.469  0.00  0.00    -0.203 F 
BRANCH   7  12
ATOM     12  N   UNL     1      -3.500  -5.586   1.165  0.00  0.00    -0.358 N 
ATOM     13  H   UNL     1      -4.395  -5.454   0.816  0.00  0.00    +0.142 HD
ATOM     14  H   UNL     1      -3.154  -6.484   1.287  0.00  0.00    +0.142 HD
ENDBRANCH   7  12
ENDBRANCH   1   4
BRANCH   1  15
ATOM     15  N   UNL     1       0.711  -0.489   1.189  0.00  0.00    -0.182 NA
ATOM     16  H   UNL     1       1.677  -0.569   1.178  0.00  0.00    +0.149 HD
BRANCH  15  18
ATOM     17  C   UNL     1      -0.019   1.526   0.010  0.00  0.00    +0.031 C 
ATOM     18  C   UNL     1       0.002  -0.004   0.002  0.00  0.00    +0.110 C 
BRANCH  18  19
ATOM     19  C   UNL     1       0.707  -0.490  -1.238  0.00  0.00    +0.009 A 
ATOM     20  C   UNL     1       0.176  -0.943  -2.400  0.00  0.00    +0.014 A 
ATOM     21  C   UNL     1       1.026  -1.341  -3.415  0.00  0.00    +0.028 A 
ATOM     22  C   UNL     1       2.366  -1.267  -3.218  0.00  0.00    +0.078 A 
ATOM     23  S   UNL     1       2.459  -0.612  -1.560  0.00  0.00    -0.080 S 
ATOM     24 CL   UNL     1       3.656  -1.693  -4.299  0.00  0.00    -0.076 Cl
ENDBRANCH  18  19
ENDBRANCH  15  18
ENDBRANCH   1  15
TORSDOF 5
