REMARK  Name = ZINC09345900
REMARK  9 active torsions:
REMARK  status: ('A' for Active; 'I' for Inactive)
REMARK    1  A    between atoms: C_1  and  C_2
REMARK    2  A    between atoms: C_5  and  C_8
REMARK    3  A    between atoms: C_19  and  C_21
REMARK    4  A    between atoms: C_24  and  O_29
REMARK    5  A    between atoms: C_26  and  O_27
REMARK    6  A    between atoms: O_27  and  C_28
REMARK    7  A    between atoms: O_29  and  C_30
REMARK    8  A    between atoms: C_35  and  S_37
REMARK    9  A    between atoms: S_37  and  C_38
REMARK                            x       y       z     vdW  Elec       q    Type
REMARK                         _______ _______ _______ _____ _____    ______ ____
ROOT
ATOM      1  C   UNL     1       0.086  -4.146  -0.143  0.00  0.00    +0.159 C 
ATOM      2  C   UNL     1      -1.296  -4.711   0.101  0.00  0.00    +0.025 C 
ATOM      3  C   UNL     1      -1.471  -5.524   1.163  0.00  0.00    +0.058 C 
ATOM      4  C   UNL     1      -2.836  -6.063   1.395  0.00  0.00    +0.040 A 
ATOM      5  C   UNL     1      -3.055  -7.139   2.244  0.00  0.00    +0.013 A 
ATOM      6  C   UNL     1      -4.341  -7.610   2.430  0.00  0.00    +0.001 A 
ATOM      7  C   UNL     1      -5.403  -7.014   1.772  0.00  0.00    +0.004 A 
ATOM      8  C   UNL     1      -5.192  -5.941   0.925  0.00  0.00    +0.046 A 
ATOM      9  C   UNL     1      -3.910  -5.458   0.731  0.00  0.00    +0.131 A 
ATOM     10  O   UNL     1      -3.675  -4.403  -0.090  0.00  0.00    -0.479 OA
ATOM     11  C   UNL     1      -2.443  -4.388  -0.812  0.00  0.00    +0.238 C 
ATOM     12  N   UNL     1      -0.446  -5.840   1.991  0.00  0.00    -0.326 N 
ATOM     13  C   UNL     1       0.785  -5.394   1.851  0.00  0.00    +0.216 C 
ATOM     14  N   UNL     1       1.120  -4.547   0.818  0.00  0.00    -0.209 N 
ATOM     15  N   UNL     1       2.480  -4.260   0.958  0.00  0.00    -0.239 N 
ATOM     16  C   UNL     1       2.907  -4.945   2.066  0.00  0.00    +0.174 C 
ATOM     17  N   UNL     1       1.899  -5.608   2.574  0.00  0.00    -0.192 NA
ATOM     18  H   UNL     1      -0.631  -6.434   2.735  0.00  0.00    +0.169 HD
ATOM     19  H   UNL     1       3.016  -3.690   0.385  0.00  0.00    +0.172 HD
ENDROOT
BRANCH   1  24
ATOM     20  C   UNL     1      -0.293   1.621  -0.084  0.00  0.00    +0.044 C 
ATOM     21  C   UNL     1      -0.194   0.117  -0.099  0.00  0.00    -0.050 A 
ATOM     22  C   UNL     1      -0.213  -0.565  -1.302  0.00  0.00    +0.004 A 
ATOM     23  C   UNL     1      -0.122  -1.944  -1.316  0.00  0.00    +0.006 A 
ATOM     24  C   UNL     1      -0.012  -2.642  -0.127  0.00  0.00    -0.021 A 
ATOM     25  C   UNL     1       0.007  -1.960   1.075  0.00  0.00    +0.006 A 
ATOM     26  C   UNL     1      -0.079  -0.580   1.089  0.00  0.00    +0.004 A 
ENDBRANCH   1  24
BRANCH  11  27
ATOM     27  C   UNL     1      -2.501  -5.410  -1.919  0.00  0.00    +0.039 A 
ATOM     28  C   UNL     1      -3.317  -6.518  -1.793  0.00  0.00    +0.015 A 
ATOM     29  C   UNL     1      -3.373  -7.456  -2.805  0.00  0.00    +0.046 A 
ATOM     30  C   UNL     1      -2.609  -7.288  -3.952  0.00  0.00    +0.124 A 
ATOM     31  C   UNL     1      -1.789  -6.177  -4.080  0.00  0.00    +0.091 A 
ATOM     32  C   UNL     1      -1.739  -5.234  -3.065  0.00  0.00    +0.131 A 
BRANCH  32  33
ATOM     33  O   UNL     1      -0.942  -4.141  -3.191  0.00  0.00    -0.495 OA
ATOM     34  C   UNL     1      -0.185  -4.025  -4.398  0.00  0.00    +0.277 C 
ENDBRANCH  32  33
BRANCH  30  35
ATOM     35  O   UNL     1      -2.663  -8.211  -4.947  0.00  0.00    -0.495 OA
ATOM     36  C   UNL     1      -3.529  -9.331  -4.747  0.00  0.00    +0.277 C 
ENDBRANCH  30  35
ENDBRANCH  11  27
BRANCH  16  37
ATOM     37  S   UNL     1       4.550  -4.940   2.701  0.00  0.00    -0.092 S 
ATOM     38  C   UNL     1       4.463  -6.022   4.154  0.00  0.00    +0.093 C 
ENDBRANCH  16  37
TORSDOF 5
