REMARK  Name = ZINC12150945
REMARK  12 active torsions:
REMARK  status: ('A' for Active; 'I' for Inactive)
REMARK    1  A    between atoms: C_1  and  C_2
REMARK    2  A    between atoms: C_2  and  N_3
REMARK    3  A    between atoms: C_4  and  C_6
REMARK    4  A    between atoms: N_8  and  C_30
REMARK    5  A    between atoms: C_10  and  C_13
REMARK    6  A    between atoms: N_15  and  C_16
REMARK    7  A    between atoms: C_16  and  C_18
REMARK    8  A    between atoms: C_16  and  C_19
REMARK    9  A    between atoms: C_25  and  C_29
REMARK   10  A    between atoms: C_30  and  C_31
REMARK   11  A    between atoms: C_31  and  C_32
REMARK   12  A    between atoms: C_31  and  C_33
REMARK                            x       y       z     vdW  Elec       q    Type
REMARK                         _______ _______ _______ _____ _____    ______ ____
ROOT
ATOM      1  C   UNL     1      -3.812   1.996   0.031  0.00  0.00    +0.100 A 
ATOM      2  C   UNL     1      -3.703   3.369   0.038  0.00  0.00    +0.102 A 
ATOM      3  N   UNL     1      -2.504   3.976   0.036  0.00  0.00    -0.351 N 
ATOM      4  C   UNL     1      -1.339   3.308   0.026  0.00  0.00    +0.102 A 
ATOM      5  C   UNL     1      -1.300   1.931   0.019  0.00  0.00    +0.100 A 
ATOM      6  C   UNL     1      -2.576   1.196   0.015  0.00  0.00    +0.206 A 
ATOM      7  O   UNL     1      -2.607  -0.023   0.003  0.00  0.00    -0.286 OA
ENDROOT
BRANCH   1   9
ATOM      8  N   UNL     1      -6.254   2.092   0.041  0.00  0.00    -0.311 N 
ATOM      9  C   UNL     1      -5.133   1.344   0.032  0.00  0.00    +0.249 C 
ATOM     10  O   UNL     1      -5.212   0.130   0.026  0.00  0.00    -0.270 OA
ATOM     11  H   UNL     1      -6.191   3.060   0.047  0.00  0.00    +0.149 HD
BRANCH   8  13
ATOM     12  C   UNL     1      -8.664   2.511   0.054  0.00  0.00    +0.024 C 
ATOM     13  C   UNL     1      -7.568   1.444   0.043  0.00  0.00    +0.101 C 
ENDBRANCH   8  13
ENDBRANCH   1   9
BRANCH   5  14
ATOM     14  C   UNL     1      -0.014   1.212   0.009  0.00  0.00    +0.250 C 
ATOM     15  O   UNL     1       0.002  -0.004   0.002  0.00  0.00    -0.270 OA
ATOM     16  N   UNL     1       1.143   1.902   0.001  0.00  0.00    -0.302 N 
ATOM     17  H   UNL     1       1.130   2.872   0.007  0.00  0.00    +0.150 HD
BRANCH  16  18
ATOM     18  C   UNL     1       2.422   1.187  -0.015  0.00  0.00    +0.136 C 
ATOM     19  C   UNL     1       2.792   0.836  -1.457  0.00  0.00    +0.036 C 
BRANCH  18  20
ATOM     20  C   UNL     1       3.495   2.062   0.580  0.00  0.00    +0.128 A 
ATOM     21  N   UNL     1       4.635   1.607   1.167  0.00  0.00    -0.340 N 
ATOM     22  H   UNL     1       4.903   0.651   1.280  0.00  0.00    +0.167 HD
ATOM     23  C   UNL     1       5.353   2.712   1.578  0.00  0.00    +0.066 A 
ATOM     24  C   UNL     1       6.570   2.889   2.223  0.00  0.00    +0.028 A 
ATOM     25  C   UNL     1       7.015   4.163   2.504  0.00  0.00    +0.005 A 
ATOM     26  C   UNL     1       6.255   5.268   2.147  0.00  0.00    -0.048 A 
ATOM     27  C   UNL     1       5.055   5.114   1.513  0.00  0.00    +0.033 A 
ATOM     28  C   UNL     1       4.584   3.832   1.218  0.00  0.00    +0.089 A 
ATOM     29  N   UNL     1       3.463   3.362   0.613  0.00  0.00    -0.231 NA
ATOM     30  C   UNL     1       6.759   6.653   2.462  0.00  0.00    +0.044 C 
ENDBRANCH  18  20
ENDBRANCH  16  18
ENDBRANCH   5  14
BRANCH   3  31
ATOM     31  C   UNL     1      -2.466   5.440   0.043  0.00  0.00    +0.124 C 
BRANCH  31  32
ATOM     32  C   UNL     1      -2.461   5.958  -1.397  0.00  0.00    +0.003 C 
ATOM     33  C   UNL     1      -2.547   7.485  -1.391  0.00  0.00    +0.009 C 
ATOM     34  C   UNL     1      -1.167   5.523  -2.090  0.00  0.00    +0.009 C 
ENDBRANCH  31  32
ENDBRANCH   3  31
TORSDOF 7
