REMARK  Name = ZINC10931097
REMARK  8 active torsions:
REMARK  status: ('A' for Active; 'I' for Inactive)
REMARK    1  A    between atoms: C_1  and  C_2
REMARK    2  A    between atoms: C_2  and  C_3
REMARK    3  A    between atoms: C_2  and  N_51
REMARK    4  A    between atoms: C_4  and  C_5
REMARK    5  A    between atoms: C_4  and  N_51
REMARK    6  A    between atoms: C_11  and  C_12
REMARK    7  A    between atoms: C_11  and  N_51
REMARK    8  A    between atoms: C_19  and  C_23
REMARK                            x       y       z     vdW  Elec       q    Type
REMARK                         _______ _______ _______ _____ _____    ______ ____
ROOT
ATOM      1  C   UNL     1      -3.359   3.492  -0.106  0.00  0.00    +0.094 A 
ATOM      2  N   UNL     1      -3.475   2.144   0.005  0.00  0.00    -0.312 N 
ATOM      3  H   UNL     1      -4.322   1.762   0.281  0.00  0.00    +0.170 HD
ATOM      4  C   UNL     1      -2.439   1.327  -0.261  0.00  0.00    +0.260 A 
ATOM      5  O   UNL     1      -2.562   0.119  -0.156  0.00  0.00    -0.267 OA
ATOM      6  C   UNL     1      -1.188   1.900  -0.670  0.00  0.00    +0.073 A 
ATOM      7  C   UNL     1       0.014   1.251  -0.995  0.00  0.00    +0.031 A 
ATOM      8  C   UNL     1       1.096   1.981  -1.369  0.00  0.00    +0.022 A 
ATOM      9  S   UNL     1       0.492   3.658  -1.279  0.00  0.00    -0.068 S 
ATOM     10  C   UNL     1      -1.166   3.307  -0.751  0.00  0.00    +0.116 A 
ATOM     11  N   UNL     1      -2.232   4.046  -0.467  0.00  0.00    -0.229 NA
ENDROOT
BRANCH   8  12
ATOM     12  C   UNL     1       2.442   1.504  -1.753  0.00  0.00    -0.011 A 
ATOM     13  C   UNL     1       2.727   0.138  -1.756  0.00  0.00    +0.009 A 
ATOM     14  C   UNL     1       3.983  -0.300  -2.121  0.00  0.00    +0.001 A 
ATOM     15  C   UNL     1       4.962   0.612  -2.473  0.00  0.00    +0.000 A 
ATOM     16  C   UNL     1       4.688   1.968  -2.467  0.00  0.00    +0.001 A 
ATOM     17  C   UNL     1       3.434   2.419  -2.110  0.00  0.00    +0.009 A 
ENDBRANCH   8  12
BRANCH   1  18
ATOM     18  C   UNL     1      -4.547   4.365   0.203  0.00  0.00    -0.002 C 
BRANCH  18  19
ATOM     19  N   UNL     1      -4.129   5.781   0.126  0.00  0.00    +0.389 N 
ATOM     20  H   UNL     1      -3.574   5.919  -0.727  0.00  0.00    -0.080 HD
BRANCH  19  22
ATOM     21  C   UNL     1      -5.997   6.480  -1.289  0.00  0.00    -0.013 C 
ATOM     22  C   UNL     1      -5.319   6.657   0.070  0.00  0.00    -0.074 C 
ATOM     23  C   UNL     1      -6.304   6.294   1.183  0.00  0.00    -0.013 C 
ENDBRANCH  19  22
BRANCH  19  24
ATOM     24  C   UNL     1      -3.301   6.128   1.300  0.00  0.00    -0.042 C 
BRANCH  24  25
ATOM     25  C   UNL     1      -2.709   7.498   1.090  0.00  0.00    -0.064 A 
ATOM     26  C   UNL     1      -1.489   7.633   0.454  0.00  0.00    +0.002 A 
ATOM     27  C   UNL     1      -0.948   8.890   0.257  0.00  0.00    +0.000 A 
ATOM     28  C   UNL     1      -1.623  10.011   0.705  0.00  0.00    +0.000 A 
ATOM     29  C   UNL     1      -2.840   9.875   1.345  0.00  0.00    +0.000 A 
ATOM     30  C   UNL     1      -3.383   8.618   1.537  0.00  0.00    +0.002 A 
ENDBRANCH  24  25
ENDBRANCH  19  24
ENDBRANCH  18  19
ENDBRANCH   1  18
TORSDOF 6
