REMARK  Name = ZINC08435882
REMARK  5 active torsions:
REMARK  status: ('A' for Active; 'I' for Inactive)
REMARK    1  A    between atoms: C_4  and  C_7
REMARK    2  A    between atoms: C_7  and  C_23
REMARK    3  A    between atoms: C_8  and  C_9
REMARK    4  A    between atoms: N_13  and  C_14
REMARK    5  A    between atoms: C_17  and  N_20
REMARK                            x       y       z     vdW  Elec       q    Type
REMARK                         _______ _______ _______ _____ _____    ______ ____
ROOT
ATOM      1  C   UNL     1      -3.471   1.206   0.929  0.00  0.00    +0.048 A 
ATOM      2  C   UNL     1      -4.566   0.327   0.482  0.00  0.00    +0.027 A 
ATOM      3  C   UNL     1      -4.122  -0.291  -0.648  0.00  0.00    +0.020 A 
ATOM      4  C   UNL     1      -2.830   0.158  -0.921  0.00  0.00    +0.092 A 
ATOM      5  N   UNL     1      -2.442   1.047   0.009  0.00  0.00    -0.316 N 
ENDROOT
BRANCH   5   6
ATOM      6  C   UNL     1      -1.204   1.701   0.048  0.00  0.00    +0.047 A 
ATOM      7  C   UNL     1      -0.027   0.963   0.052  0.00  0.00    +0.028 A 
ATOM      8  C   UNL     1       1.192   1.611   0.085  0.00  0.00    +0.035 A 
ATOM      9  C   UNL     1       1.242   2.993   0.120  0.00  0.00    +0.126 A 
ATOM     10  C   UNL     1       0.072   3.730   0.122  0.00  0.00    +0.035 A 
ATOM     11  C   UNL     1      -1.150   3.088   0.090  0.00  0.00    +0.028 A 
BRANCH   9  12
ATOM     12  N   UNL     1       2.551   3.683   0.154  0.00  0.00    +0.056 N 
ATOM     13  O   UNL     1       3.666   2.983   0.152  0.00  0.00    -0.126 OA
ATOM     14  O   UNL     1       2.600   4.999   0.188  0.00  0.00    -0.126 OA
ENDBRANCH   9  12
ENDBRANCH   5   6
BRANCH   1  16
ATOM     15  C   UNL     1      -4.580   1.968   2.991  0.00  0.00    +0.061 C 
ATOM     16  C   UNL     1      -3.470   2.024   2.038  0.00  0.00    +0.045 C 
BRANCH  15  20
ATOM     17  C   UNL     1      -4.804   4.748   6.107  0.00  0.00    +0.000 A 
ATOM     18  C   UNL     1      -5.779   4.741   5.119  0.00  0.00    +0.001 A 
ATOM     19  C   UNL     1      -5.716   3.838   4.096  0.00  0.00    +0.009 A 
ATOM     20  C   UNL     1      -4.656   2.910   4.047  0.00  0.00    -0.008 A 
ATOM     21  C   UNL     1      -3.675   2.923   5.059  0.00  0.00    +0.009 A 
ATOM     22  C   UNL     1      -3.755   3.840   6.069  0.00  0.00    +0.001 A 
ENDBRANCH  15  20
BRANCH  15  23
ATOM     23  C   UNL     1      -5.589   0.961   2.856  0.00  0.00    +0.100 C 
ATOM     24  N   UNL     1      -6.390   0.162   2.749  0.00  0.00    -0.191 NA
ENDBRANCH  15  23
ENDBRANCH   1  16
TORSDOF 5
