REMARK  Name = ZINC53628699
REMARK  9 active torsions:
REMARK  status: ('A' for Active; 'I' for Inactive)
REMARK    1  A    between atoms: C_1  and  C_2
REMARK    2  A    between atoms: C_3  and  C_31
REMARK    3  A    between atoms: C_14  and  C_19
REMARK    4  A    between atoms: C_16  and  C_18
REMARK    5  A    between atoms: C_19  and  C_20
REMARK    6  A    between atoms: C_20  and  C_21
REMARK    7  A    between atoms: N_23  and  C_24
REMARK    8  A    between atoms: C_24  and  C_25
REMARK    9  A    between atoms: C_25  and  C_26
REMARK                            x       y       z     vdW  Elec       q    Type
REMARK                         _______ _______ _______ _____ _____    ______ ____
ROOT
ATOM      1  C   UNL     1      -0.018   1.503   0.010  0.00  0.00    +0.087 C 
ATOM      2  C   UNL     1       0.002  -0.004   0.002  0.00  0.00    +0.111 A 
ATOM      3  C   UNL     1      -1.095  -0.795   0.003  0.00  0.00    +0.031 A 
ATOM      4  C   UNL     1      -0.593  -2.182  -0.008  0.00  0.00    +0.029 A 
ATOM      5  C   UNL     1      -1.197  -3.435  -0.016  0.00  0.00    +0.019 A 
ATOM      6  C   UNL     1      -0.429  -4.572  -0.024  0.00  0.00    -0.001 A 
ATOM      7  C   UNL     1       0.957  -4.474  -0.021  0.00  0.00    +0.139 A 
ATOM      8  C   UNL     1       1.573  -3.231  -0.020  0.00  0.00    +0.093 A 
ATOM      9  C   UNL     1       0.807  -2.074  -0.012  0.00  0.00    +0.139 A 
ATOM     10  O   UNL     1       1.113  -0.760  -0.013  0.00  0.00    -0.459 OA
ATOM     11  O   UNL     1       1.751  -5.580  -0.009  0.00  0.00    -0.425 OA
ATOM     12  C   UNL     1       1.162  -6.773  -0.222  0.00  0.00    +0.316 C 
ATOM     13  O   UNL     1       1.679  -7.620  -0.911  0.00  0.00    -0.250 OA
ATOM     14  C   UNL     1      -0.180  -7.003   0.444  0.00  0.00    +0.106 C 
ATOM     15  C   UNL     1      -1.132  -5.906  -0.042  0.00  0.00    +0.033 C 
ATOM     16  C   UNL     1      -2.354  -5.849   0.876  0.00  0.00    +0.013 C 
ENDROOT
BRANCH   3  17
ATOM     17  C   UNL     1      -2.511  -0.358   0.012  0.00  0.00    -0.014 A 
ATOM     18  C   UNL     1      -3.323  -0.640   1.110  0.00  0.00    +0.008 A 
ATOM     19  C   UNL     1      -4.641  -0.230   1.114  0.00  0.00    +0.001 A 
ATOM     20  C   UNL     1      -5.157   0.458   0.031  0.00  0.00    +0.000 A 
ATOM     21  C   UNL     1      -4.356   0.741  -1.062  0.00  0.00    +0.001 A 
ATOM     22  C   UNL     1      -3.035   0.341  -1.074  0.00  0.00    +0.008 A 
ENDBRANCH   3  17
BRANCH  14  23
ATOM     23  C   UNL     1      -0.026  -6.922   1.964  0.00  0.00    +0.024 C 
BRANCH  23  24
ATOM     24  C   UNL     1       0.863  -8.069   2.448  0.00  0.00    +0.096 C 
BRANCH  24  25
ATOM     25  C   UNL     1       1.015  -7.989   3.945  0.00  0.00    +0.213 C 
ATOM     26  O   UNL     1       0.466  -7.102   4.564  0.00  0.00    -0.276 OA
ATOM     27  N   UNL     1       1.760  -8.904   4.597  0.00  0.00    -0.315 N 
ATOM     28  H   UNL     1       2.199  -9.614   4.102  0.00  0.00    +0.149 HD
BRANCH  27  29
ATOM     29  C   UNL     1       1.908  -8.827   6.052  0.00  0.00    +0.110 C 
BRANCH  29  30
ATOM     30  C   UNL     1       2.796  -9.974   6.536  0.00  0.00    +0.073 C 
BRANCH  30  31
ATOM     31  C   UNL     1       2.948  -9.894   8.034  0.00  0.00    +0.035 A 
ATOM     32  N   UNL     1       2.201 -10.562   8.966  0.00  0.00    -0.350 N 
ATOM     33  C   UNL     1       2.668 -10.205  10.182  0.00  0.00    +0.171 A 
ATOM     34  N   UNL     1       3.651  -9.362  10.022  0.00  0.00    -0.352 N 
ATOM     35  C   UNL     1       3.849  -9.157   8.711  0.00  0.00    +0.105 A 
ATOM     36  H   UNL     1       1.473 -11.177   8.787  0.00  0.00    +0.166 HD
ATOM     37  H   UNL     1       4.161  -8.951  10.737  0.00  0.00    +0.166 HD
ENDBRANCH  30  31
ENDBRANCH  29  30
ENDBRANCH  27  29
ENDBRANCH  24  25
ENDBRANCH  23  24
ENDBRANCH  14  23
TORSDOF 7
