REMARK  Name = ZINC02727499
REMARK  10 active torsions:
REMARK  status: ('A' for Active; 'I' for Inactive)
REMARK    1  A    between atoms: C_1  and  C_2
REMARK    2  A    between atoms: C_4  and  C_36
REMARK    3  A    between atoms: C_5  and  C_17
REMARK    4  A    between atoms: C_7  and  C_8
REMARK    5  A    between atoms: C_8  and  O_9
REMARK    6  A    between atoms: O_9  and  C_10
REMARK    7  A    between atoms: C_26  and  C_34
REMARK    8  A    between atoms: C_27  and  N_33
REMARK    9  A    between atoms: C_28  and  C_29
REMARK   10  A    between atoms: C_28  and  C_31
REMARK                            x       y       z     vdW  Elec       q    Type
REMARK                         _______ _______ _______ _____ _____    ______ ____
ROOT
ATOM      1  C   UNL     1      -2.086   5.073  -0.150  0.00  0.00    +0.066 C 
ATOM      2  C   UNL     1      -2.804   4.990  -1.498  0.00  0.00    +0.030 C 
ATOM      3  C   UNL     1      -1.884   5.324  -2.649  0.00  0.00    +0.009 C 
ATOM      4  C   UNL     1      -1.347   4.068  -3.332  0.00  0.00    +0.005 C 
ATOM      5  C   UNL     1      -2.539   3.249  -3.845  0.00  0.00    +0.027 C 
ATOM      6  C   UNL     1      -3.378   2.861  -2.654  0.00  0.00    -0.022 C 
ATOM      7  C   UNL     1      -3.445   3.638  -1.609  0.00  0.00    -0.029 C 
ATOM      8  C   UNL     1      -4.185   3.145  -0.417  0.00  0.00    +0.074 C 
ATOM      9  C   UNL     1      -4.012   3.766   0.777  0.00  0.00    +0.054 C 
ATOM     10  C   UNL     1      -3.120   4.955   0.970  0.00  0.00    +0.188 C 
ENDROOT
BRANCH   1  15
ATOM     11  C   UNL     1       1.734   0.759   0.278  0.00  0.00    +0.044 C 
ATOM     12  C   UNL     1       0.738   1.884   0.166  0.00  0.00    -0.044 A 
ATOM     13  C   UNL     1       1.179   3.190   0.053  0.00  0.00    +0.007 A 
ATOM     14  C   UNL     1       0.265   4.221  -0.049  0.00  0.00    -0.047 A 
ATOM     15  C   UNL     1      -1.090   3.948  -0.038  0.00  0.00    -0.038 A 
ATOM     16  C   UNL     1      -1.531   2.643   0.069  0.00  0.00    +0.011 A 
ATOM     17  C   UNL     1      -0.617   1.611   0.177  0.00  0.00    -0.007 A 
ATOM     18  C   UNL     1       0.746   5.644  -0.172  0.00  0.00    +0.044 C 
BRANCH  17  19
ATOM     19  C   UNL     1      -1.098   0.188   0.300  0.00  0.00    +0.264 C 
BRANCH  19  20
ATOM     20  O   UNL     1      -2.518   0.177   0.451  0.00  0.00    -0.487 OA
BRANCH  20  21
ATOM     21  C   UNL     1      -3.101  -1.022   0.720  0.00  0.00    +0.121 A 
ATOM     22  C   UNL     1      -2.314  -2.139   0.957  0.00  0.00    +0.048 A 
ATOM     23  C   UNL     1      -2.907  -3.355   1.234  0.00  0.00    +0.042 A 
ATOM     24  C   UNL     1      -4.287  -3.462   1.265  0.00  0.00    +0.124 A 
ATOM     25  C   UNL     1      -5.074  -2.349   1.024  0.00  0.00    +0.042 A 
ATOM     26  C   UNL     1      -4.484  -1.130   0.751  0.00  0.00    +0.048 A 
ATOM     27  F   UNL     1      -4.866  -4.653   1.530  0.00  0.00    -0.205 F 
ENDBRANCH  20  21
ENDBRANCH  19  20
ENDBRANCH  17  19
ENDBRANCH   1  15
BRANCH   9  28
ATOM     28  N   UNL     1      -4.686   3.280   1.862  0.00  0.00    -0.358 N 
ATOM     29  H   UNL     1      -4.566   3.760   2.844  0.00  0.00    +0.142 HD
ATOM     30  H   UNL     1      -5.348   2.408   1.753  0.00  0.00    +0.142 HD
ENDBRANCH   9  28
BRANCH  10  31
ATOM     31  C   UNL     1      -2.419   4.825   2.258  0.00  0.00    +0.091 C 
ATOM     32  N   UNL     1      -1.879   4.725   3.252  0.00  0.00    -0.194 NA
ENDBRANCH  10  31
BRANCH  10  33
ATOM     33  C   UNL     1      -3.944   6.174   0.994  0.00  0.00    +0.091 C 
ATOM     34  N   UNL     1      -4.580   7.115   1.013  0.00  0.00    -0.194 NA
ENDBRANCH  10  33
BRANCH   8  35
ATOM     35  C   UNL     1      -5.074   2.027  -0.529  0.00  0.00    +0.101 C 
ATOM     36  N   UNL     1      -5.778   1.141  -0.618  0.00  0.00    -0.191 NA
ENDBRANCH   8  35
TORSDOF 8
