REMARK  Name = ZINC64952305
REMARK  8 active torsions:
REMARK  status: ('A' for Active; 'I' for Inactive)
REMARK    1  A    between atoms: C_1  and  C_2
REMARK    2  A    between atoms: C_2  and  C_4
REMARK    3  A    between atoms: C_2  and  N_24
REMARK    4  A    between atoms: C_4  and  C_5
REMARK    5  A    between atoms: C_5  and  N_6
REMARK    6  A    between atoms: N_6  and  S_7
REMARK    7  A    between atoms: S_7  and  C_10
REMARK    8  A    between atoms: C_21  and  C_23
REMARK                            x       y       z     vdW  Elec       q    Type
REMARK                         _______ _______ _______ _____ _____    ______ ____
ROOT
ATOM      1  S   UNL     1       1.794  -4.109   2.643  0.00  0.00    +0.058 S 
ATOM      2  O   UNL     1       2.654  -4.241   3.767  0.00  0.00    -0.153 OA
ATOM      3  O   UNL     1       0.454  -4.580   2.649  0.00  0.00    -0.153 OA
ENDROOT
BRANCH   1   4
ATOM      4  C   UNL     1       2.602  -4.905   1.295  0.00  0.00    +0.107 A 
ATOM      5  C   UNL     1       1.855  -5.374   0.229  0.00  0.00    +0.030 A 
ATOM      6  C   UNL     1       2.484  -5.982  -0.844  0.00  0.00    +0.018 A 
ATOM      7  C   UNL     1       3.859  -6.126  -0.826  0.00  0.00    +0.029 A 
ATOM      8  C   UNL     1       4.613  -5.690   0.253  0.00  0.00    +0.051 A 
ATOM      9  C   UNL     1       3.977  -5.051   1.310  0.00  0.00    +0.053 A 
ATOM     10  N   UNL     1       5.993  -5.933   0.318  0.00  0.00    -0.270 N 
ATOM     11  C   UNL     1       6.450  -7.307   0.575  0.00  0.00    +0.114 C 
ATOM     12  C   UNL     1       6.656  -8.069  -0.707  0.00  0.00    +0.030 C 
ATOM     13  C   UNL     1       5.391  -8.382  -1.491  0.00  0.00    +0.076 C 
ATOM     14  S   UNL     1       4.708  -6.857  -2.205  0.00  0.00    -0.123 S 
ATOM     15  C   UNL     1       6.879  -4.932   0.148  0.00  0.00    +0.217 C 
ATOM     16  O   UNL     1       8.069  -5.158   0.207  0.00  0.00    -0.276 OA
ATOM     17  C   UNL     1       6.391  -3.530  -0.115  0.00  0.00    +0.109 C 
ENDBRANCH   1   4
BRANCH   1  18
ATOM     18  N   UNL     1       1.726  -2.493   2.287  0.00  0.00    -0.190 NA
ATOM     19  H   UNL     1       2.212  -1.855   2.833  0.00  0.00    +0.148 HD
BRANCH  18  20
ATOM     20  C   UNL     1       0.930  -2.027   1.149  0.00  0.00    +0.104 C 
BRANCH  20  21
ATOM     21  C   UNL     1       0.726  -0.514   1.254  0.00  0.00    +0.001 C 
BRANCH  21  23
ATOM     22  C   UNL     1      -0.086   1.519   0.051  0.00  0.00    -0.013 C 
ATOM     23  C   UNL     1       0.012  -0.007   0.000  0.00  0.00    -0.071 C 
BRANCH  23  24
ATOM     24  N   UNL     1      -1.338  -0.582  -0.060  0.00  0.00    +0.381 N 
ATOM     25  C   UNL     1      -1.923  -0.281  -1.382  0.00  0.00    -0.078 C 
ATOM     26  C   UNL     1      -2.974  -1.319  -1.683  0.00  0.00    -0.019 C 
ATOM     27  C   UNL     1      -4.382  -0.822  -1.302  0.00  0.00    -0.002 C 
ATOM     28  C   UNL     1      -4.375  -0.053   0.035  0.00  0.00    -0.002 C 
ATOM     29  C   UNL     1      -3.495  -0.708   1.069  0.00  0.00    -0.019 C 
ATOM     30  C   UNL     1      -2.088  -0.079   1.004  0.00  0.00    -0.078 C 
ATOM     31  H   UNL     1      -1.267  -1.584   0.039  0.00  0.00    -0.081 HD
ENDBRANCH  23  24
ENDBRANCH  21  23
ENDBRANCH  20  21
ENDBRANCH  18  20
ENDBRANCH   1  18
TORSDOF 6
