REMARK  Name = ZINC20206886
REMARK  7 active torsions:
REMARK  status: ('A' for Active; 'I' for Inactive)
REMARK    1  A    between atoms: C_1  and  C_2
REMARK    2  A    between atoms: C_2  and  S_3
REMARK    3  A    between atoms: S_3  and  C_6
REMARK    4  A    between atoms: C_14  and  C_15
REMARK    5  A    between atoms: C_17  and  C_28
REMARK    6  A    between atoms: N_18  and  C_21
REMARK    7  A    between atoms: C_19  and  C_20
REMARK                            x       y       z     vdW  Elec       q    Type
REMARK                         _______ _______ _______ _____ _____    ______ ____
ROOT
ATOM      1  C   UNL     1      -2.435  -3.174   0.052  0.00  0.00    +0.257 C 
ATOM      2  N   UNL     1      -2.963  -3.990   0.910  0.00  0.00    -0.174 NA
ATOM      3  S   UNL     1      -3.456  -5.299  -0.014  0.00  0.00    +0.049 S 
ATOM      4  C   UNL     1      -2.920  -4.793  -1.509  0.00  0.00    +0.183 C 
ATOM      5  N   UNL     1      -2.953  -5.401  -2.672  0.00  0.00    -0.152 NA
ATOM      6  C   UNL     1      -2.392  -4.811  -3.745  0.00  0.00    +0.273 C 
ATOM      7  O   UNL     1      -2.522  -5.288  -4.861  0.00  0.00    -0.268 OA
ATOM      8  C   UNL     1      -1.611  -3.568  -3.537  0.00  0.00    +0.078 C 
ATOM      9  C   UNL     1      -0.609  -3.183  -4.405  0.00  0.00    +0.026 C 
ATOM     10  C   UNL     1      -1.969  -2.756  -2.340  0.00  0.00    +0.117 C 
ATOM     11  N   UNL     1      -1.880  -1.454  -2.302  0.00  0.00    -0.386 N 
ATOM     12  N   UNL     1      -2.418  -3.533  -1.253  0.00  0.00    -0.203 N 
ATOM     13  H   UNL     1      -1.480  -0.973  -3.043  0.00  0.00    +0.157 HD
ATOM     14  H   UNL     1      -2.215  -0.967  -1.532  0.00  0.00    +0.157 HD
ENDROOT
BRANCH   9  15
ATOM     15  C   UNL     1      -0.159  -4.098  -5.452  0.00  0.00    -0.003 A 
ATOM     16  C   UNL     1      -0.035  -5.559  -5.358  0.00  0.00    +0.031 A 
ATOM     17  C   UNL     1       0.413  -5.980  -6.553  0.00  0.00    +0.022 A 
ATOM     18  N   UNL     1       0.576  -4.901  -7.378  0.00  0.00    -0.315 N 
ATOM     19  C   UNL     1       0.234  -3.765  -6.738  0.00  0.00    +0.028 A 
ATOM     20  C   UNL     1       0.274  -2.376  -7.320  0.00  0.00    +0.064 C 
ATOM     21  C   UNL     1       0.691  -7.413  -6.926  0.00  0.00    +0.064 C 
BRANCH  18  22
ATOM     22  C   UNL     1       1.030  -4.968  -8.702  0.00  0.00    +0.082 A 
ATOM     23  C   UNL     1       0.123  -5.115  -9.742  0.00  0.00    +0.029 A 
ATOM     24  C   UNL     1       0.573  -5.180 -11.046  0.00  0.00    +0.002 A 
ATOM     25  C   UNL     1       1.926  -5.099 -11.318  0.00  0.00    +0.003 A 
ATOM     26  C   UNL     1       2.834  -4.953 -10.286  0.00  0.00    +0.040 A 
ATOM     27  C   UNL     1       2.390  -4.881  -8.978  0.00  0.00    +0.147 A 
ATOM     28  F   UNL     1       3.277  -4.733  -7.970  0.00  0.00    -0.203 F 
ENDBRANCH  18  22
ENDBRANCH   9  15
BRANCH   1  29
ATOM     29  S   UNL     1      -1.761  -1.631   0.571  0.00  0.00    +0.029 S 
ATOM     30  O   UNL     1      -0.749  -1.338  -0.382  0.00  0.00    -0.167 OA
ATOM     31  O   UNL     1      -1.432  -1.822   1.941  0.00  0.00    -0.167 OA
BRANCH  29  33
ATOM     32  C   UNL     1      -2.616   0.963   0.703  0.00  0.00    +0.028 C 
ATOM     33  C   UNL     1      -3.128  -0.450   0.416  0.00  0.00    +0.172 C 
ENDBRANCH  29  33
ENDBRANCH   1  29
TORSDOF 4
