REMARK  Name = ZINC08864737
REMARK  2 active torsions:
REMARK  status: ('A' for Active; 'I' for Inactive)
REMARK    1  A    between atoms: C_3  and  S_6
REMARK    2  A    between atoms: S_6  and  N_9
REMARK                            x       y       z     vdW  Elec       q    Type
REMARK                         _______ _______ _______ _____ _____    ______ ____
ROOT
ATOM      1  N   UNL     1      -1.109   2.634   0.022  0.00  0.00    -0.193 N 
ATOM      2  C   UNL     1      -0.022   1.783   0.012  0.00  0.00    +0.179 A 
ATOM      3  N   UNL     1       1.257   2.080   0.001  0.00  0.00    -0.222 NA
ATOM      4  C   UNL     1       2.222   1.134  -0.013  0.00  0.00    +0.100 A 
ATOM      5  C   UNL     1       1.768  -0.204  -0.016  0.00  0.00    +0.042 A 
ATOM      6  S   UNL     1       0.002  -0.004   0.002  0.00  0.00    -0.051 S 
ATOM      7  C   UNL     1       2.622  -1.277  -0.030  0.00  0.00    +0.019 A 
ATOM      8  C   UNL     1       3.989  -1.063  -0.043  0.00  0.00    +0.023 A 
ATOM      9  C   UNL     1       4.473   0.238  -0.041  0.00  0.00    +0.061 A 
ATOM     10  C   UNL     1       3.624   1.318  -0.026  0.00  0.00    +0.086 A 
ATOM     11 CL   UNL     1       4.280   2.925  -0.024  0.00  0.00    -0.080 Cl
ATOM     12 CL   UNL     1       6.188   0.506  -0.057  0.00  0.00    -0.082 Cl
ATOM     13  H   UNL     1      -2.009   2.272   0.025  0.00  0.00    +0.176 HD
ENDROOT
BRANCH   1  14
ATOM     14  S   UNL     1      -0.876   4.274   0.030  0.00  0.00    +0.080 S 
ATOM     15  O   UNL     1      -2.168   4.867   0.012  0.00  0.00    -0.149 OA
ATOM     16  O   UNL     1       0.073   4.544   1.052  0.00  0.00    -0.149 OA
BRANCH  14  19
ATOM     17  C   UNL     1       0.130   5.337  -3.756  0.00  0.00    +0.010 A 
ATOM     18  C   UNL     1      -0.681   5.040  -2.677  0.00  0.00    +0.036 A 
ATOM     19  C   UNL     1      -0.107   4.698  -1.498  0.00  0.00    +0.146 A 
ATOM     20  S   UNL     1       1.632   4.797  -1.891  0.00  0.00    -0.077 S 
ATOM     21  C   UNL     1       1.476   5.278  -3.603  0.00  0.00    +0.047 A 
ENDBRANCH  14  19
ENDBRANCH   1  14
TORSDOF 2
