REMARK  Name = ZINC40701725
REMARK  6 active torsions:
REMARK  status: ('A' for Active; 'I' for Inactive)
REMARK    1  A    between atoms: C_4  and  C_7
REMARK    2  A    between atoms: C_7  and  C_8
REMARK    3  A    between atoms: C_15  and  N_31
REMARK    4  A    between atoms: C_16  and  N_20
REMARK    5  A    between atoms: N_20  and  C_21
REMARK    6  A    between atoms: C_26  and  C_27
REMARK                            x       y       z     vdW  Elec       q    Type
REMARK                         _______ _______ _______ _____ _____    ______ ____
ROOT
ATOM      1  C   UNL     1       2.909  -1.096   1.959  0.00  0.00    -0.004 C 
ATOM      2  C   UNL     1       2.133  -2.149   2.753  0.00  0.00    +0.023 C 
ATOM      3  C   UNL     1       2.811  -2.361   4.110  0.00  0.00    +0.107 C 
ATOM      4  N   UNL     1       4.224  -2.695   3.886  0.00  0.00    -0.314 N 
ATOM      5  C   UNL     1       5.039  -1.795   3.059  0.00  0.00    +0.107 C 
ATOM      6  C   UNL     1       4.336  -1.589   1.714  0.00  0.00    +0.023 C 
ATOM      7  C   UNL     1       4.779  -3.840   4.445  0.00  0.00    +0.147 A 
ATOM      8  C   UNL     1       5.441  -3.779   5.673  0.00  0.00    +0.106 A 
ATOM      9  C   UNL     1       5.980  -4.959   6.190  0.00  0.00    +0.149 A 
ATOM     10  N   UNL     1       5.843  -6.088   5.498  0.00  0.00    -0.219 NA
ATOM     11  C   UNL     1       5.210  -6.101   4.342  0.00  0.00    +0.225 A 
ATOM     12  N   UNL     1       4.682  -5.011   3.822  0.00  0.00    -0.219 NA
ENDROOT
BRANCH   8  13
ATOM     13  N   UNL     1       5.562  -2.566   6.369  0.00  0.00    -0.353 N 
ATOM     14  H   UNL     1       5.112  -1.771   6.040  0.00  0.00    +0.143 HD
ATOM     15  H   UNL     1       6.096  -2.521   7.177  0.00  0.00    +0.143 HD
ENDBRANCH   8  13
BRANCH   9  16
ATOM     16  N   UNL     1       6.650  -4.954   7.408  0.00  0.00    -0.297 N 
ATOM     17  H   UNL     1       6.828  -4.115   7.861  0.00  0.00    +0.154 HD
BRANCH  16  18
ATOM     18  C   UNL     1       7.066  -6.159   7.981  0.00  0.00    +0.044 A 
ATOM     19  C   UNL     1       6.410  -7.343   7.666  0.00  0.00    +0.024 A 
ATOM     20  C   UNL     1       6.823  -8.531   8.234  0.00  0.00    +0.002 A 
ATOM     21  C   UNL     1       7.888  -8.544   9.117  0.00  0.00    +0.001 A 
ATOM     22  C   UNL     1       8.543  -7.368   9.433  0.00  0.00    +0.014 A 
ATOM     23  C   UNL     1       8.139  -6.177   8.863  0.00  0.00    +0.076 A 
BRANCH  23  24
ATOM     24  C   UNL     1       8.857  -4.896   9.203  0.00  0.00    +0.419 C 
ATOM     25  F   UNL     1       9.893  -5.167  10.104  0.00  0.00    -0.166 F 
ATOM     26  F   UNL     1       9.387  -4.335   8.037  0.00  0.00    -0.166 F 
ATOM     27  F   UNL     1       7.956  -3.997   9.785  0.00  0.00    -0.166 F 
ENDBRANCH  23  24
ENDBRANCH  16  18
ENDBRANCH   9  16
BRANCH   1  28
ATOM     28  C   UNL     1       2.214  -0.856   0.617  0.00  0.00    +0.038 C 
BRANCH  28  32
ATOM     29  C   UNL     1      -1.644   0.849   1.291  0.00  0.00    +0.000 A 
ATOM     30  C   UNL     1      -0.544   1.670   1.133  0.00  0.00    +0.000 A 
ATOM     31  C   UNL     1       0.705   1.119   0.915  0.00  0.00    +0.003 A 
ATOM     32  C   UNL     1       0.853  -0.255   0.856  0.00  0.00    -0.047 A 
ATOM     33  C   UNL     1      -0.247  -1.076   1.014  0.00  0.00    +0.003 A 
ATOM     34  C   UNL     1      -1.496  -0.524   1.231  0.00  0.00    +0.000 A 
ENDBRANCH  28  32
ENDBRANCH   1  28
TORSDOF 6
