REMARK  Name = ZINC06331548
REMARK  8 active torsions:
REMARK  status: ('A' for Active; 'I' for Inactive)
REMARK    1  A    between atoms: C_1  and  C_2
REMARK    2  A    between atoms: C_5  and  C_30
REMARK    3  A    between atoms: C_6  and  O_8
REMARK    4  A    between atoms: O_8  and  C_9
REMARK    5  A    between atoms: C_9  and  C_10
REMARK    6  A    between atoms: N_12  and  N_13
REMARK    7  A    between atoms: C_14  and  C_15
REMARK    8  A    between atoms: C_14  and  C_16
REMARK                            x       y       z     vdW  Elec       q    Type
REMARK                         _______ _______ _______ _____ _____    ______ ____
ROOT
ATOM      1  N   UNL     1       3.734  -1.955  -0.020  0.00  0.00    -0.184 NA
ATOM      2  C   UNL     1       3.707  -0.657  -0.018  0.00  0.00    +0.063 C 
ATOM      3  C   UNL     1       4.996   0.124  -0.023  0.00  0.00    +0.068 C 
ENDROOT
BRANCH   2   4
ATOM      4  C   UNL     1       2.416   0.053  -0.011  0.00  0.00    -0.001 A 
ATOM      5  C   UNL     1       2.385   1.450  -0.008  0.00  0.00    +0.011 A 
ATOM      6  C   UNL     1       1.174   2.108   0.002  0.00  0.00    +0.017 A 
ATOM      7  C   UNL     1      -0.017   1.390   0.010  0.00  0.00    +0.034 A 
ATOM      8  C   UNL     1       0.002  -0.004   0.002  0.00  0.00    +0.046 A 
ATOM      9  C   UNL     1       1.220  -0.669  -0.006  0.00  0.00    +0.034 A 
ATOM     10  N   UNL     1      -1.171  -0.755  -0.006  0.00  0.00    -0.313 N 
ATOM     11  C   UNL     1      -2.404  -0.312   0.463  0.00  0.00    +0.045 A 
ATOM     12  C   UNL     1      -3.344  -1.252   0.872  0.00  0.00    +0.024 A 
ATOM     13  C   UNL     1      -4.580  -0.847   1.340  0.00  0.00    +0.002 A 
ATOM     14  C   UNL     1      -4.892   0.498   1.404  0.00  0.00    +0.001 A 
ATOM     15  C   UNL     1      -3.965   1.442   1.002  0.00  0.00    +0.017 A 
ATOM     16  C   UNL     1      -2.721   1.042   0.533  0.00  0.00    +0.034 A 
ATOM     17  S   UNL     1      -1.550   2.259   0.036  0.00  0.00    -0.086 S 
ATOM     18  H   UNL     1      -1.125  -1.655  -0.365  0.00  0.00    +0.152 HD
ENDBRANCH   2   4
BRANCH   1  21
ATOM     19  C   UNL     1       4.989  -3.977  -0.029  0.00  0.00    +0.270 C 
ATOM     20  O   UNL     1       3.952  -4.606  -0.025  0.00  0.00    -0.270 OA
ATOM     21  N   UNL     1       4.961  -2.630  -0.027  0.00  0.00    -0.204 N 
ATOM     22  H   UNL     1       5.791  -2.127  -0.030  0.00  0.00    +0.177 HD
BRANCH  19  23
ATOM     23  C   UNL     1       6.310  -4.703  -0.037  0.00  0.00    +0.326 C 
BRANCH  23  24
ATOM     24  O   UNL     1       6.078  -6.114  -0.037  0.00  0.00    -0.482 OA
BRANCH  24  30
ATOM     25  C   UNL     1      10.936  -6.581  -0.062  0.00  0.00    +0.044 C 
ATOM     26  C   UNL     1       9.555  -7.184  -0.056  0.00  0.00    -0.047 A 
ATOM     27  C   UNL     1       9.401  -8.558  -0.057  0.00  0.00    +0.004 A 
ATOM     28  C   UNL     1       8.136  -9.114  -0.052  0.00  0.00    +0.007 A 
ATOM     29  C   UNL     1       7.021  -8.297  -0.040  0.00  0.00    -0.009 A 
ATOM     30  C   UNL     1       7.173  -6.919  -0.044  0.00  0.00    +0.124 A 
ATOM     31  C   UNL     1       8.444  -6.363  -0.050  0.00  0.00    +0.049 A 
ATOM     32  C   UNL     1       5.642  -8.904  -0.027  0.00  0.00    +0.047 C 
ENDBRANCH  24  30
ENDBRANCH  23  24
ENDBRANCH  19  23
ENDBRANCH   1  21
TORSDOF 5
