REMARK  Name = ZINC28055768
REMARK  6 active torsions:
REMARK  status: ('A' for Active; 'I' for Inactive)
REMARK    1  A    between atoms: C_1  and  O_2
REMARK    2  A    between atoms: O_2  and  C_3
REMARK    3  A    between atoms: C_6  and  C_9
REMARK    4  A    between atoms: C_20  and  C_22
REMARK    5  A    between atoms: C_27  and  O_28
REMARK    6  A    between atoms: O_28  and  C_29
REMARK                            x       y       z     vdW  Elec       q    Type
REMARK                         _______ _______ _______ _____ _____    ______ ____
ROOT
ATOM      1  C   UNL     1      -0.216   4.370  -2.052  0.00  0.00    +0.174 C 
ATOM      2  C   UNL     1       1.127   4.103  -1.415  0.00  0.00    +0.026 C 
ATOM      3  C   UNL     1       2.276   4.301  -2.063  0.00  0.00    +0.050 C 
ATOM      4  C   UNL     1       3.545   4.032  -1.345  0.00  0.00    +0.039 A 
ATOM      5  C   UNL     1       4.747   3.885  -2.026  0.00  0.00    +0.033 A 
ATOM      6  C   UNL     1       5.907   3.636  -1.315  0.00  0.00    +0.042 A 
ATOM      7  C   UNL     1       5.871   3.536   0.065  0.00  0.00    +0.023 A 
ATOM      8  C   UNL     1       4.678   3.682   0.750  0.00  0.00    +0.048 A 
ATOM      9  C   UNL     1       3.511   3.930   0.051  0.00  0.00    +0.131 A 
ATOM     10  O   UNL     1       2.321   4.077   0.686  0.00  0.00    -0.479 OA
ATOM     11  C   UNL     1       1.160   3.598   0.010  0.00  0.00    +0.238 C 
ATOM     12 CL   UNL     1       7.413   3.450  -2.158  0.00  0.00    -0.084 Cl
ATOM     13  N   UNL     1       2.320   4.743  -3.390  0.00  0.00    -0.282 N 
ATOM     14  C   UNL     1       1.135   4.720  -4.107  0.00  0.00    +0.240 A 
ATOM     15  N   UNL     1      -0.062   4.540  -3.490  0.00  0.00    -0.201 N 
ATOM     16  N   UNL     1      -1.013   4.564  -4.509  0.00  0.00    -0.042 NA
ATOM     17  N   UNL     1      -0.365   4.752  -5.613  0.00  0.00    -0.021 NA
ATOM     18  N   UNL     1       0.900   4.846  -5.382  0.00  0.00    -0.092 NA
ATOM     19  H   UNL     1       3.269   5.091  -3.823  0.00  0.00    +0.155 HD
ENDROOT
BRANCH   1  23
ATOM     20  C   UNL     1      -1.898   7.923  -0.377  0.00  0.00    +0.120 A 
ATOM     21  C   UNL     1      -2.564   6.713  -0.251  0.00  0.00    +0.046 A 
ATOM     22  C   UNL     1      -2.018   5.566  -0.793  0.00  0.00    +0.009 A 
ATOM     23  C   UNL     1      -0.809   5.623  -1.461  0.00  0.00    -0.018 A 
ATOM     24  C   UNL     1      -0.140   6.827  -1.583  0.00  0.00    +0.009 A 
ATOM     25  C   UNL     1      -0.685   7.978  -1.048  0.00  0.00    +0.046 A 
BRANCH  20  27
ATOM     26  C   UNL     1      -1.692  10.263  -0.011  0.00  0.00    +0.277 C 
ATOM     27  O   UNL     1      -2.433   9.053   0.157  0.00  0.00    -0.495 OA
ENDBRANCH  20  27
ENDBRANCH   1  23
BRANCH  11  28
ATOM     28  C   UNL     1       1.176   2.091   0.002  0.00  0.00    +0.039 A 
ATOM     29  C   UNL     1       2.377   1.412   0.086  0.00  0.00    +0.011 A 
ATOM     30  C   UNL     1       2.393   0.030   0.079  0.00  0.00    +0.001 A 
ATOM     31  C   UNL     1       1.208  -0.677  -0.013  0.00  0.00    +0.004 A 
ATOM     32  C   UNL     1       0.005  -0.004  -0.098  0.00  0.00    +0.046 A 
ATOM     33  C   UNL     1      -0.013   1.384  -0.090  0.00  0.00    +0.127 A 
BRANCH  33  34
ATOM     34  O   UNL     1      -1.195   2.049  -0.179  0.00  0.00    -0.495 OA
ATOM     35  C   UNL     1      -2.380   1.256  -0.278  0.00  0.00    +0.277 C 
ENDBRANCH  33  34
ENDBRANCH  11  28
TORSDOF 4
