REMARK  Name = ZINC09434739
REMARK  9 active torsions:
REMARK  status: ('A' for Active; 'I' for Inactive)
REMARK    1  A    between atoms: C_1  and  C_2
REMARK    2  A    between atoms: C_2  and  C_3
REMARK    3  A    between atoms: C_3  and  C_4
REMARK    4  A    between atoms: C_4  and  C_5
REMARK    5  A    between atoms: C_5  and  C_6
REMARK    6  A    between atoms: C_18  and  C_20
REMARK    7  A    between atoms: C_29  and  C_32
REMARK    8  A    between atoms: C_35  and  O_38
REMARK    9  A    between atoms: O_38  and  C_39
REMARK                            x       y       z     vdW  Elec       q    Type
REMARK                         _______ _______ _______ _____ _____    ______ ____
ROOT
ATOM      1  C   UNL     1      -1.176   0.476  -2.019  0.00  0.00    +0.221 C 
ATOM      2  O   UNL     1      -1.147  -0.680  -1.652  0.00  0.00    -0.275 OA
ATOM      3  N   UNL     1      -0.631   1.440  -1.252  0.00  0.00    -0.258 N 
ATOM      4  C   UNL     1      -0.670   2.767  -1.683  0.00  0.00    +0.058 A 
ATOM      5  C   UNL     1       0.005   3.180  -2.820  0.00  0.00    +0.025 A 
ATOM      6  C   UNL     1      -0.024   4.516  -3.181  0.00  0.00    +0.002 A 
ATOM      7  C   UNL     1      -0.719   5.433  -2.414  0.00  0.00    +0.002 A 
ATOM      8  C   UNL     1      -1.410   5.021  -1.287  0.00  0.00    +0.025 A 
ATOM      9  C   UNL     1      -1.399   3.681  -0.938  0.00  0.00    +0.053 A 
ATOM     10  N   UNL     1      -2.162   3.182   0.110  0.00  0.00    -0.316 N 
ATOM     11  C   UNL     1      -1.660   2.592   1.225  0.00  0.00    +0.017 C 
ATOM     12  C   UNL     1      -0.706   1.650   1.225  0.00  0.00    +0.037 C 
ATOM     13  C   UNL     1      -0.013   1.086   0.008  0.00  0.00    +0.147 C 
ATOM     14  C   UNL     1      -0.257   1.096   2.447  0.00  0.00    +0.163 C 
ATOM     15  O   UNL     1       0.598   0.232   2.421  0.00  0.00    -0.292 OA
ATOM     16  C   UNL     1      -0.800   1.537   3.774  0.00  0.00    +0.088 C 
ATOM     17  C   UNL     1      -1.262   2.994   3.651  0.00  0.00    +0.032 C 
ATOM     18  C   UNL     1      -2.282   3.062   2.530  0.00  0.00    +0.059 C 
ATOM     19  H   UNL     1      -3.126   3.260   0.040  0.00  0.00    +0.152 HD
ENDROOT
BRANCH  13  20
ATOM     20  C   UNL     1       1.411   1.581  -0.003  0.00  0.00    -0.022 A 
ATOM     21  C   UNL     1       1.673   2.929  -0.159  0.00  0.00    +0.006 A 
ATOM     22  C   UNL     1       2.978   3.383  -0.164  0.00  0.00    +0.000 A 
ATOM     23  C   UNL     1       4.022   2.488  -0.024  0.00  0.00    +0.000 A 
ATOM     24  C   UNL     1       3.760   1.139   0.127  0.00  0.00    +0.000 A 
ATOM     25  C   UNL     1       2.455   0.685   0.137  0.00  0.00    +0.006 A 
ENDBRANCH  13  20
BRANCH  17  26
ATOM     26  C   UNL     1      -1.893   3.440   4.945  0.00  0.00    -0.043 A 
ATOM     27  C   UNL     1      -3.010   2.785   5.430  0.00  0.00    +0.007 A 
ATOM     28  C   UNL     1      -3.587   3.189   6.618  0.00  0.00    +0.046 A 
ATOM     29  C   UNL     1      -3.052   4.260   7.319  0.00  0.00    +0.120 A 
ATOM     30  C   UNL     1      -1.935   4.919   6.828  0.00  0.00    +0.046 A 
ATOM     31  C   UNL     1      -1.358   4.508   5.641  0.00  0.00    +0.007 A 
BRANCH  29  32
ATOM     32  O   UNL     1      -3.621   4.662   8.486  0.00  0.00    -0.495 OA
ATOM     33  C   UNL     1      -4.769   3.937   8.932  0.00  0.00    +0.277 C 
ENDBRANCH  29  32
ENDBRANCH  17  26
BRANCH   1  34
ATOM     34  C   UNL     1      -1.822   0.833  -3.333  0.00  0.00    +0.096 C 
BRANCH  34  35
ATOM     35  C   UNL     1      -2.358  -0.436  -3.999  0.00  0.00    +0.009 C 
BRANCH  35  36
ATOM     36  C   UNL     1      -3.014  -0.073  -5.333  0.00  0.00    +0.000 C 
BRANCH  36  38
ATOM     37  C   UNL     1      -4.206  -0.979  -7.334  0.00  0.00    +0.004 C 
ATOM     38  C   UNL     1      -3.550  -1.342  -6.000  0.00  0.00    -0.003 C 
ENDBRANCH  36  38
ENDBRANCH  35  36
ENDBRANCH  34  35
ENDBRANCH   1  34
TORSDOF 7
