REMARK  Name = ZINC32943053
REMARK  8 active torsions:
REMARK  status: ('A' for Active; 'I' for Inactive)
REMARK    1  A    between atoms: C_1  and  C_2
REMARK    2  A    between atoms: C_5  and  N_9
REMARK    3  A    between atoms: C_6  and  C_8
REMARK    4  A    between atoms: N_11  and  C_12
REMARK    5  A    between atoms: C_12  and  C_13
REMARK    6  A    between atoms: C_13  and  C_14
REMARK    7  A    between atoms: N_24  and  C_25
REMARK    8  A    between atoms: C_25  and  C_27
REMARK                            x       y       z     vdW  Elec       q    Type
REMARK                         _______ _______ _______ _____ _____    ______ ____
ROOT
ATOM      1  N   UNL     1       0.094  -4.215  -0.145  0.00  0.00    -0.328 N 
ATOM      2  C   UNL     1      -0.013  -4.825  -1.361  0.00  0.00    +0.194 C 
ATOM      3  N   UNL     1      -0.074  -6.186  -1.439  0.00  0.00    -0.357 N 
ATOM      4  N   UNL     1      -0.059  -4.096  -2.466  0.00  0.00    -0.143 NA
ATOM      5  H   UNL     1      -0.068  -6.623  -2.305  0.00  0.00    +0.162 HD
ATOM      6  H   UNL     1       0.194  -4.749   0.659  0.00  0.00    +0.169 HD
ENDROOT
BRANCH   1  11
ATOM      7  C   UNL     1      -0.043   1.445   0.210  0.00  0.00    +0.044 C 
ATOM      8  C   UNL     1      -0.006  -0.059   0.116  0.00  0.00    -0.050 A 
ATOM      9  C   UNL     1       0.590  -0.668  -0.973  0.00  0.00    +0.005 A 
ATOM     10  C   UNL     1       0.625  -2.045  -1.063  0.00  0.00    +0.026 A 
ATOM     11  C   UNL     1       0.061  -2.820  -0.057  0.00  0.00    +0.045 A 
ATOM     12  C   UNL     1      -0.537  -2.205   1.036  0.00  0.00    -0.027 A 
ATOM     13  C   UNL     1      -0.564  -0.827   1.122  0.00  0.00    +0.008 A 
ATOM     14  C   UNL     1      -1.151  -3.041   2.129  0.00  0.00    +0.046 C 
ENDBRANCH   1  11
BRANCH   4  15
ATOM     15  C   UNL     1      -0.056  -4.695  -3.664  0.00  0.00    +0.270 C 
ATOM     16  O   UNL     1      -0.117  -5.909  -3.738  0.00  0.00    -0.268 OA
BRANCH  15  17
ATOM     17  C   UNL     1       0.024  -3.881  -4.899  0.00  0.00    +0.040 A 
ATOM     18  C   UNL     1       0.100  -2.490  -4.817  0.00  0.00    +0.013 A 
ATOM     19  C   UNL     1       0.174  -1.737  -5.970  0.00  0.00    +0.002 A 
ATOM     20  C   UNL     1       0.172  -2.357  -7.207  0.00  0.00    +0.020 A 
ATOM     21  C   UNL     1       0.096  -3.736  -7.295  0.00  0.00    +0.042 A 
ATOM     22  C   UNL     1       0.028  -4.502  -6.148  0.00  0.00    +0.033 A 
ATOM     23 CL   UNL     1       0.093  -4.506  -8.851  0.00  0.00    -0.084 Cl
ENDBRANCH  15  17
ENDBRANCH   4  15
BRANCH   3  24
ATOM     24  C   UNL     1      -0.148  -6.987  -0.214  0.00  0.00    +0.120 C 
BRANCH  24  25
ATOM     25  C   UNL     1      -0.081  -8.473  -0.572  0.00  0.00    +0.058 C 
BRANCH  25  26
ATOM     26  C   UNL     1      -0.157  -9.297   0.687  0.00  0.00    -0.021 A 
ATOM     27  C   UNL     1       0.880  -9.778   1.390  0.00  0.00    +0.087 A 
ATOM     28  N   UNL     1       0.424 -10.479   2.474  0.00  0.00    -0.360 N 
ATOM     29  H   UNL     1       0.987 -10.920   3.129  0.00  0.00    +0.165 HD
ATOM     30  C   UNL     1      -0.952 -10.465   2.495  0.00  0.00    +0.047 A 
ATOM     31  C   UNL     1      -1.377  -9.718   1.380  0.00  0.00    +0.003 A 
ATOM     32  C   UNL     1      -2.740  -9.529   1.147  0.00  0.00    +0.010 A 
ATOM     33  C   UNL     1      -3.657 -10.068   2.006  0.00  0.00    +0.001 A 
ATOM     34  C   UNL     1      -3.243 -10.802   3.109  0.00  0.00    +0.002 A 
ATOM     35  C   UNL     1      -1.903 -11.008   3.353  0.00  0.00    +0.026 A 
ENDBRANCH  25  26
ENDBRANCH  24  25
ENDBRANCH   3  24
TORSDOF 6
