REMARK  Name = ZINC03256478
REMARK  12 active torsions:
REMARK  status: ('A' for Active; 'I' for Inactive)
REMARK    1  A    between atoms: C_2  and  C_24
REMARK    2  A    between atoms: C_5  and  C_7
REMARK    3  A    between atoms: C_7  and  O_8
REMARK    4  A    between atoms: O_8  and  C_9
REMARK    5  A    between atoms: C_9  and  C_11
REMARK    6  A    between atoms: C_11  and  C_22
REMARK    7  A    between atoms: C_12  and  C_13
REMARK    8  A    between atoms: C_24  and  O_25
REMARK    9  A    between atoms: O_25  and  C_26
REMARK   10  A    between atoms: C_26  and  C_28
REMARK   11  A    between atoms: C_28  and  C_39
REMARK   12  A    between atoms: C_29  and  C_30
REMARK                            x       y       z     vdW  Elec       q    Type
REMARK                         _______ _______ _______ _____ _____    ______ ____
ROOT
ATOM      1  C   UNL     1      -1.035   1.485   0.769  0.00  0.00    +0.007 A 
ATOM      2  C   UNL     1       0.194   2.073   0.535  0.00  0.00    -0.010 A 
ATOM      3  C   UNL     1       1.329   1.289   0.446  0.00  0.00    +0.007 A 
ATOM      4  C   UNL     1       1.235  -0.083   0.592  0.00  0.00    +0.007 A 
ATOM      5  C   UNL     1       0.006  -0.670   0.828  0.00  0.00    -0.010 A 
ATOM      6  C   UNL     1      -1.129   0.114   0.915  0.00  0.00    +0.007 A 
ENDROOT
BRANCH   5   7
ATOM      7  C   UNL     1      -0.096  -2.165   0.986  0.00  0.00    +0.268 C 
BRANCH   7   8
ATOM      8  O   UNL     1       0.065  -2.510   2.364  0.00  0.00    -0.456 OA
BRANCH   8   9
ATOM      9  C   UNL     1      -0.001  -3.820   2.678  0.00  0.00    +0.350 C 
ATOM     10  O   UNL     1      -0.190  -4.646   1.806  0.00  0.00    -0.244 OA
BRANCH   9  11
ATOM     11  C   UNL     1       0.155  -4.249   4.075  0.00  0.00    +0.136 C 
ATOM     12  C   UNL     1       0.088  -5.588   4.397  0.00  0.00    +0.034 C 
BRANCH  12  13
ATOM     13  C   UNL     1       0.077  -6.004   5.800  0.00  0.00    -0.020 A 
ATOM     14  C   UNL     1      -0.531  -5.192   6.770  0.00  0.00    +0.057 A 
ATOM     15  C   UNL     1      -0.539  -5.590   8.091  0.00  0.00    +0.167 A 
ATOM     16  C   UNL     1       0.057  -6.798   8.461  0.00  0.00    +0.166 A 
ATOM     17  C   UNL     1       0.658  -7.603   7.501  0.00  0.00    +0.050 A 
ATOM     18  C   UNL     1       0.668  -7.217   6.180  0.00  0.00    +0.012 A 
ATOM     19  O   UNL     1      -0.086  -6.957   9.808  0.00  0.00    -0.453 OA
ATOM     20  C   UNL     1      -0.409  -5.651  10.319  0.00  0.00    +0.466 C 
ATOM     21  O   UNL     1      -1.052  -4.997   9.209  0.00  0.00    -0.453 OA
ENDBRANCH  12  13
BRANCH  11  22
ATOM     22  C   UNL     1       0.378  -3.276   5.102  0.00  0.00    +0.106 C 
ATOM     23  N   UNL     1       0.554  -2.504   5.917  0.00  0.00    -0.191 NA
ENDBRANCH  11  22
ENDBRANCH   9  11
ENDBRANCH   8   9
ENDBRANCH   7   8
ENDBRANCH   5   7
BRANCH   2  24
ATOM     24  C   UNL     1       0.297   3.568   0.375  0.00  0.00    +0.268 C 
BRANCH  24  25
ATOM     25  O   UNL     1       0.521   4.169   1.652  0.00  0.00    -0.456 OA
BRANCH  25  26
ATOM     26  C   UNL     1       0.637   5.512   1.685  0.00  0.00    +0.350 C 
ATOM     27  O   UNL     1       0.550   6.154   0.657  0.00  0.00    -0.244 OA
BRANCH  26  28
ATOM     28  C   UNL     1       0.869   6.198   2.963  0.00  0.00    +0.136 C 
ATOM     29  C   UNL     1       0.987   7.572   2.997  0.00  0.00    +0.034 C 
BRANCH  29  30
ATOM     30  C   UNL     1       1.358   8.244   4.243  0.00  0.00    -0.020 A 
ATOM     31  C   UNL     1       2.204   7.607   5.162  0.00  0.00    +0.057 A 
ATOM     32  C   UNL     1       2.551   8.246   6.335  0.00  0.00    +0.167 A 
ATOM     33  C   UNL     1       2.059   9.525   6.605  0.00  0.00    +0.166 A 
ATOM     34  C   UNL     1       1.222  10.158   5.694  0.00  0.00    +0.050 A 
ATOM     35  C   UNL     1       0.874   9.530   4.520  0.00  0.00    +0.012 A 
ATOM     36  O   UNL     1       2.545   9.930   7.813  0.00  0.00    -0.453 OA
ATOM     37  C   UNL     1       3.002   8.731   8.466  0.00  0.00    +0.466 C 
ATOM     38  O   UNL     1       3.342   7.854   7.376  0.00  0.00    -0.453 OA
ENDBRANCH  29  30
BRANCH  28  39
ATOM     39  C   UNL     1       0.971   5.441   4.175  0.00  0.00    +0.106 C 
ATOM     40  N   UNL     1       1.052   4.840   5.135  0.00  0.00    -0.191 NA
ENDBRANCH  28  39
ENDBRANCH  26  28
ENDBRANCH  25  26
ENDBRANCH  24  25
ENDBRANCH   2  24
TORSDOF 12
