REMARK  Name = ZINC65207532
REMARK  12 active torsions:
REMARK  status: ('A' for Active; 'I' for Inactive)
REMARK    1  A    between atoms: C_1  and  C_2
REMARK    2  A    between atoms: C_4  and  C_27
REMARK    3  A    between atoms: C_6  and  N_8
REMARK    4  A    between atoms: C_12  and  S_13
REMARK    5  A    between atoms: S_13  and  C_14
REMARK    6  A    between atoms: C_14  and  C_15
REMARK    7  A    between atoms: N_17  and  N_18
REMARK    8  A    between atoms: N_21  and  C_22
REMARK    9  A    between atoms: C_22  and  C_23
REMARK   10  A    between atoms: C_23  and  C_24
REMARK   11  A    between atoms: C_24  and  O_25
REMARK   12  A    between atoms: O_25  and  C_26
REMARK                            x       y       z     vdW  Elec       q    Type
REMARK                         _______ _______ _______ _____ _____    ______ ____
ROOT
ATOM      1  C   UNL     1       2.906  -1.616   5.165  0.00  0.00    +0.174 C 
ENDROOT
BRANCH   1   2
ATOM      2  C   UNL     1       4.022  -0.623   5.365  0.00  0.00    +0.239 C 
ATOM      3  O   UNL     1       4.291   0.171   4.488  0.00  0.00    -0.273 OA
ATOM      4  N   UNL     1       4.721  -0.618   6.517  0.00  0.00    -0.233 N 
ATOM      5  H   UNL     1       4.505  -1.253   7.218  0.00  0.00    +0.173 HD
BRANCH   4   6
ATOM      6  N   UNL     1       5.758   0.305   6.703  0.00  0.00    -0.218 N 
ATOM      7  C   UNL     1       6.457   0.311   7.855  0.00  0.00    +0.316 C 
ATOM      8  O   UNL     1       7.358   1.112   8.016  0.00  0.00    -0.251 OA
ATOM      9  N   UNL     1       6.158  -0.572   8.829  0.00  0.00    -0.298 N 
ATOM     10  H   UNL     1       5.973   0.940   6.002  0.00  0.00    +0.174 HD
ATOM     11  H   UNL     1       5.440  -1.211   8.700  0.00  0.00    +0.150 HD
BRANCH   9  12
ATOM     12  C   UNL     1       6.918  -0.566  10.081  0.00  0.00    +0.108 C 
BRANCH  12  13
ATOM     13  C   UNL     1       6.381  -1.658  11.009  0.00  0.00    +0.047 C 
BRANCH  13  14
ATOM     14  C   UNL     1       7.174  -1.652  12.317  0.00  0.00    +0.161 C 
BRANCH  14  15
ATOM     15  O   UNL     1       6.672  -2.671  13.183  0.00  0.00    -0.383 OA
ATOM     16  C   UNL     1       7.348  -2.751  14.440  0.00  0.00    +0.193 C 
ENDBRANCH  14  15
ENDBRANCH  13  14
ENDBRANCH  12  13
ENDBRANCH   9  12
ENDBRANCH   4   6
ENDBRANCH   1   2
BRANCH   1  17
ATOM     17  S   UNL     1       2.165  -1.372   3.527  0.00  0.00    -0.078 S 
BRANCH  17  22
ATOM     18  N   UNL     1       0.053  -2.798   2.395  0.00  0.00    -0.295 N 
ATOM     19  C   UNL     1      -0.776  -3.843   2.744  0.00  0.00    +0.113 A 
ATOM     20  C   UNL     1      -0.421  -4.228   3.982  0.00  0.00    +0.131 A 
ATOM     21  N   UNL     1       0.595  -3.450   4.393  0.00  0.00    -0.230 NA
ATOM     22  C   UNL     1       0.895  -2.590   3.448  0.00  0.00    +0.174 A 
BRANCH  18  28
ATOM     23  C   UNL     1      -0.018   1.503   0.010  0.00  0.00    +0.044 C 
ATOM     24  C   UNL     1       0.002  -0.004   0.002  0.00  0.00    -0.048 A 
ATOM     25  C   UNL     1       0.006  -0.688  -1.200  0.00  0.00    +0.006 A 
ATOM     26  C   UNL     1       0.025  -2.071  -1.211  0.00  0.00    -0.048 A 
ATOM     27  C   UNL     1       0.040  -2.773  -0.022  0.00  0.00    +0.029 A 
ATOM     28  C   UNL     1       0.037  -2.088   1.186  0.00  0.00    +0.049 A 
ATOM     29  C   UNL     1       0.023  -0.700   1.195  0.00  0.00    +0.029 A 
ATOM     30  C   UNL     1       0.028  -2.813  -2.523  0.00  0.00    +0.044 C 
ENDBRANCH  18  28
ENDBRANCH  17  22
ENDBRANCH   1  17
TORSDOF 9
