REMARK  Name = ZINC05286845
REMARK  5 active torsions:
REMARK  status: ('A' for Active; 'I' for Inactive)
REMARK    1  A    between atoms: C_1  and  O_2
REMARK    2  A    between atoms: O_2  and  C_3
REMARK    3  A    between atoms: C_6  and  O_18
REMARK    4  A    between atoms: C_7  and  C_9
REMARK    5  A    between atoms: N_10  and  C_11
REMARK                            x       y       z     vdW  Elec       q    Type
REMARK                         _______ _______ _______ _____ _____    ______ ____
ROOT
ATOM      1  C   UNL     1      -0.355   0.939   2.390  0.00  0.00    +0.121 A 
ATOM      2  C   UNL     1       0.607  -0.063   2.436  0.00  0.00    +0.049 A 
ATOM      3  C   UNL     1       1.118  -0.485   3.647  0.00  0.00    +0.049 A 
ATOM      4  C   UNL     1       0.668   0.082   4.829  0.00  0.00    +0.126 A 
ATOM      5  C   UNL     1      -0.306   1.091   4.791  0.00  0.00    +0.038 A 
ATOM      6  C   UNL     1      -0.815   1.516   3.559  0.00  0.00    +0.058 A 
ENDROOT
BRANCH   1   8
ATOM      7  C   UNL     1      -0.330   0.713   0.023  0.00  0.00    +0.277 C 
ATOM      8  O   UNL     1      -0.849   1.351   1.191  0.00  0.00    -0.495 OA
ENDBRANCH   1   8
BRANCH   5   9
ATOM      9  C   UNL     1      -0.789   1.699   6.039  0.00  0.00    +0.123 C 
ATOM     10  N   UNL     1      -0.313   1.300   7.186  0.00  0.00    -0.254 NA
BRANCH  10  11
ATOM     11  C   UNL     1      -0.838   1.788   8.352  0.00  0.00    +0.077 A 
ATOM     12  C   UNL     1      -2.221   1.817   8.540  0.00  0.00    +0.029 A 
ATOM     13  C   UNL     1      -2.743   2.305   9.720  0.00  0.00    +0.002 A 
ATOM     14  C   UNL     1      -1.900   2.775  10.712  0.00  0.00    +0.001 A 
ATOM     15  C   UNL     1      -0.529   2.755  10.530  0.00  0.00    +0.016 A 
ATOM     16  C   UNL     1       0.008   2.264   9.357  0.00  0.00    +0.039 A 
ATOM     17  I   UNL     1       2.085   2.236   9.083  0.00  0.00    -0.042 I 
ENDBRANCH  10  11
ENDBRANCH   5   9
BRANCH   4  18
ATOM     18  O   UNL     1       1.168  -0.338   6.019  0.00  0.00    -0.506 OA
ATOM     19  H   UNL     1       0.677  -1.071   6.415  0.00  0.00    +0.292 HD
ENDBRANCH   4  18
TORSDOF 4
