REMARK  Name = ZINC52604305
REMARK  7 active torsions:
REMARK  status: ('A' for Active; 'I' for Inactive)
REMARK    1  A    between atoms: C_1  and  C_2
REMARK    2  A    between atoms: C_5  and  S_8
REMARK    3  A    between atoms: S_8  and  N_11
REMARK    4  A    between atoms: C_14  and  C_17
REMARK    5  A    between atoms: C_23  and  C_26
REMARK    6  A    between atoms: C_26  and  C_27
REMARK    7  A    between atoms: N_32  and  C_33
REMARK                            x       y       z     vdW  Elec       q    Type
REMARK                         _______ _______ _______ _____ _____    ______ ____
ROOT
ATOM      1  C   UNL     1       5.623  -3.611  -0.006  0.00  0.00    -0.021 A 
ATOM      2  C   UNL     1       5.817  -2.197  -0.298  0.00  0.00    +0.010 A 
ATOM      3  C   UNL     1       7.040  -1.630  -0.291  0.00  0.00    +0.026 A 
ATOM      4  C   UNL     1       8.223  -2.440   0.017  0.00  0.00    +0.043 A 
ATOM      5  N   UNL     1       9.494  -2.127   0.085  0.00  0.00    -0.380 N 
ATOM      6  C   UNL     1      10.256  -3.331   0.435  0.00  0.00    +0.144 C 
ATOM      7  C   UNL     1       9.238  -4.441   0.571  0.00  0.00    -0.043 C 
ATOM      8  C   UNL     1       8.032  -3.877   0.316  0.00  0.00    -0.001 A 
ATOM      9  C   UNL     1       6.675  -4.426   0.295  0.00  0.00    +0.018 A 
ATOM     10  H   UNL     1       9.869  -1.246  -0.071  0.00  0.00    +0.160 HD
ENDROOT
BRANCH   1  14
ATOM     11  N   UNL     1       1.651  -4.999  -0.034  0.00  0.00    -0.173 NA
ATOM     12  C   UNL     1       2.380  -5.204  -1.298  0.00  0.00    +0.114 C 
ATOM     13  C   UNL     1       3.535  -4.199  -1.344  0.00  0.00    +0.052 C 
ATOM     14  C   UNL     1       4.258  -4.173  -0.030  0.00  0.00    -0.042 C 
ATOM     15  C   UNL     1       3.757  -4.616   1.100  0.00  0.00    -0.006 C 
ATOM     16  C   UNL     1       2.391  -5.223   1.216  0.00  0.00    +0.137 C 
BRANCH  11  17
ATOM     17  S   UNL     1       0.063  -4.530  -0.023  0.00  0.00    +0.061 S 
ATOM     18  O   UNL     1      -0.476  -4.950   1.223  0.00  0.00    -0.153 OA
ATOM     19  O   UNL     1      -0.490  -4.937  -1.267  0.00  0.00    -0.153 OA
BRANCH  17  24
ATOM     20  C   UNL     1      -0.018   1.503   0.010  0.00  0.00    +0.044 C 
ATOM     21  C   UNL     1       0.002  -0.004   0.002  0.00  0.00    -0.050 A 
ATOM     22  C   UNL     1       0.006  -0.689  -1.199  0.00  0.00    +0.005 A 
ATOM     23  C   UNL     1       0.025  -2.071  -1.206  0.00  0.00    +0.029 A 
ATOM     24  C   UNL     1       0.040  -2.768  -0.013  0.00  0.00    +0.106 A 
ATOM     25  C   UNL     1       0.037  -2.084   1.188  0.00  0.00    +0.029 A 
ATOM     26  C   UNL     1       0.023  -0.702   1.195  0.00  0.00    +0.005 A 
ENDBRANCH  17  24
ENDBRANCH  11  17
ENDBRANCH   1  14
BRANCH   7  27
ATOM     27  C   UNL     1       9.509  -5.881   0.921  0.00  0.00    +0.018 C 
BRANCH  27  28
ATOM     28  C   UNL     1       9.876  -6.654  -0.348  0.00  0.00    -0.065 C 
ATOM     29  C   UNL     1      10.209  -8.127  -0.006  0.00  0.00    -0.017 C 
ATOM     30  C   UNL     1       9.924  -8.835  -1.356  0.00  0.00    -0.020 C 
ATOM     31  C   UNL     1       8.714  -8.054  -1.910  0.00  0.00    -0.079 C 
ATOM     32  N   UNL     1       8.713  -6.729  -1.259  0.00  0.00    +0.380 N 
ATOM     33  C   UNL     1       8.813  -5.675  -2.277  0.00  0.00    -0.096 C 
ATOM     34  H   UNL     1       7.861  -6.611  -0.732  0.00  0.00    -0.082 HD
ENDBRANCH  27  28
ENDBRANCH   7  27
TORSDOF 5
