REMARK  Name = ZINC61443436
REMARK  5 active torsions:
REMARK  status: ('A' for Active; 'I' for Inactive)
REMARK    1  A    between atoms: C_1  and  O_2
REMARK    2  A    between atoms: O_2  and  C_3
REMARK    3  A    between atoms: C_4  and  C_9
REMARK    4  A    between atoms: C_9  and  C_11
REMARK    5  A    between atoms: C_9  and  N_18
REMARK                            x       y       z     vdW  Elec       q    Type
REMARK                         _______ _______ _______ _____ _____    ______ ____
ROOT
ATOM      1  C   UNL     1       0.029  -2.831  -0.002  0.00  0.00    -0.006 C 
ENDROOT
BRANCH   1   2
ATOM      2  C   UNL     1       0.508  -2.994  -1.422  0.00  0.00    -0.035 A 
ATOM      3  C   UNL     1       0.091  -4.069  -2.185  0.00  0.00    +0.026 A 
ATOM      4  C   UNL     1       0.541  -4.185  -3.458  0.00  0.00    +0.056 A 
ATOM      5  S   UNL     1       1.587  -2.747  -3.613  0.00  0.00    -0.074 S 
ATOM      6  C   UNL     1       1.350  -2.085  -1.972  0.00  0.00    +0.058 A 
ATOM      7 BR   UNL     1       2.084  -0.522  -1.202  0.00  0.00    -0.042 Br
ATOM      8 BR   UNL     1       0.161  -5.524  -4.739  0.00  0.00    -0.043 Br
ENDBRANCH   1   2
BRANCH   1  10
ATOM      9  C   UNL     1      -1.599  -1.346   1.209  0.00  0.00    +0.216 A 
ATOM     10  C   UNL     1      -1.179  -1.929   0.020  0.00  0.00    +0.004 A 
ATOM     11  C   UNL     1      -1.883  -1.671  -1.143  0.00  0.00    +0.009 A 
ATOM     12  C   UNL     1      -2.988  -0.834  -1.075  0.00  0.00    +0.020 A 
ATOM     13  C   UNL     1      -3.349  -0.289   0.140  0.00  0.00    +0.114 A 
ATOM     14  N   UNL     1      -2.661  -0.558   1.234  0.00  0.00    -0.221 NA
BRANCH   9  16
ATOM     15  C   UNL     1      -1.404  -0.967   3.546  0.00  0.00    +0.279 C 
ATOM     16  O   UNL     1      -0.918  -1.592   2.356  0.00  0.00    -0.480 OA
ENDBRANCH   9  16
ENDBRANCH   1  10
BRANCH   1  17
ATOM     17  N   UNL     1      -0.332  -4.145   0.546  0.00  0.00    +0.385 N 
ATOM     18  H   UNL     1      -1.067  -4.553  -0.012  0.00  0.00    -0.089 HD
ATOM     19  H   UNL     1       0.477  -4.749   0.531  0.00  0.00    -0.089 HD
ATOM     20  H   UNL     1      -0.652  -4.037   1.497  0.00  0.00    -0.089 HD
ENDBRANCH   1  17
TORSDOF 4
