REMARK  Name = ZINC57531316
REMARK  9 active torsions:
REMARK  status: ('A' for Active; 'I' for Inactive)
REMARK    1  A    between atoms: C_1  and  C_2
REMARK    2  A    between atoms: C_2  and  O_3
REMARK    3  A    between atoms: O_3  and  C_4
REMARK    4  A    between atoms: C_4  and  C_6
REMARK    5  A    between atoms: C_8  and  C_21
REMARK    6  A    between atoms: N_13  and  C_20
REMARK    7  A    between atoms: C_14  and  C_15
REMARK    8  A    between atoms: C_14  and  O_19
REMARK    9  A    between atoms: C_26  and  N_27
REMARK                            x       y       z     vdW  Elec       q    Type
REMARK                         _______ _______ _______ _____ _____    ______ ____
ROOT
ATOM      1  C   UNL     1       1.468  -2.353  -2.550  0.00  0.00    +0.182 C 
ATOM      2  C   UNL     1       2.922  -1.871  -2.582  0.00  0.00    +0.125 C 
ATOM      3  N   UNL     1       3.634  -2.414  -1.424  0.00  0.00    -0.291 N 
ATOM      4  C   UNL     1       3.279  -3.584  -0.873  0.00  0.00    +0.305 C 
ATOM      5  O   UNL     1       3.910  -3.996   0.081  0.00  0.00    -0.253 OA
ATOM      6  N   UNL     1       2.255  -4.319  -1.333  0.00  0.00    -0.252 N 
ATOM      7  C   UNL     1       1.459  -3.885  -2.487  0.00  0.00    +0.248 C 
ATOM      8  C   UNL     1       1.921  -5.581  -0.668  0.00  0.00    +0.137 C 
ATOM      9  H   UNL     1       4.378  -1.918  -1.048  0.00  0.00    +0.151 HD
ENDROOT
BRANCH   2  10
ATOM     10  C   UNL     1       2.954  -0.365  -2.533  0.00  0.00    +0.004 A 
ATOM     11  C   UNL     1       3.221   0.283  -1.341  0.00  0.00    +0.008 A 
ATOM     12  C   UNL     1       3.250   1.664  -1.296  0.00  0.00    +0.000 A 
ATOM     13  C   UNL     1       3.013   2.398  -2.443  0.00  0.00    +0.002 A 
ATOM     14  C   UNL     1       2.747   1.750  -3.635  0.00  0.00    +0.033 A 
ATOM     15  C   UNL     1       2.722   0.369  -3.681  0.00  0.00    +0.131 A 
BRANCH  15  16
ATOM     16  N   UNL     1       2.442  -0.324  -4.959  0.00  0.00    +0.057 N 
ATOM     17  O   UNL     1       2.240   0.318  -5.963  0.00  0.00    -0.126 OA
ATOM     18  O   UNL     1       2.417  -1.532  -4.998  0.00  0.00    -0.126 OA
ENDBRANCH  15  16
ENDBRANCH   2  10
BRANCH   7  19
ATOM     19  C   UNL     1       2.070  -4.452  -3.770  0.00  0.00    +0.437 C 
ATOM     20  F   UNL     1       3.387  -3.999  -3.900  0.00  0.00    -0.166 F 
ATOM     21  F   UNL     1       2.062  -5.850  -3.712  0.00  0.00    -0.166 F 
ATOM     22  F   UNL     1       1.320  -4.027  -4.872  0.00  0.00    -0.166 F 
ENDBRANCH   7  19
BRANCH   1  23
ATOM     23  C   UNL     1       0.775  -1.794  -1.334  0.00  0.00    +0.317 C 
ATOM     24  O   UNL     1       0.314  -2.540  -0.504  0.00  0.00    -0.250 OA
BRANCH  23  25
ATOM     25  O   UNL     1       0.671  -0.465  -1.174  0.00  0.00    -0.465 OA
BRANCH  25  27
ATOM     26  C   UNL     1      -0.019   1.526   0.010  0.00  0.00    +0.048 C 
ATOM     27  C   UNL     1       0.002  -0.004   0.002  0.00  0.00    +0.229 C 
ENDBRANCH  25  27
ENDBRANCH  23  25
ENDBRANCH   1  23
BRANCH   7  28
ATOM     28  O   UNL     1       0.115  -4.349  -2.351  0.00  0.00    -0.364 OA
ATOM     29  H   UNL     1       0.034  -5.312  -2.305  0.00  0.00    +0.212 HD
ENDBRANCH   7  28
TORSDOF 7
