REMARK  Name = ZINC36560023
REMARK  18 active torsions:
REMARK  status: ('A' for Active; 'I' for Inactive)
REMARK    1  A    between atoms: C_1  and  C_2
REMARK    2  A    between atoms: C_2  and  C_3
REMARK    3  A    between atoms: C_3  and  N_4
REMARK    4  A    between atoms: N_4  and  C_5
REMARK    5  A    between atoms: C_5  and  C_7
REMARK    6  A    between atoms: C_5  and  C_13
REMARK    7  A    between atoms: N_15  and  C_16
REMARK    8  A    between atoms: C_16  and  C_17
REMARK    9  A    between atoms: C_16  and  C_18
REMARK   10  A    between atoms: C_16  and  C_19
REMARK   11  A    between atoms: C_19  and  C_20
REMARK   12  A    between atoms: C_20  and  C_21
REMARK   13  A    between atoms: C_20  and  C_22
REMARK   14  A    between atoms: C_20  and  C_23
REMARK   15  A    between atoms: C_24  and  C_26
REMARK   16  A    between atoms: C_32  and  O_34
REMARK   17  A    between atoms: O_34  and  C_35
REMARK   18  A    between atoms: C_35  and  C_36
REMARK                            x       y       z     vdW  Elec       q    Type
REMARK                         _______ _______ _______ _____ _____    ______ ____
ROOT
ATOM      1  N   UNL     1       1.901  -1.592   1.535  0.00  0.00    -0.284 N 
ATOM      2  C   UNL     1       0.602  -1.751   1.856  0.00  0.00    +0.237 C 
ATOM      3  O   UNL     1       0.113  -2.861   1.873  0.00  0.00    -0.274 OA
ENDROOT
BRANCH   2   4
ATOM      4  C   UNL     1      -0.244  -0.550   2.192  0.00  0.00    +0.165 C 
ATOM      5  C   UNL     1       0.011  -0.121   3.652  0.00  0.00    +0.033 C 
ATOM      6  C   UNL     1      -1.401   0.294   4.144  0.00  0.00    +0.021 C 
ATOM      7  C   UNL     1      -2.301  -0.725   3.402  0.00  0.00    +0.112 C 
ATOM      8  N   UNL     1      -1.669  -0.893   2.077  0.00  0.00    -0.256 N 
ATOM      9  C   UNL     1      -2.292  -1.294   0.951  0.00  0.00    +0.404 C 
ATOM     10  O   UNL     1      -1.666  -1.397  -0.086  0.00  0.00    -0.226 OA
BRANCH   9  11
ATOM     11  O   UNL     1      -3.607  -1.581   0.975  0.00  0.00    -0.445 OA
BRANCH  11  12
ATOM     12  C   UNL     1      -4.202  -2.000  -0.255  0.00  0.00    +0.269 C 
BRANCH  12  13
ATOM     13  C   UNL     1      -5.668  -2.275  -0.036  0.00  0.00    -0.010 A 
ATOM     14  C   UNL     1      -6.086  -3.539   0.336  0.00  0.00    +0.007 A 
ATOM     15  C   UNL     1      -7.430  -3.791   0.537  0.00  0.00    +0.000 A 
ATOM     16  C   UNL     1      -8.356  -2.779   0.366  0.00  0.00    +0.000 A 
ATOM     17  C   UNL     1      -7.938  -1.514  -0.004  0.00  0.00    +0.000 A 
ATOM     18  C   UNL     1      -6.593  -1.261  -0.201  0.00  0.00    +0.007 A 
ENDBRANCH  12  13
ENDBRANCH  11  12
ENDBRANCH   9  11
ENDBRANCH   2   4
BRANCH   1  19
ATOM     19  C   UNL     1       2.491  -0.252   1.514  0.00  0.00    +0.108 C 
BRANCH  19  21
ATOM     20  C   UNL     1       3.466   1.524   0.051  0.00  0.00    +0.005 C 
ATOM     21  C   UNL     1       2.890   0.107   0.081  0.00  0.00    +0.016 C 
ENDBRANCH  19  21
ENDBRANCH   1  19
BRANCH   1  22
ATOM     22  C   UNL     1       2.723  -2.760   1.208  0.00  0.00    +0.192 C 
BRANCH  22  23
ATOM     23  C   UNL     1       2.233  -3.375  -0.078  0.00  0.00    -0.018 A 
ATOM     24  C   UNL     1       1.729  -2.569  -1.081  0.00  0.00    +0.006 A 
ATOM     25  C   UNL     1       1.280  -3.132  -2.261  0.00  0.00    +0.000 A 
ATOM     26  C   UNL     1       1.336  -4.503  -2.437  0.00  0.00    +0.000 A 
ATOM     27  C   UNL     1       1.841  -5.309  -1.434  0.00  0.00    +0.000 A 
ATOM     28  C   UNL     1       2.294  -4.744  -0.256  0.00  0.00    +0.006 A 
ENDBRANCH  22  23
BRANCH  22  29
ATOM     29  C   UNL     1       4.159  -2.334   1.046  0.00  0.00    +0.238 C 
ATOM     30  O   UNL     1       4.530  -1.270   1.495  0.00  0.00    -0.273 OA
ATOM     31  N   UNL     1       5.032  -3.135   0.403  0.00  0.00    -0.308 N 
ATOM     32  H   UNL     1       4.735  -3.986   0.045  0.00  0.00    +0.149 HD
BRANCH  31  33
ATOM     33  C   UNL     1       6.428  -2.721   0.246  0.00  0.00    +0.030 C 
ATOM     34  C   UNL     1       6.497  -1.501  -0.675  0.00  0.00    +0.031 C 
ATOM     35  C   UNL     1       7.010  -2.360   1.614  0.00  0.00    +0.031 C 
BRANCH  33  36
ATOM     36  C   UNL     1       7.235  -3.868  -0.365  0.00  0.00    +0.031 C 
BRANCH  36  37
ATOM     37  C   UNL     1       6.664  -5.204   0.114  0.00  0.00    -0.036 C 
ATOM     38  C   UNL     1       5.479  -5.598  -0.770  0.00  0.00    +0.010 C 
ATOM     39  C   UNL     1       7.746  -6.282   0.026  0.00  0.00    +0.010 C 
ATOM     40  C   UNL     1       6.196  -5.069   1.564  0.00  0.00    +0.010 C 
ENDBRANCH  36  37
ENDBRANCH  33  36
ENDBRANCH  31  33
ENDBRANCH  22  29
ENDBRANCH   1  22
TORSDOF 12
