REMARK  Name = ZINC25048309
REMARK  8 active torsions:
REMARK  status: ('A' for Active; 'I' for Inactive)
REMARK    1  A    between atoms: C_6  and  N_7
REMARK    2  A    between atoms: C_8  and  C_10
REMARK    3  A    between atoms: C_10  and  O_11
REMARK    4  A    between atoms: O_11  and  C_12
REMARK    5  A    between atoms: C_12  and  C_14
REMARK    6  A    between atoms: C_14  and  C_15
REMARK    7  A    between atoms: C_15  and  N_16
REMARK    8  A    between atoms: N_19  and  C_20
REMARK                            x       y       z     vdW  Elec       q    Type
REMARK                         _______ _______ _______ _____ _____    ______ ____
ROOT
ATOM      1  C   UNL     1      -1.517  -1.840   0.017  0.00  0.00    +0.309 C 
ATOM      2  O   UNL     1      -0.549  -2.563   0.012  0.00  0.00    -0.251 OA
ENDROOT
BRANCH   1   3
ATOM      3  O   UNL     1      -1.360  -0.507   0.015  0.00  0.00    -0.455 OA
BRANCH   3   4
ATOM      4  C   UNL     1       0.002  -0.004   0.009  0.00  0.00    +0.328 C 
BRANCH   4   6
ATOM      5  N   UNL     1       1.139   2.192   0.003  0.00  0.00    -0.283 N 
ATOM      6  C   UNL     1      -0.018   1.503   0.009  0.00  0.00    +0.255 C 
ATOM      7  O   UNL     1      -1.077   2.095   0.008  0.00  0.00    -0.272 OA
ATOM      8  H   UNL     1       2.098   1.658   0.075  0.00  0.00    +0.155 HD
BRANCH   5  14
ATOM      9  C   UNL     1       2.125   4.249  -0.793  0.00  0.00    +0.027 A 
ATOM     10  C   UNL     1       2.107   5.628  -0.894  0.00  0.00    +0.051 A 
ATOM     11  C   UNL     1       1.096   6.354  -0.292  0.00  0.00    +0.167 A 
ATOM     12  C   UNL     1       0.089   5.695   0.415  0.00  0.00    +0.169 A 
ATOM     13  C   UNL     1       0.104   4.316   0.511  0.00  0.00    +0.073 A 
ATOM     14  C   UNL     1       1.122   3.590  -0.095  0.00  0.00    +0.037 A 
ATOM     15  O   UNL     1      -0.777   6.635   0.909  0.00  0.00    -0.447 OA
ATOM     16  C   UNL     1      -0.547   7.784   0.082  0.00  0.00    +0.254 C 
ATOM     17  O   UNL     1       0.850   7.702  -0.234  0.00  0.00    -0.448 OA
ATOM     18  C   UNL     1      -0.870   9.081   0.834  0.00  0.00    +0.093 C 
ATOM     19  C   UNL     1      -1.441  10.017  -0.263  0.00  0.00    +0.008 C 
ATOM     20  C   UNL     1      -2.256   9.047  -1.155  0.00  0.00    +0.008 C 
ATOM     21  C   UNL     1      -1.411   7.753  -1.178  0.00  0.00    +0.093 C 
ENDBRANCH   5  14
ENDBRANCH   4   6
ENDBRANCH   3   4
ENDBRANCH   1   3
BRANCH   1  22
ATOM     22  C   UNL     1      -2.902  -2.435   0.023  0.00  0.00    +0.139 C 
BRANCH  22  23
ATOM     23  C   UNL     1      -2.801  -3.962   0.023  0.00  0.00    +0.117 C 
BRANCH  23  24
ATOM     24  N   UNL     1      -4.147  -4.540   0.030  0.00  0.00    -0.299 N 
ATOM     25  C   UNL     1      -4.305  -5.878   0.031  0.00  0.00    +0.300 C 
ATOM     26  O   UNL     1      -3.331  -6.606   0.027  0.00  0.00    -0.253 OA
ATOM     27  N   UNL     1      -5.543  -6.411   0.037  0.00  0.00    -0.294 N 
ATOM     28  H   UNL     1      -5.028  -3.882   0.034  0.00  0.00    +0.150 HD
ATOM     29  H   UNL     1      -6.425  -5.753   0.041  0.00  0.00    +0.151 HD
BRANCH  27  30
ATOM     30  C   UNL     1      -5.715  -7.865   0.038  0.00  0.00    +0.037 C 
ATOM     31  C   UNL     1      -5.065  -8.457  -1.214  0.00  0.00    +0.029 C 
ATOM     32  C   UNL     1      -5.245  -9.976  -1.213  0.00  0.00    -0.008 C 
ATOM     33  C   UNL     1      -6.737 -10.314  -1.205  0.00  0.00    +0.007 C 
ATOM     34  C   UNL     1      -7.388  -9.722   0.047  0.00  0.00    -0.008 C 
ATOM     35  C   UNL     1      -7.208  -8.203   0.045  0.00  0.00    +0.029 C 
ATOM     36  C   UNL     1      -6.725 -10.313   1.293  0.00  0.00    +0.007 C 
ATOM     37  C   UNL     1      -5.233  -9.976   1.286  0.00  0.00    -0.008 C 
ATOM     38  C   UNL     1      -4.582 -10.567   0.034  0.00  0.00    +0.007 C 
ATOM     39  C   UNL     1      -5.053  -8.456   1.285  0.00  0.00    +0.029 C 
ENDBRANCH  27  30
ENDBRANCH  23  24
ENDBRANCH  22  23
ENDBRANCH   1  22
TORSDOF 8
