REMARK  Name = ZINC01160451
REMARK  5 active torsions:
REMARK  status: ('A' for Active; 'I' for Inactive)
REMARK    1  A    between atoms: C_1  and  C_2
REMARK    2  A    between atoms: C_2  and  S_3
REMARK    3  A    between atoms: S_3  and  C_4
REMARK    4  A    between atoms: C_17  and  C_20
REMARK    5  A    between atoms: C_24  and  N_26
REMARK                            x       y       z     vdW  Elec       q    Type
REMARK                         _______ _______ _______ _____ _____    ______ ____
ROOT
ATOM      1  C   UNL     1      -3.534   3.493   0.090  0.00  0.00    +0.212 A 
ATOM      2  N   UNL     1      -2.610   3.852  -0.797  0.00  0.00    -0.184 NA
ATOM      3  C   UNL     1      -1.464   3.194  -0.839  0.00  0.00    +0.248 A 
ATOM      4  C   UNL     1      -1.257   2.132   0.070  0.00  0.00    +0.156 A 
ATOM      5  N   UNL     1      -2.219   1.823   0.925  0.00  0.00    -0.141 NA
ATOM      6  N   UNL     1      -3.323   2.487   0.929  0.00  0.00    -0.122 NA
ATOM      7  C   UNL     1       0.023   1.394   0.050  0.00  0.00    +0.029 A 
ATOM      8  C   UNL     1       0.061   0.005   0.062  0.00  0.00    +0.027 A 
ATOM      9  C   UNL     1       1.278  -0.648   0.066  0.00  0.00    +0.019 A 
ATOM     10  C   UNL     1       2.461   0.073   0.058  0.00  0.00    +0.017 A 
ATOM     11  C   UNL     1       2.437   1.455   0.041  0.00  0.00    +0.025 A 
ATOM     12  C   UNL     1       1.226   2.123   0.031  0.00  0.00    +0.040 A 
ATOM     13  N   UNL     1       1.165   3.520  -0.015  0.00  0.00    -0.305 N 
ATOM     14  C   UNL     1       0.667   4.162  -1.228  0.00  0.00    +0.294 C 
ATOM     15  O   UNL     1      -0.497   3.516  -1.730  0.00  0.00    -0.449 OA
ATOM     16 BR   UNL     1       1.331  -2.539   0.081  0.00  0.00    -0.050 Br
ATOM     17  H   UNL     1       1.447   4.052   0.745  0.00  0.00    +0.150 HD
ENDROOT
BRANCH  14  18
ATOM     18  C   UNL     1       1.744   4.121  -2.282  0.00  0.00    +0.013 A 
ATOM     19  C   UNL     1       3.065   4.326  -1.929  0.00  0.00    +0.009 A 
ATOM     20  C   UNL     1       4.053   4.285  -2.895  0.00  0.00    +0.003 A 
ATOM     21  C   UNL     1       3.719   4.047  -4.215  0.00  0.00    +0.033 A 
ATOM     22  C   UNL     1       2.398   3.847  -4.569  0.00  0.00    +0.127 A 
ATOM     23  C   UNL     1       1.410   3.885  -3.602  0.00  0.00    +0.041 A 
BRANCH  22  24
ATOM     24  N   UNL     1       2.041   3.593  -5.983  0.00  0.00    +0.056 N 
ATOM     25  O   UNL     1       0.877   3.417  -6.295  0.00  0.00    -0.126 OA
ATOM     26  O   UNL     1       2.911   3.560  -6.834  0.00  0.00    -0.126 OA
ENDBRANCH  22  24
ENDBRANCH  14  18
BRANCH   1  27
ATOM     27  S   UNL     1      -5.064   4.366   0.150  0.00  0.00    -0.085 S 
BRANCH  27  29
ATOM     28  C   UNL     1      -7.272   4.068   1.731  0.00  0.00    +0.016 C 
ATOM     29  C   UNL     1      -5.885   3.469   1.491  0.00  0.00    +0.074 C 
ENDBRANCH  27  29
ENDBRANCH   1  27
TORSDOF 4
