REMARK  Name = ZINC43765328
REMARK  4 active torsions:
REMARK  status: ('A' for Active; 'I' for Inactive)
REMARK    1  A    between atoms: C_10  and  N_11
REMARK    2  A    between atoms: N_11  and  S_12
REMARK    3  A    between atoms: S_12  and  C_15
REMARK    4  A    between atoms: C_28  and  C_31
REMARK                            x       y       z     vdW  Elec       q    Type
REMARK                         _______ _______ _______ _____ _____    ______ ____
ROOT
ATOM      1  C   UNL     1       5.911  -0.527  -2.513  0.00  0.00    +0.109 A 
ATOM      2  C   UNL     1       5.308  -1.614  -3.119  0.00  0.00    +0.030 A 
ATOM      3  C   UNL     1       5.081  -1.601  -4.480  0.00  0.00    +0.025 A 
ATOM      4  C   UNL     1       5.457  -0.498  -5.241  0.00  0.00    +0.031 A 
ATOM      5  C   UNL     1       6.050   0.594  -4.634  0.00  0.00    -0.018 A 
ATOM      6  C   UNL     1       6.276   0.572  -3.264  0.00  0.00    +0.034 A 
ATOM      7  C   UNL     1       6.443   1.825  -5.401  0.00  0.00    +0.049 C 
ATOM      8  C   UNL     1       5.857   3.029  -4.680  0.00  0.00    -0.023 C 
ATOM      9  C   UNL     1       4.782   3.453  -5.292  0.00  0.00    -0.030 C 
ATOM     10  C   UNL     1       4.488   2.612  -6.516  0.00  0.00    +0.033 C 
ATOM     11  C   UNL     1       5.837   1.879  -6.800  0.00  0.00    +0.029 C 
ATOM     12  C   UNL     1       5.654   0.560  -7.490  0.00  0.00    +0.105 C 
ATOM     13  N   UNL     1       5.232  -0.515  -6.614  0.00  0.00    -0.336 N 
ATOM     14  H   UNL     1       4.795  -1.289  -7.003  0.00  0.00    +0.147 HD
ENDROOT
BRANCH  12  15
ATOM     15  C   UNL     1       6.953   0.187  -8.158  0.00  0.00    -0.026 A 
ATOM     16  C   UNL     1       7.976  -0.373  -7.415  0.00  0.00    +0.005 A 
ATOM     17  C   UNL     1       9.167  -0.716  -8.027  0.00  0.00    +0.002 A 
ATOM     18  C   UNL     1       9.336  -0.498  -9.381  0.00  0.00    +0.020 A 
ATOM     19  C   UNL     1       8.314   0.063 -10.124  0.00  0.00    +0.041 A 
ATOM     20  C   UNL     1       7.119   0.400  -9.513  0.00  0.00    +0.025 A 
ATOM     21 CL   UNL     1       8.526   0.337 -11.825  0.00  0.00    -0.084 Cl
ENDBRANCH  12  15
BRANCH   1  22
ATOM     22  S   UNL     1       6.210  -0.543  -0.776  0.00  0.00    +0.072 S 
ATOM     23  O   UNL     1       7.275   0.367  -0.539  0.00  0.00    -0.150 OA
ATOM     24  O   UNL     1       6.273  -1.908  -0.388  0.00  0.00    -0.150 OA
BRANCH  22  25
ATOM     25  N   UNL     1       4.869   0.096  -0.044  0.00  0.00    -0.216 N 
ATOM     26  H   UNL     1       4.948   0.897   0.497  0.00  0.00    +0.174 HD
BRANCH  25  36
ATOM     27  C   UNL     1       0.118   1.747  -0.448  0.00  0.00    +0.001 A 
ATOM     28  C   UNL     1       1.349   2.381  -0.287  0.00  0.00    +0.001 A 
ATOM     29  C   UNL     1       2.502   1.662  -0.206  0.00  0.00    +0.010 A 
ATOM     30  C   UNL     1       2.454   0.261  -0.285  0.00  0.00    +0.004 A 
ATOM     31  C   UNL     1       1.204  -0.384  -0.448  0.00  0.00    -0.016 A 
ATOM     32  C   UNL     1       0.034   0.391  -0.528  0.00  0.00    +0.008 A 
ATOM     33  C   UNL     1       1.154  -1.786  -0.527  0.00  0.00    +0.008 A 
ATOM     34  C   UNL     1       2.303  -2.513  -0.445  0.00  0.00    +0.002 A 
ATOM     35  C   UNL     1       3.537  -1.891  -0.284  0.00  0.00    +0.025 A 
ATOM     36  C   UNL     1       3.629  -0.517  -0.204  0.00  0.00    +0.056 A 
ENDBRANCH  25  36
ENDBRANCH  22  25
ENDBRANCH   1  22
TORSDOF 4
