REMARK  Name = ZINC08872701
REMARK  6 active torsions:
REMARK  status: ('A' for Active; 'I' for Inactive)
REMARK    1  A    between atoms: C_4  and  N_7
REMARK    2  A    between atoms: N_14  and  N_15
REMARK    3  A    between atoms: C_16  and  C_17
REMARK    4  A    between atoms: C_22  and  O_23
REMARK    5  A    between atoms: N_25  and  C_26
REMARK    6  A    between atoms: C_29  and  N_32
REMARK                            x       y       z     vdW  Elec       q    Type
REMARK                         _______ _______ _______ _____ _____    ______ ____
ROOT
ATOM      1  N   UNL     1       3.484  -0.506  -0.580  0.00  0.00    -0.283 N 
ATOM      2  C   UNL     1       3.542  -1.887  -0.569  0.00  0.00    +0.225 A 
ATOM      3  N   UNL     1       4.718  -2.503  -0.492  0.00  0.00    -0.181 NA
ATOM      4  C   UNL     1       4.773  -3.831  -0.481  0.00  0.00    +0.225 A 
ATOM      5  N   UNL     1       3.653  -4.543  -0.546  0.00  0.00    -0.179 NA
ATOM      6  C   UNL     1       2.477  -3.928  -0.623  0.00  0.00    +0.241 A 
ATOM      7  N   UNL     1       2.421  -2.599  -0.628  0.00  0.00    -0.179 NA
ATOM      8  N   UNL     1       1.313  -4.668  -0.690  0.00  0.00    -0.205 N 
ATOM      9  N   UNL     1       5.995  -4.470  -0.402  0.00  0.00    -0.283 N 
ATOM     10  H   UNL     1       2.629  -0.056  -0.497  0.00  0.00    +0.155 HD
ATOM     11  H   UNL     1       1.357  -5.635  -0.757  0.00  0.00    +0.177 HD
ATOM     12  H   UNL     1       6.801  -3.958  -0.230  0.00  0.00    +0.155 HD
ENDROOT
BRANCH   1  16
ATOM     13  C   UNL     1       6.983   1.721  -0.970  0.00  0.00    +0.000 A 
ATOM     14  C   UNL     1       5.772   2.263  -1.362  0.00  0.00    +0.002 A 
ATOM     15  C   UNL     1       4.611   1.527  -1.234  0.00  0.00    +0.023 A 
ATOM     16  C   UNL     1       4.659   0.241  -0.712  0.00  0.00    +0.034 A 
ATOM     17  C   UNL     1       5.876  -0.301  -0.319  0.00  0.00    +0.023 A 
ATOM     18  C   UNL     1       7.034   0.441  -0.449  0.00  0.00    +0.002 A 
ENDBRANCH   1  16
BRANCH   9  19
ATOM     19  C   UNL     1       6.071  -5.856  -0.571  0.00  0.00    +0.034 A 
ATOM     20  C   UNL     1       5.178  -6.505  -1.415  0.00  0.00    +0.025 A 
ATOM     21  C   UNL     1       5.256  -7.874  -1.579  0.00  0.00    +0.034 A 
ATOM     22  C   UNL     1       6.221  -8.599  -0.905  0.00  0.00    +0.126 A 
ATOM     23  C   UNL     1       7.111  -7.957  -0.064  0.00  0.00    +0.034 A 
ATOM     24  C   UNL     1       7.043  -6.587   0.100  0.00  0.00    +0.025 A 
BRANCH  22  25
ATOM     25  N   UNL     1       6.302 -10.066  -1.084  0.00  0.00    +0.056 N 
ATOM     26  O   UNL     1       5.524 -10.629  -1.818  0.00  0.00    -0.126 OA
ATOM     27  O   UNL     1       7.145 -10.702  -0.495  0.00  0.00    -0.126 OA
ENDBRANCH  22  25
ENDBRANCH   9  19
BRANCH   8  28
ATOM     28  N   UNL     1       0.070  -4.023  -0.663  0.00  0.00    -0.187 NA
ATOM     29  C   UNL     1      -1.023  -4.721  -0.628  0.00  0.00    +0.142 C 
BRANCH  29  30
ATOM     30  C   UNL     1      -2.332  -4.048  -0.711  0.00  0.00    +0.037 A 
ATOM     31  C   UNL     1      -3.511  -4.788  -0.603  0.00  0.00    +0.033 A 
ATOM     32  C   UNL     1      -4.732  -4.151  -0.681  0.00  0.00    +0.042 A 
ATOM     33  C   UNL     1      -4.793  -2.779  -0.867  0.00  0.00    +0.023 A 
ATOM     34  C   UNL     1      -3.633  -2.036  -0.976  0.00  0.00    +0.047 A 
ATOM     35  C   UNL     1      -2.399  -2.660  -0.893  0.00  0.00    +0.126 A 
ATOM     36 CL   UNL     1      -6.198  -5.071  -0.547  0.00  0.00    -0.084 Cl
BRANCH  35  37
ATOM     37  O   UNL     1      -1.258  -1.929  -0.995  0.00  0.00    -0.506 OA
ATOM     38  H   UNL     1      -0.974  -1.767  -1.905  0.00  0.00    +0.292 HD
ENDBRANCH  35  37
ENDBRANCH  29  30
ENDBRANCH   8  28
TORSDOF 6
