REMARK  Name = ZINC04253819
REMARK  6 active torsions:
REMARK  status: ('A' for Active; 'I' for Inactive)
REMARK    1  A    between atoms: C_1  and  C_2
REMARK    2  A    between atoms: C_2  and  N_4
REMARK    3  A    between atoms: N_6  and  C_16
REMARK    4  A    between atoms: C_16  and  C_17
REMARK    5  A    between atoms: C_17  and  O_18
REMARK    6  A    between atoms: O_18  and  C_19
REMARK                            x       y       z     vdW  Elec       q    Type
REMARK                         _______ _______ _______ _____ _____    ______ ____
ROOT
ATOM      1  N   UNL     1      -0.132   1.327   2.570  0.00  0.00    -0.157 NA
ATOM      2  C   UNL     1      -0.706   1.982   3.577  0.00  0.00    +0.167 A 
ATOM      3  N   UNL     1      -0.122   2.486   4.695  0.00  0.00    -0.318 N 
ATOM      4  C   UNL     1      -0.887   3.147   5.639  0.00  0.00    +0.076 A 
ATOM      5  C   UNL     1      -2.255   3.227   5.340  0.00  0.00    +0.042 A 
ATOM      6  S   UNL     1      -2.379   2.391   3.779  0.00  0.00    -0.052 S 
ATOM      7  C   UNL     1      -3.158   3.844   6.173  0.00  0.00    +0.037 A 
ATOM      8  C   UNL     1      -2.718   4.415   7.355  0.00  0.00    +0.044 A 
ATOM      9  C   UNL     1      -1.372   4.353   7.677  0.00  0.00    +0.042 A 
ATOM     10  C   UNL     1      -0.468   3.735   6.845  0.00  0.00    +0.067 A 
ATOM     11 CL   UNL     1       1.209   3.680   7.288  0.00  0.00    -0.081 Cl
ATOM     12 CL   UNL     1      -3.841   5.201   8.422  0.00  0.00    -0.083 Cl
ENDROOT
BRANCH   1  14
ATOM     13  C   UNL     1      -0.220   0.156   0.411  0.00  0.00    +0.111 C 
ATOM     14  C   UNL     1      -0.869   0.898   1.551  0.00  0.00    +0.235 C 
ATOM     15  O   UNL     1      -2.068   1.105   1.537  0.00  0.00    -0.274 OA
ENDBRANCH   1  14
BRANCH   3  16
ATOM     16  C   UNL     1       1.320   2.333   4.900  0.00  0.00    +0.152 C 
BRANCH  16  17
ATOM     17  C   UNL     1       1.826   1.136   4.093  0.00  0.00    +0.181 C 
BRANCH  17  18
ATOM     18  O   UNL     1       3.201   0.899   4.401  0.00  0.00    -0.381 OA
ATOM     19  C   UNL     1       3.773  -0.204   3.697  0.00  0.00    +0.194 C 
ENDBRANCH  17  18
ENDBRANCH  16  17
ENDBRANCH   3  16
TORSDOF 4
