REMARK  Name = ZINC12863204
REMARK  8 active torsions:
REMARK  status: ('A' for Active; 'I' for Inactive)
REMARK    1  A    between atoms: C_10  and  C_21
REMARK    2  A    between atoms: N_11  and  C_14
REMARK    3  A    between atoms: C_14  and  C_15
REMARK    4  A    between atoms: C_21  and  C_22
REMARK    5  A    between atoms: C_22  and  C_23
REMARK    6  A    between atoms: C_23  and  O_25
REMARK    7  A    between atoms: O_25  and  C_26
REMARK    8  A    between atoms: C_26  and  C_27
REMARK                            x       y       z     vdW  Elec       q    Type
REMARK                         _______ _______ _______ _____ _____    ______ ____
ROOT
ATOM      1  C   UNL     1       5.494  -2.195  -0.530  0.00  0.00    +0.005 C 
ATOM      2  C   UNL     1       6.452  -1.339   0.304  0.00  0.00    +0.005 C 
ATOM      3  C   UNL     1       6.235   0.137  -0.058  0.00  0.00    +0.043 C 
ATOM      4  C   UNL     1       4.764   0.417  -0.042  0.00  0.00    -0.004 A 
ATOM      5  C   UNL     1       3.760  -0.486  -0.038  0.00  0.00    -0.023 A 
ATOM      6  C   UNL     1       2.396   0.040  -0.021  0.00  0.00    +0.076 A 
ATOM      7  C   UNL     1       2.276   1.439  -0.012  0.00  0.00    +0.116 A 
ATOM      8  S   UNL     1       3.960   1.997  -0.025  0.00  0.00    -0.073 S 
ATOM      9  N   UNL     1       1.092   2.045   0.003  0.00  0.00    -0.226 NA
ATOM     10  C   UNL     1      -0.016   1.354   0.009  0.00  0.00    +0.114 A 
ATOM     11  N   UNL     1       0.002  -0.004   0.002  0.00  0.00    -0.294 N 
ATOM     12  C   UNL     1       1.161  -0.689  -0.013  0.00  0.00    +0.263 A 
ATOM     13  O   UNL     1       1.161  -1.907  -0.020  0.00  0.00    -0.267 OA
ATOM     14  C   UNL     1       4.058  -1.983  -0.052  0.00  0.00    +0.037 C 
ENDROOT
BRANCH  11  15
ATOM     15  C   UNL     1      -1.265  -0.739   0.011  0.00  0.00    +0.158 C 
BRANCH  15  16
ATOM     16  C   UNL     1      -1.721  -0.987  -1.428  0.00  0.00    +0.138 C 
ATOM     17  C   UNL     1      -3.079  -1.733  -1.441  0.00  0.00    +0.035 C 
ATOM     18  C   UNL     1      -3.635  -1.308  -2.829  0.00  0.00    +0.031 C 
ATOM     19  C   UNL     1      -3.094   0.131  -2.973  0.00  0.00    +0.160 C 
ATOM     20  O   UNL     1      -1.970   0.261  -2.094  0.00  0.00    -0.375 OA
ENDBRANCH  15  16
ENDBRANCH  11  15
BRANCH  10  21
ATOM     21  C   UNL     1      -1.339   2.076   0.020  0.00  0.00    +0.085 C 
BRANCH  21  22
ATOM     22  C   UNL     1      -1.095   3.586   0.027  0.00  0.00    +0.128 C 
BRANCH  22  23
ATOM     23  C   UNL     1      -2.418   4.308   0.037  0.00  0.00    +0.308 C 
ATOM     24  O   UNL     1      -3.450   3.679   0.038  0.00  0.00    -0.251 OA
BRANCH  23  25
ATOM     25  O   UNL     1      -2.450   5.650   0.044  0.00  0.00    -0.455 OA
BRANCH  25  26
ATOM     26  C   UNL     1      -3.759   6.278   0.054  0.00  0.00    +0.328 C 
BRANCH  26  27
ATOM     27  C   UNL     1      -3.597   7.777   0.061  0.00  0.00    +0.258 C 
ATOM     28  O   UNL     1      -2.489   8.267   0.059  0.00  0.00    -0.272 OA
ATOM     29  N   UNL     1      -4.686   8.572   0.071  0.00  0.00    -0.238 N 
ATOM     30  C   UNL     1      -4.541   9.912   0.077  0.00  0.00    +0.303 C 
ATOM     31  O   UNL     1      -3.429  10.403   0.075  0.00  0.00    -0.253 OA
ATOM     32  N   UNL     1      -5.629  10.707   0.087  0.00  0.00    -0.313 N 
ATOM     33  H   UNL     1      -5.573   8.180   0.073  0.00  0.00    +0.159 HD
ATOM     34  H   UNL     1      -6.516  10.315   0.089  0.00  0.00    +0.146 HD
ATOM     35  H   UNL     1      -5.525  11.671   0.091  0.00  0.00    +0.146 HD
ENDBRANCH  26  27
ENDBRANCH  25  26
ENDBRANCH  23  25
ENDBRANCH  22  23
ENDBRANCH  21  22
ENDBRANCH  10  21
TORSDOF 8
