REMARK  Name = ZINC28284919
REMARK  5 active torsions:
REMARK  status: ('A' for Active; 'I' for Inactive)
REMARK    1  A    between atoms: C_1  and  C_2
REMARK    2  A    between atoms: C_5  and  C_25
REMARK    3  A    between atoms: C_6  and  N_8
REMARK    4  A    between atoms: N_8  and  C_9
REMARK    5  A    between atoms: N_14  and  C_17
REMARK                            x       y       z     vdW  Elec       q    Type
REMARK                         _______ _______ _______ _____ _____    ______ ____
ROOT
ATOM      1  C   UNL     1       0.096  -2.216   3.598  0.00  0.00    +0.166 C 
ATOM      2  C   UNL     1      -0.543  -2.827   4.862  0.00  0.00    +0.128 C 
ATOM      3  C   UNL     1       0.600  -2.864   5.854  0.00  0.00    +0.228 C 
ATOM      4  O   UNL     1       0.529  -3.278   6.991  0.00  0.00    -0.275 OA
ATOM      5  N   UNL     1       1.700  -2.368   5.276  0.00  0.00    -0.209 N 
ATOM      6  C   UNL     1       1.532  -1.970   4.005  0.00  0.00    +0.247 C 
ATOM      7  O   UNL     1       2.390  -1.491   3.296  0.00  0.00    -0.273 OA
ENDROOT
BRANCH   5   8
ATOM      8  C   UNL     1       2.930  -2.270   5.944  0.00  0.00    +0.045 A 
ATOM      9  C   UNL     1       3.456  -1.022   6.252  0.00  0.00    +0.025 A 
ATOM     10  C   UNL     1       4.666  -0.927   6.910  0.00  0.00    +0.023 A 
ATOM     11  C   UNL     1       5.355  -2.074   7.263  0.00  0.00    +0.059 A 
ATOM     12  C   UNL     1       4.833  -3.320   6.958  0.00  0.00    +0.061 A 
ATOM     13  C   UNL     1       3.619  -3.419   6.303  0.00  0.00    +0.045 A 
ATOM     14 CL   UNL     1       5.699  -4.757   7.402  0.00  0.00    -0.082 Cl
ATOM     15 CL   UNL     1       6.876  -1.951   8.090  0.00  0.00    -0.082 Cl
ENDBRANCH   5   8
BRANCH   1  16
ATOM     16  N   UNL     1       0.032  -3.162   2.480  0.00  0.00    -0.332 N 
ATOM     17  H   UNL     1      -0.055  -4.112   2.653  0.00  0.00    +0.147 HD
BRANCH  16  23
ATOM     18  C   UNL     1       0.416   0.602  -0.656  0.00  0.00    +0.044 C 
ATOM     19  C   UNL     1       0.282  -0.874  -0.385  0.00  0.00    -0.049 A 
ATOM     20  C   UNL     1       0.222  -1.768  -1.438  0.00  0.00    +0.004 A 
ATOM     21  C   UNL     1       0.098  -3.123  -1.194  0.00  0.00    +0.005 A 
ATOM     22  C   UNL     1       0.035  -3.588   0.105  0.00  0.00    -0.030 A 
ATOM     23  C   UNL     1       0.095  -2.694   1.166  0.00  0.00    +0.031 A 
ATOM     24  C   UNL     1       0.225  -1.333   0.916  0.00  0.00    +0.026 A 
ATOM     25  C   UNL     1      -0.100  -5.066   0.371  0.00  0.00    +0.045 C 
ENDBRANCH  16  23
ENDBRANCH   1  16
TORSDOF 3
