REMARK  Name = ZINC33937242
REMARK  15 active torsions:
REMARK  status: ('A' for Active; 'I' for Inactive)
REMARK    1  A    between atoms: C_1  and  C_2
REMARK    2  A    between atoms: C_2  and  C_3
REMARK    3  A    between atoms: C_2  and  C_4
REMARK    4  A    between atoms: C_4  and  C_6
REMARK    5  A    between atoms: C_4  and  N_18
REMARK    6  A    between atoms: N_10  and  C_11
REMARK    7  A    between atoms: C_11  and  C_12
REMARK    8  A    between atoms: N_18  and  C_19
REMARK    9  A    between atoms: N_18  and  C_28
REMARK   10  A    between atoms: C_19  and  C_20
REMARK   11  A    between atoms: C_25  and  O_26
REMARK   12  A    between atoms: O_26  and  C_27
REMARK   13  A    between atoms: C_28  and  C_29
REMARK   14  A    between atoms: C_34  and  O_41
REMARK   15  A    between atoms: O_41  and  C_42
REMARK                            x       y       z     vdW  Elec       q    Type
REMARK                         _______ _______ _______ _____ _____    ______ ____
ROOT
ATOM      1  N   UNL     1      -2.166  -2.977  -0.226  0.00  0.00    +0.392 N 
ATOM      2  H   UNL     1      -1.470  -3.241  -0.907  0.00  0.00    -0.080 HD
ENDROOT
BRANCH   1   3
ATOM      3  C   UNL     1      -2.096  -1.529   0.010  0.00  0.00    +0.006 C 
BRANCH   3   4
ATOM      4  C   UNL     1      -2.095  -0.804  -1.311  0.00  0.00    +0.138 A 
ATOM      5  N   UNL     1      -1.415  -1.131  -2.382  0.00  0.00    -0.115 NA
ATOM      6  N   UNL     1      -1.682  -0.268  -3.301  0.00  0.00    -0.023 NA
ATOM      7  N   UNL     1      -2.514   0.601  -2.843  0.00  0.00    -0.044 NA
ATOM      8  N   UNL     1      -2.797   0.302  -1.621  0.00  0.00    -0.228 N 
BRANCH   8   9
ATOM      9  C   UNL     1      -3.709   1.030  -0.735  0.00  0.00    +0.178 C 
BRANCH   9  10
ATOM     10  C   UNL     1      -3.230   2.476  -0.588  0.00  0.00    +0.140 C 
ATOM     11  C   UNL     1      -4.203   3.275   0.315  0.00  0.00    +0.035 C 
ATOM     12  C   UNL     1      -3.264   4.394   0.842  0.00  0.00    +0.031 C 
ATOM     13  C   UNL     1      -1.911   3.660   0.955  0.00  0.00    +0.160 C 
ATOM     14  O   UNL     1      -1.966   2.515   0.094  0.00  0.00    -0.375 OA
ENDBRANCH   9  10
ENDBRANCH   8   9
ENDBRANCH   3   4
BRANCH   3  16
ATOM     15  C   UNL     1       0.396  -1.715  -0.011  0.00  0.00    +0.006 C 
ATOM     16  C   UNL     1      -0.812  -1.199   0.774  0.00  0.00    -0.024 C 
ATOM     17  C   UNL     1      -0.697   0.317   0.948  0.00  0.00    +0.006 C 
ENDBRANCH   3  16
ENDBRANCH   1   3
BRANCH   1  18
ATOM     18  C   UNL     1      -3.502  -3.327  -0.729  0.00  0.00    -0.038 C 
BRANCH  18  19
ATOM     19  C   UNL     1      -3.712  -2.692  -2.080  0.00  0.00    -0.022 A 
ATOM     20  C   UNL     1      -4.440  -1.523  -2.188  0.00  0.00    +0.005 A 
ATOM     21  C   UNL     1      -4.634  -0.940  -3.426  0.00  0.00    +0.000 A 
ATOM     22  C   UNL     1      -4.098  -1.525  -4.560  0.00  0.00    +0.004 A 
ATOM     23  C   UNL     1      -3.369  -2.693  -4.457  0.00  0.00    +0.046 A 
ATOM     24  C   UNL     1      -3.169  -3.277  -3.214  0.00  0.00    +0.121 A 
BRANCH  24  25
ATOM     25  O   UNL     1      -2.447  -4.424  -3.109  0.00  0.00    -0.495 OA
ATOM     26  C   UNL     1      -1.919  -4.971  -4.319  0.00  0.00    +0.277 C 
ENDBRANCH  24  25
ENDBRANCH  18  19
ENDBRANCH   1  18
BRANCH   1  27
ATOM     27  C   UNL     1      -1.915  -3.692   1.033  0.00  0.00    -0.036 C 
BRANCH  27  28
ATOM     28  C   UNL     1      -1.882  -5.176   0.770  0.00  0.00    +0.001 A 
ATOM     29  C   UNL     1      -0.694  -5.798   0.561  0.00  0.00    +0.017 A 
ATOM     30  C   UNL     1      -0.695  -7.239   0.310  0.00  0.00    -0.001 A 
ATOM     31  C   UNL     1       0.499  -7.935   0.088  0.00  0.00    +0.013 A 
ATOM     32  C   UNL     1       0.467  -9.279  -0.144  0.00  0.00    +0.046 A 
ATOM     33  C   UNL     1      -0.746  -9.966  -0.162  0.00  0.00    +0.122 A 
ATOM     34  C   UNL     1      -1.937  -9.296   0.055  0.00  0.00    +0.072 A 
ATOM     35  C   UNL     1      -1.924  -7.928   0.293  0.00  0.00    +0.053 A 
ATOM     36  N   UNL     1      -3.096  -7.235   0.513  0.00  0.00    -0.322 N 
ATOM     37  H   UNL     1      -3.942  -7.711   0.502  0.00  0.00    +0.169 HD
ATOM     38  C   UNL     1      -3.084  -5.912   0.748  0.00  0.00    +0.251 A 
ATOM     39  O   UNL     1      -4.139  -5.333   0.944  0.00  0.00    -0.268 OA
BRANCH  33  40
ATOM     40  O   UNL     1      -0.759 -11.303  -0.395  0.00  0.00    -0.495 OA
ATOM     41  C   UNL     1       0.504 -11.936  -0.612  0.00  0.00    +0.277 C 
ENDBRANCH  33  40
ENDBRANCH  27  28
ENDBRANCH   1  27
TORSDOF 11
