REMARK  Name = ZINC01397710
REMARK  2 active torsions:
REMARK  status: ('A' for Active; 'I' for Inactive)
REMARK    1  A    between atoms: C_6  and  C_7
REMARK    2  A    between atoms: C_12  and  C_15
REMARK                            x       y       z     vdW  Elec       q    Type
REMARK                         _______ _______ _______ _____ _____    ______ ____
ROOT
ATOM      1  C   UNL     1      -1.625  -1.070   1.102  0.00  0.00    +0.067 C 
ATOM      2  N   UNL     1      -1.396  -1.594  -0.057  0.00  0.00    -0.184 NA
ATOM      3  N   UNL     1      -1.998  -1.097  -1.216  0.00  0.00    -0.206 N 
ATOM      4  C   UNL     1      -2.587   0.115  -1.216  0.00  0.00    +0.240 C 
ATOM      5  O   UNL     1      -3.173   0.508  -2.202  0.00  0.00    -0.273 OA
ATOM      6  C   UNL     1      -2.514   0.979   0.019  0.00  0.00    +0.114 C 
ATOM      7  C   UNL     1      -2.577   0.088   1.261  0.00  0.00    +0.075 C 
ATOM      8  H   UNL     1      -1.991  -1.628  -2.028  0.00  0.00    +0.177 HD
ENDROOT
BRANCH   6   9
ATOM      9  C   UNL     1      -1.219   1.750   0.017  0.00  0.00    -0.017 A 
ATOM     10  C   UNL     1      -0.013   1.076   0.008  0.00  0.00    +0.007 A 
ATOM     11  C   UNL     1       1.175   1.783   0.000  0.00  0.00    +0.020 A 
ATOM     12  C   UNL     1       1.157   3.166   0.008  0.00  0.00    +0.042 A 
ATOM     13  C   UNL     1      -0.050   3.842   0.023  0.00  0.00    +0.040 A 
ATOM     14  C   UNL     1      -1.238   3.134   0.031  0.00  0.00    +0.046 A 
ATOM     15 CL   UNL     1      -2.754   3.981   0.049  0.00  0.00    -0.083 Cl
ATOM     16 CL   UNL     1       2.648   4.054  -0.001  0.00  0.00    -0.083 Cl
ENDBRANCH   6   9
BRANCH   1  22
ATOM     17  C   UNL     1      -1.174  -1.057   3.550  0.00  0.00    +0.011 A 
ATOM     18  C   UNL     1      -0.537  -1.575   4.658  0.00  0.00    +0.020 A 
ATOM     19  C   UNL     1       0.339  -2.639   4.522  0.00  0.00    +0.041 A 
ATOM     20  C   UNL     1       0.578  -3.193   3.276  0.00  0.00    +0.020 A 
ATOM     21  C   UNL     1      -0.057  -2.688   2.160  0.00  0.00    +0.011 A 
ATOM     22  C   UNL     1      -0.942  -1.615   2.290  0.00  0.00    -0.002 A 
ATOM     23 CL   UNL     1       1.142  -3.281   5.921  0.00  0.00    -0.084 Cl
ENDBRANCH   1  22
TORSDOF 2
