REMARK  Name = ZINC03144597
REMARK  15 active torsions:
REMARK  status: ('A' for Active; 'I' for Inactive)
REMARK    1  A    between atoms: C_1  and  C_2
REMARK    2  A    between atoms: C_2  and  C_3
REMARK    3  A    between atoms: C_2  and  C_4
REMARK    4  A    between atoms: C_2  and  C_5
REMARK    5  A    between atoms: C_7  and  C_16
REMARK    6  A    between atoms: C_9  and  C_12
REMARK    7  A    between atoms: C_10  and  O_11
REMARK    8  A    between atoms: C_12  and  C_13
REMARK    9  A    between atoms: C_12  and  C_14
REMARK   10  A    between atoms: C_12  and  C_15
REMARK   11  A    between atoms: N_17  and  N_18
REMARK   12  A    between atoms: C_19  and  C_21
REMARK   13  A    between atoms: C_21  and  C_22
REMARK   14  A    between atoms: C_21  and  C_28
REMARK   15  A    between atoms: C_21  and  O_34
REMARK                            x       y       z     vdW  Elec       q    Type
REMARK                         _______ _______ _______ _____ _____    ______ ____
ROOT
ATOM      1  N   UNL     1       0.236   1.780  -1.695  0.00  0.00    -0.204 N 
ATOM      2  C   UNL     1      -0.360   1.343  -0.569  0.00  0.00    +0.273 C 
ATOM      3  O   UNL     1      -1.189   2.034  -0.014  0.00  0.00    -0.270 OA
ATOM      4  H   UNL     1       0.899   1.228  -2.139  0.00  0.00    +0.177 HD
ENDROOT
BRANCH   1   6
ATOM      5  C   UNL     1       0.474   3.453  -3.311  0.00  0.00    +0.138 C 
ATOM      6  N   UNL     1      -0.101   3.032  -2.226  0.00  0.00    -0.188 NA
BRANCH   5   9
ATOM      7  C   UNL     1       0.402   6.458  -5.555  0.00  0.00    +0.000 A 
ATOM      8  C   UNL     1       0.737   5.226  -5.037  0.00  0.00    +0.017 A 
ATOM      9  C   UNL     1       0.119   4.771  -3.869  0.00  0.00    -0.005 A 
ATOM     10  C   UNL     1      -0.839   5.566  -3.235  0.00  0.00    +0.017 A 
ATOM     11  C   UNL     1      -1.164   6.799  -3.758  0.00  0.00    +0.000 A 
ATOM     12  C   UNL     1      -0.548   7.247  -4.919  0.00  0.00    +0.124 A 
BRANCH   7  14
ATOM     13  C   UNL     1       2.063   5.900  -7.310  0.00  0.00    +0.015 C 
ATOM     14  C   UNL     1       1.067   6.950  -6.815  0.00  0.00    -0.009 C 
ATOM     15  C   UNL     1       0.006   7.193  -7.890  0.00  0.00    +0.015 C 
ATOM     16  C   UNL     1       1.807   8.258  -6.524  0.00  0.00    +0.015 C 
ENDBRANCH   7  14
BRANCH  11  17
ATOM     17  C   UNL     1      -2.193   7.659  -3.072  0.00  0.00    -0.009 C 
ATOM     18  C   UNL     1      -2.713   6.938  -1.826  0.00  0.00    +0.015 C 
ATOM     19  C   UNL     1      -1.556   8.989  -2.663  0.00  0.00    +0.015 C 
ATOM     20  C   UNL     1      -3.357   7.924  -4.029  0.00  0.00    +0.015 C 
ENDBRANCH  11  17
BRANCH  12  21
ATOM     21  O   UNL     1      -0.875   8.461  -5.434  0.00  0.00    -0.506 OA
ATOM     22  H   UNL     1      -1.606   8.436  -6.066  0.00  0.00    +0.292 HD
ENDBRANCH  12  21
ENDBRANCH   5   9
ENDBRANCH   1   6
BRANCH   2  23
ATOM     23  C   UNL     1       0.002  -0.004   0.002  0.00  0.00    +0.194 C 
BRANCH  23  24
ATOM     24  C   UNL     1       1.224   0.132   0.874  0.00  0.00    -0.003 A 
ATOM     25  C   UNL     1       1.232   1.042   1.915  0.00  0.00    +0.007 A 
ATOM     26  C   UNL     1       2.351   1.163   2.718  0.00  0.00    +0.000 A 
ATOM     27  C   UNL     1       3.465   0.382   2.474  0.00  0.00    +0.000 A 
ATOM     28  C   UNL     1       3.459  -0.523   1.429  0.00  0.00    +0.000 A 
ATOM     29  C   UNL     1       2.338  -0.649   0.629  0.00  0.00    +0.007 A 
ENDBRANCH  23  24
BRANCH  23  30
ATOM     30  C   UNL     1      -1.147  -0.527   0.825  0.00  0.00    -0.003 A 
ATOM     31  C   UNL     1      -1.684   0.251   1.834  0.00  0.00    +0.007 A 
ATOM     32  C   UNL     1      -2.742  -0.226   2.586  0.00  0.00    +0.000 A 
ATOM     33  C   UNL     1      -3.255  -1.485   2.336  0.00  0.00    +0.000 A 
ATOM     34  C   UNL     1      -2.714  -2.265   1.331  0.00  0.00    +0.000 A 
ATOM     35  C   UNL     1      -1.660  -1.786   0.575  0.00  0.00    +0.007 A 
ENDBRANCH  23  30
BRANCH  23  36
ATOM     36  O   UNL     1       0.277  -0.915  -1.064  0.00  0.00    -0.371 OA
ATOM     37  H   UNL     1      -0.467  -1.051  -1.667  0.00  0.00    +0.212 HD
ENDBRANCH  23  36
ENDBRANCH   2  23
TORSDOF 9
