REMARK  Name = ZINC17979686
REMARK  7 active torsions:
REMARK  status: ('A' for Active; 'I' for Inactive)
REMARK    1  A    between atoms: C_1  and  N_2
REMARK    2  A    between atoms: C_6  and  S_8
REMARK    3  A    between atoms: S_8  and  C_9
REMARK    4  A    between atoms: C_9  and  C_10
REMARK    5  A    between atoms: N_12  and  C_13
REMARK    6  A    between atoms: C_16  and  S_20
REMARK    7  A    between atoms: S_20  and  N_23
REMARK                            x       y       z     vdW  Elec       q    Type
REMARK                         _______ _______ _______ _____ _____    ______ ____
ROOT
ATOM      1  C   UNL     1       2.368   5.180  -0.393  0.00  0.00    +0.228 C 
ATOM      2  O   UNL     1       1.327   5.744  -0.653  0.00  0.00    -0.275 OA
ATOM      3  N   UNL     1       2.357   3.891  -0.001  0.00  0.00    -0.282 N 
ATOM      4  H   UNL     1       3.181   3.461   0.277  0.00  0.00    +0.155 HD
ENDROOT
BRANCH   3   5
ATOM      5  C   UNL     1       1.156   3.171   0.007  0.00  0.00    +0.071 A 
ATOM      6  C   UNL     1       0.748   2.485  -1.130  0.00  0.00    +0.065 A 
ATOM      7  C   UNL     1      -0.438   1.776  -1.119  0.00  0.00    +0.050 A 
ATOM      8  C   UNL     1      -1.222   1.754   0.019  0.00  0.00    +0.108 A 
ATOM      9  C   UNL     1      -0.818   2.432   1.155  0.00  0.00    +0.050 A 
ATOM     10  C   UNL     1       0.368   3.143   1.151  0.00  0.00    +0.065 A 
ATOM     11 CL   UNL     1       0.873   3.999   2.575  0.00  0.00    -0.082 Cl
ATOM     12 CL   UNL     1       1.728   2.517  -2.563  0.00  0.00    -0.082 Cl
BRANCH   8  13
ATOM     13  S   UNL     1      -2.738   0.856   0.026  0.00  0.00    +0.056 S 
ATOM     14  O   UNL     1      -3.552   1.441   1.033  0.00  0.00    -0.153 OA
ATOM     15  O   UNL     1      -3.156   0.754  -1.328  0.00  0.00    -0.153 OA
BRANCH  13  16
ATOM     16  N   UNL     1      -2.393  -0.683   0.531  0.00  0.00    -0.204 NA
ATOM     17  H   UNL     1      -1.481  -0.927   0.755  0.00  0.00    +0.144 HD
ATOM     18  H   UNL     1      -3.102  -1.341   0.604  0.00  0.00    +0.144 HD
ENDBRANCH  13  16
ENDBRANCH   8  13
ENDBRANCH   3   5
BRANCH   1  19
ATOM     19  C   UNL     1       3.676   5.921  -0.510  0.00  0.00    +0.172 C 
BRANCH  19  20
ATOM     20  S   UNL     1       3.360   7.622  -1.056  0.00  0.00    -0.088 S 
BRANCH  20  26
ATOM     21  C   UNL     1       9.607  10.372  -1.375  0.00  0.00    +0.127 C 
ATOM     22  N   UNL     1       8.211  10.748  -1.607  0.00  0.00    -0.325 N 
ATOM     23  C   UNL     1       7.198   9.818  -1.407  0.00  0.00    +0.182 A 
ATOM     24  N   UNL     1       7.282   8.562  -1.016  0.00  0.00    -0.125 NA
ATOM     25  N   UNL     1       6.139   7.808  -0.880  0.00  0.00    -0.133 NA
ATOM     26  C   UNL     1       4.964   8.346  -1.143  0.00  0.00    +0.160 A 
ATOM     27  S   UNL     1       5.434  10.003  -1.617  0.00  0.00    -0.025 S 
ATOM     28  H   UNL     1       7.993  11.647  -1.900  0.00  0.00    +0.148 HD
ENDBRANCH  20  26
ENDBRANCH  19  20
ENDBRANCH   1  19
TORSDOF 6
