REMARK  Name = ZINC36378886
REMARK  7 active torsions:
REMARK  status: ('A' for Active; 'I' for Inactive)
REMARK    1  A    between atoms: C_1  and  C_2
REMARK    2  A    between atoms: C_2  and  C_3
REMARK    3  A    between atoms: C_2  and  C_4
REMARK    4  A    between atoms: C_4  and  C_6
REMARK    5  A    between atoms: C_4  and  N_39
REMARK    6  A    between atoms: C_18  and  C_32
REMARK    7  A    between atoms: C_32  and  C_33
REMARK                            x       y       z     vdW  Elec       q    Type
REMARK                         _______ _______ _______ _____ _____    ______ ____
ROOT
ATOM      1  C   UNL     1      -2.178   0.959   1.013  0.00  0.00    +0.237 C 
ATOM      2  O   UNL     1      -3.234   1.545   0.900  0.00  0.00    -0.274 OA
ATOM      3  N   UNL     1      -1.831   0.418   2.197  0.00  0.00    -0.285 N 
ATOM      4  C   UNL     1      -0.643  -0.400   2.459  0.00  0.00    +0.112 C 
ATOM      5  C   UNL     1      -0.794  -1.101   3.813  0.00  0.00    +0.066 C 
ATOM      6  C   UNL     1      -2.148  -0.626   4.358  0.00  0.00    +0.204 C 
ATOM      7  C   UNL     1      -2.573   0.547   3.461  0.00  0.00    +0.202 C 
ATOM      8  C   UNL     1      -4.053   0.519   3.211  0.00  0.00    +0.238 C 
ATOM      9  O   UNL     1      -4.555   1.367   2.503  0.00  0.00    -0.274 OA
ATOM     10  N   UNL     1      -4.833  -0.437   3.762  0.00  0.00    -0.302 N 
ATOM     11  C   UNL     1      -6.298  -0.277   3.701  0.00  0.00    +0.163 C 
ATOM     12  C   UNL     1      -6.856  -0.536   5.073  0.00  0.00    +0.237 C 
ATOM     13  O   UNL     1      -6.325  -1.377   5.767  0.00  0.00    -0.273 OA
ATOM     14  N   UNL     1      -7.923   0.130   5.563  0.00  0.00    -0.290 N 
ATOM     15  C   UNL     1      -8.187   0.007   6.930  0.00  0.00    +0.075 C 
ATOM     16  C   UNL     1      -7.199  -0.142   7.805  0.00  0.00    +0.023 C 
ATOM     17  C   UNL     1      -5.793  -0.082   7.377  0.00  0.00    -0.024 A 
ATOM     18  C   UNL     1      -4.883  -1.062   7.792  0.00  0.00    +0.011 A 
ATOM     19  C   UNL     1      -3.596  -1.056   7.292  0.00  0.00    +0.046 A 
ATOM     20  C   UNL     1      -3.206  -0.082   6.385  0.00  0.00    +0.121 A 
ATOM     21  C   UNL     1      -4.070   0.956   6.058  0.00  0.00    +0.046 A 
ATOM     22  C   UNL     1      -5.357   0.951   6.545  0.00  0.00    +0.011 A 
ATOM     23  O   UNL     1      -2.023  -0.191   5.717  0.00  0.00    -0.486 OA
ATOM     24  H   UNL     1      -4.437  -1.213   4.188  0.00  0.00    +0.150 HD
ATOM     25  H   UNL     1      -8.485   0.673   4.988  0.00  0.00    +0.154 HD
ENDROOT
BRANCH   1  26
ATOM     26  C   UNL     1      -1.254   0.837  -0.171  0.00  0.00    +0.161 C 
BRANCH  26  27
ATOM     27  N   UNL     1      -2.046   0.704  -1.397  0.00  0.00    -0.306 N 
ATOM     28  C   UNL     1      -1.518   0.095  -2.477  0.00  0.00    +0.326 C 
ATOM     29  O   UNL     1      -0.388  -0.343  -2.435  0.00  0.00    -0.280 OA
ATOM     30  H   UNL     1      -2.950   1.054  -1.431  0.00  0.00    +0.149 HD
ENDBRANCH  26  27
BRANCH  26  32
ATOM     31  C   UNL     1      -1.265   3.325  -0.400  0.00  0.00    +0.009 C 
ATOM     32  C   UNL     1      -0.377   2.087  -0.265  0.00  0.00    +0.012 C 
ATOM     33  C   UNL     1       0.476   2.207   1.000  0.00  0.00    +0.009 C 
ENDBRANCH  26  32
ENDBRANCH   1  26
BRANCH  11  34
ATOM     34  C   UNL     1      -6.645   1.147   3.263  0.00  0.00    +0.067 C 
BRANCH  34  35
ATOM     35  C   UNL     1      -8.142   1.305   3.206  0.00  0.00    -0.045 A 
ATOM     36  C   UNL     1      -8.884   0.550   2.317  0.00  0.00    +0.004 A 
ATOM     37  C   UNL     1     -10.258   0.695   2.264  0.00  0.00    +0.000 A 
ATOM     38  C   UNL     1     -10.890   1.595   3.102  0.00  0.00    +0.000 A 
ATOM     39  C   UNL     1     -10.148   2.349   3.992  0.00  0.00    +0.000 A 
ATOM     40  C   UNL     1      -8.775   2.201   4.047  0.00  0.00    +0.004 A 
ENDBRANCH  34  35
ENDBRANCH  11  34
TORSDOF 5
