REMARK  Name = ZINC39674457
REMARK  12 active torsions:
REMARK  status: ('A' for Active; 'I' for Inactive)
REMARK    1  A    between atoms: C_1  and  C_2
REMARK    2  A    between atoms: C_4  and  C_9
REMARK    3  A    between atoms: C_5  and  C_8
REMARK    4  A    between atoms: C_9  and  C_11
REMARK    5  A    between atoms: C_9  and  N_12
REMARK    6  A    between atoms: C_13  and  C_15
REMARK    7  A    between atoms: C_26  and  C_28
REMARK    8  A    between atoms: C_31  and  C_38
REMARK    9  A    between atoms: N_33  and  C_34
REMARK   10  A    between atoms: C_34  and  C_35
REMARK   11  A    between atoms: C_34  and  C_36
REMARK   12  A    between atoms: C_34  and  C_37
REMARK                            x       y       z     vdW  Elec       q    Type
REMARK                         _______ _______ _______ _____ _____    ______ ____
ROOT
ATOM      1  C   UNL     1      -4.531  -0.168  -5.878  0.00  0.00    +0.100 C 
ATOM      2  C   UNL     1      -4.667  -1.545  -5.191  0.00  0.00    +0.121 C 
ATOM      3  N   UNL     1      -4.976  -2.485  -6.294  0.00  0.00    -0.299 N 
ATOM      4  C   UNL     1      -4.123  -2.027  -7.418  0.00  0.00    +0.115 C 
ATOM      5  C   UNL     1      -4.174  -0.489  -7.339  0.00  0.00    -0.004 C 
ATOM      6  C   UNL     1      -2.812   0.102  -7.691  0.00  0.00    -0.010 C 
ATOM      7  C   UNL     1      -2.505  -0.180  -9.165  0.00  0.00    -0.082 C 
ATOM      8  N   UNL     1      -3.551   0.413 -10.007  0.00  0.00    +0.379 N 
ATOM      9  C   UNL     1      -4.842  -0.226  -9.726  0.00  0.00    -0.082 C 
ATOM     10  C   UNL     1      -5.248   0.053  -8.277  0.00  0.00    -0.010 C 
ATOM     11  C   UNL     1      -5.837  -3.522  -6.279  0.00  0.00    +0.238 C 
ATOM     12  O   UNL     1      -5.981  -4.205  -7.271  0.00  0.00    -0.273 OA
ATOM     13  H   UNL     1      -3.617   1.401  -9.813  0.00  0.00    -0.086 HD
ATOM     14  H   UNL     1      -3.315   0.279 -10.979  0.00  0.00    -0.086 HD
ENDROOT
BRANCH  11  15
ATOM     15  C   UNL     1      -6.622  -3.832  -5.030  0.00  0.00    +0.184 C 
ATOM     16  C   UNL     1      -5.843  -4.810  -4.128  0.00  0.00    +0.085 C 
ATOM     17  C   UNL     1      -6.743  -6.023  -4.051  0.00  0.00    +0.036 C 
ATOM     18  N   UNL     1      -7.794  -5.822  -4.734  0.00  0.00    -0.192 NA
ATOM     19  N   UNL     1      -7.850  -4.574  -5.360  0.00  0.00    -0.238 N 
ATOM     20  C   UNL     1      -6.438  -7.282  -3.280  0.00  0.00    +0.062 C 
BRANCH  19  21
ATOM     21  C   UNL     1      -8.944  -4.084  -6.202  0.00  0.00    +0.044 C 
ATOM     22  C   UNL     1      -8.556  -2.734  -6.808  0.00  0.00    +0.033 C 
ATOM     23  C   UNL     1      -9.214  -5.089  -7.323  0.00  0.00    +0.033 C 
ATOM     24  C   UNL     1     -10.206  -3.917  -5.352  0.00  0.00    +0.033 C 
ENDBRANCH  19  21
ENDBRANCH  11  15
BRANCH   1  26
ATOM     25  N   UNL     1      -3.480   1.981  -5.250  0.00  0.00    -0.309 N 
ATOM     26  C   UNL     1      -3.431   0.634  -5.232  0.00  0.00    +0.219 C 
ATOM     27  O   UNL     1      -2.501   0.068  -4.697  0.00  0.00    -0.275 OA
ATOM     28  H   UNL     1      -4.223   2.434  -5.677  0.00  0.00    +0.149 HD
BRANCH  25  29
ATOM     29  C   UNL     1      -2.410   2.761  -4.622  0.00  0.00    +0.100 C 
ATOM     30  C   UNL     1      -1.258   2.937  -5.614  0.00  0.00    +0.033 C 
BRANCH  29  33
ATOM     31  C   UNL     1      -2.695   5.614  -6.220  0.00  0.00    +0.039 C 
ATOM     32  C   UNL     1      -3.630   5.144  -5.104  0.00  0.00    +0.154 C 
ATOM     33  C   UNL     1      -2.941   4.114  -4.225  0.00  0.00    -0.001 C 
ATOM     34  C   UNL     1      -2.917   4.686  -3.019  0.00  0.00    +0.063 C 
ATOM     35  N   UNL     1      -3.492   5.908  -3.055  0.00  0.00    -0.159 NA
ATOM     36  N   UNL     1      -3.917   6.244  -4.168  0.00  0.00    -0.180 NA
ATOM     37  C   UNL     1      -2.327   4.054  -1.784  0.00  0.00    +0.067 C 
ENDBRANCH  29  33
ENDBRANCH  25  29
ENDBRANCH   1  26
TORSDOF 5
