REMARK  Name = ZINC63698997
REMARK  3 active torsions:
REMARK  status: ('A' for Active; 'I' for Inactive)
REMARK    1  A    between atoms: C_1  and  C_2
REMARK    2  A    between atoms: C_4  and  C_23
REMARK    3  A    between atoms: N_12  and  C_14
REMARK                            x       y       z     vdW  Elec       q    Type
REMARK                         _______ _______ _______ _____ _____    ______ ____
ROOT
ATOM      1  C   UNL     1      -0.061   1.492   0.020  0.00  0.00    +0.062 C 
ATOM      2  C   UNL     1      -0.022  -0.014   0.006  0.00  0.00    +0.019 C 
ATOM      3  C   UNL     1      -1.078  -0.776  -0.002  0.00  0.00    -0.008 C 
ATOM      4  C   UNL     1      -2.541  -0.448   0.169  0.00  0.00    +0.060 C 
ATOM      5  C   UNL     1      -2.999  -1.179   1.440  0.00  0.00    +0.108 C 
ATOM      6  C   UNL     1      -2.357  -2.523   1.570  0.00  0.00    +0.215 C 
ATOM      7  O   UNL     1      -2.911  -3.311   2.307  0.00  0.00    -0.276 OA
ATOM      8  N   UNL     1      -1.248  -2.956   0.970  0.00  0.00    -0.295 N 
ATOM      9  C   UNL     1      -0.596  -2.215  -0.102  0.00  0.00    +0.194 C 
ATOM     10  N   UNL     1       0.858  -2.107   0.058  0.00  0.00    -0.164 NA
ATOM     11  N   UNL     1       1.141  -0.767  -0.007  0.00  0.00    -0.277 N 
ATOM     12  H   UNL     1      -0.860  -3.797   1.258  0.00  0.00    +0.151 HD
ATOM     13  H   UNL     1       2.036  -0.396  -0.053  0.00  0.00    +0.166 HD
ENDROOT
BRANCH  10  14
ATOM     14  C   UNL     1       1.290  -2.679   1.340  0.00  0.00    +0.270 C 
ATOM     15  N   UNL     1       0.819  -1.843   2.451  0.00  0.00    -0.350 N 
ATOM     16  C   UNL     1       1.869  -1.418   3.093  0.00  0.00    +0.061 A 
ATOM     17  C   UNL     1       2.039  -0.559   4.273  0.00  0.00    +0.027 A 
ATOM     18  C   UNL     1       3.279  -0.284   4.722  0.00  0.00    +0.002 A 
ATOM     19  C   UNL     1       4.438  -0.788   4.105  0.00  0.00    +0.002 A 
ATOM     20  C   UNL     1       4.395  -1.584   3.018  0.00  0.00    +0.027 A 
ATOM     21  C   UNL     1       3.095  -1.952   2.440  0.00  0.00    +0.061 A 
ATOM     22  N   UNL     1       2.756  -2.686   1.420  0.00  0.00    -0.350 N 
ATOM     23  H   UNL     1      -0.105  -1.643   2.666  0.00  0.00    +0.163 HD
ATOM     24  H   UNL     1       3.362  -3.152   0.822  0.00  0.00    +0.163 HD
ENDBRANCH  10  14
BRANCH   4  25
ATOM     25  C   UNL     1      -3.324  -0.935  -1.023  0.00  0.00    -0.021 A 
ATOM     26  C   UNL     1      -3.334  -2.280  -1.340  0.00  0.00    +0.007 A 
ATOM     27  C   UNL     1      -4.052  -2.728  -2.433  0.00  0.00    +0.020 A 
ATOM     28  C   UNL     1      -4.762  -1.830  -3.210  0.00  0.00    +0.042 A 
ATOM     29  C   UNL     1      -4.753  -0.484  -2.892  0.00  0.00    +0.040 A 
ATOM     30  C   UNL     1      -4.038  -0.037  -1.795  0.00  0.00    +0.046 A 
ATOM     31 CL   UNL     1      -4.032   1.652  -1.393  0.00  0.00    -0.083 Cl
ATOM     32 CL   UNL     1      -5.663  -2.392  -4.583  0.00  0.00    -0.083 Cl
ENDBRANCH   4  25
TORSDOF 2
