REMARK  Name = ZINC49597343
REMARK  11 active torsions:
REMARK  status: ('A' for Active; 'I' for Inactive)
REMARK    1  A    between atoms: C_1  and  C_2
REMARK    2  A    between atoms: C_2  and  C_3
REMARK    3  A    between atoms: C_2  and  C_4
REMARK    4  A    between atoms: C_11  and  C_16
REMARK    5  A    between atoms: C_16  and  N_17
REMARK    6  A    between atoms: N_17  and  S_18
REMARK    7  A    between atoms: S_18  and  C_21
REMARK    8  A    between atoms: C_24  and  O_29
REMARK    9  A    between atoms: C_26  and  O_27
REMARK   10  A    between atoms: O_27  and  C_28
REMARK   11  A    between atoms: O_29  and  C_30
REMARK                            x       y       z     vdW  Elec       q    Type
REMARK                         _______ _______ _______ _____ _____    ______ ____
ROOT
ATOM      1  C   UNL     1      -5.494  -3.963  -3.120  0.00  0.00    +0.146 C 
ENDROOT
BRANCH   1   9
ATOM      2  C   UNL     1      -1.412  -0.526   0.013  0.00  0.00    -0.044 A 
ATOM      3  C   UNL     1      -2.258  -0.199   1.064  0.00  0.00    +0.006 A 
ATOM      4  C   UNL     1      -3.554  -0.665   1.094  0.00  0.00    +0.026 A 
ATOM      5  C   UNL     1      -4.022  -1.471   0.062  0.00  0.00    +0.049 A 
ATOM      6  C   UNL     1      -3.162  -1.799  -1.003  0.00  0.00    -0.001 A 
ATOM      7  C   UNL     1      -1.851  -1.311  -1.015  0.00  0.00    +0.013 A 
ATOM      8  C   UNL     1      -3.664  -2.648  -2.085  0.00  0.00    +0.020 A 
ATOM      9  C   UNL     1      -4.945  -3.088  -2.022  0.00  0.00    +0.033 A 
ATOM     10  C   UNL     1      -5.767  -2.729  -0.932  0.00  0.00    +0.254 A 
ATOM     11  O   UNL     1      -6.916  -3.135  -0.895  0.00  0.00    -0.268 OA
ATOM     12  N   UNL     1      -5.315  -1.950   0.066  0.00  0.00    -0.322 N 
ATOM     13  H   UNL     1      -5.907  -1.723   0.800  0.00  0.00    +0.169 HD
BRANCH   2  15
ATOM     14  C   UNL     1      -0.019   1.526   0.010  0.00  0.00    +0.012 C 
ATOM     15  C   UNL     1       0.002  -0.004   0.002  0.00  0.00    +0.013 C 
ATOM     16  C   UNL     1       0.742  -0.511   1.242  0.00  0.00    +0.012 C 
ENDBRANCH   2  15
ENDBRANCH   1   9
BRANCH   1  17
ATOM     17  N   UNL     1      -5.359  -5.370  -2.735  0.00  0.00    -0.185 NA
ATOM     18  H   UNL     1      -4.779  -5.618  -1.999  0.00  0.00    +0.148 HD
BRANCH  17  19
ATOM     19  S   UNL     1      -6.198  -6.537  -3.558  0.00  0.00    +0.062 S 
ATOM     20  O   UNL     1      -5.841  -7.782  -2.974  0.00  0.00    -0.153 OA
ATOM     21  O   UNL     1      -7.545  -6.090  -3.636  0.00  0.00    -0.153 OA
BRANCH  19  22
ATOM     22  C   UNL     1      -5.579  -6.558  -5.208  0.00  0.00    +0.147 A 
ATOM     23  C   UNL     1      -4.922  -7.677  -5.684  0.00  0.00    +0.036 A 
ATOM     24  C   UNL     1      -4.435  -7.697  -6.977  0.00  0.00    +0.048 A 
ATOM     25  C   UNL     1      -4.605  -6.592  -7.801  0.00  0.00    +0.124 A 
ATOM     26  C   UNL     1      -5.263  -5.469  -7.325  0.00  0.00    +0.093 A 
ATOM     27  C   UNL     1      -5.756  -5.454  -6.029  0.00  0.00    +0.150 A 
BRANCH  27  28
ATOM     28  O   UNL     1      -6.407  -4.356  -5.562  0.00  0.00    -0.493 OA
ATOM     29  C   UNL     1      -6.553  -3.256  -6.462  0.00  0.00    +0.277 C 
ENDBRANCH  27  28
BRANCH  25  30
ATOM     30  O   UNL     1      -4.126  -6.612  -9.072  0.00  0.00    -0.495 OA
ATOM     31  C   UNL     1      -3.458  -7.802  -9.495  0.00  0.00    +0.277 C 
ENDBRANCH  25  30
ENDBRANCH  19  22
ENDBRANCH  17  19
ENDBRANCH   1  17
TORSDOF 7
