REMARK  Name = ZINC62252636
REMARK  8 active torsions:
REMARK  status: ('A' for Active; 'I' for Inactive)
REMARK    1  A    between atoms: C_4  and  C_7
REMARK    2  A    between atoms: C_10  and  C_13
REMARK    3  A    between atoms: C_13  and  N_14
REMARK    4  A    between atoms: N_14  and  C_15
REMARK    5  A    between atoms: C_15  and  C_16
REMARK    6  A    between atoms: C_19  and  S_22
REMARK    7  A    between atoms: S_22  and  N_25
REMARK    8  A    between atoms: N_25  and  C_26
REMARK                            x       y       z     vdW  Elec       q    Type
REMARK                         _______ _______ _______ _____ _____    ______ ____
ROOT
ATOM      1  N   UNL     1       7.872  -3.019   1.294  0.00  0.00    +0.384 N 
ATOM      2  H   UNL     1       7.983  -2.140   1.778  0.00  0.00    -0.085 HD
ATOM      3  H   UNL     1       7.182  -3.580   1.770  0.00  0.00    -0.085 HD
ENDROOT
BRANCH   1   4
ATOM      4  C   UNL     1       7.434  -2.768  -0.085  0.00  0.00    -0.046 C 
BRANCH   4   8
ATOM      5  C   UNL     1       3.699  -0.689  -0.037  0.00  0.00    -0.018 A 
ATOM      6  C   UNL     1       4.896   0.024  -0.040  0.00  0.00    +0.009 A 
ATOM      7  C   UNL     1       6.099  -0.652  -0.055  0.00  0.00    +0.002 A 
ATOM      8  C   UNL     1       6.118  -2.035  -0.068  0.00  0.00    -0.064 A 
ATOM      9  C   UNL     1       4.932  -2.748  -0.066  0.00  0.00    +0.002 A 
ATOM     10  C   UNL     1       3.724  -2.082  -0.045  0.00  0.00    +0.009 A 
BRANCH   5  14
ATOM     11  C   UNL     1      -0.017   1.379   0.010  0.00  0.00    +0.000 A 
ATOM     12  C   UNL     1       1.169   2.092   0.002  0.00  0.00    +0.001 A 
ATOM     13  C   UNL     1       2.377   1.426  -0.013  0.00  0.00    +0.008 A 
ATOM     14  C   UNL     1       2.402   0.033  -0.021  0.00  0.00    -0.018 A 
ATOM     15  C   UNL     1       1.205  -0.680  -0.013  0.00  0.00    +0.008 A 
ATOM     16  C   UNL     1       0.002  -0.004   0.002  0.00  0.00    +0.001 A 
ENDBRANCH   5  14
ENDBRANCH   4   8
ENDBRANCH   1   4
BRANCH   1  17
ATOM     17  C   UNL     1       9.156  -3.734   1.278  0.00  0.00    -0.046 C 
BRANCH  17  18
ATOM     18  C   UNL     1       9.606  -3.992   2.693  0.00  0.00    -0.064 A 
ATOM     19  C   UNL     1      10.389  -3.061   3.350  0.00  0.00    +0.003 A 
ATOM     20  C   UNL     1      10.802  -3.298   4.648  0.00  0.00    +0.029 A 
ATOM     21  C   UNL     1      10.430  -4.464   5.289  0.00  0.00    +0.105 A 
ATOM     22  C   UNL     1       9.646  -5.394   4.633  0.00  0.00    +0.029 A 
ATOM     23  C   UNL     1       9.230  -5.156   3.337  0.00  0.00    +0.003 A 
BRANCH  21  24
ATOM     24  S   UNL     1      10.957  -4.766   6.943  0.00  0.00    +0.059 S 
ATOM     25  O   UNL     1      10.930  -6.175   7.127  0.00  0.00    -0.153 OA
ATOM     26  O   UNL     1      12.133  -3.994   7.142  0.00  0.00    -0.153 OA
BRANCH  24  27
ATOM     27  N   UNL     1       9.801  -4.136   7.948  0.00  0.00    -0.187 NA
ATOM     28  H   UNL     1      10.018  -3.390   8.529  0.00  0.00    +0.148 HD
BRANCH  27  29
ATOM     29  C   UNL     1       8.451  -4.704   7.959  0.00  0.00    +0.077 C 
ATOM     30  C   UNL     1       7.284  -3.748   8.212  0.00  0.00    +0.022 C 
ATOM     31  C   UNL     1       7.710  -4.738   9.297  0.00  0.00    +0.022 C 
ENDBRANCH  27  29
ENDBRANCH  24  27
ENDBRANCH  21  24
ENDBRANCH  17  18
ENDBRANCH   1  17
TORSDOF 8
