REMARK  Name = ZINC02270575
REMARK  8 active torsions:
REMARK  status: ('A' for Active; 'I' for Inactive)
REMARK    1  A    between atoms: C_4  and  C_7
REMARK    2  A    between atoms: C_7  and  C_9
REMARK    3  A    between atoms: C_7  and  N_14
REMARK    4  A    between atoms: N_14  and  N_15
REMARK    5  A    between atoms: C_16  and  C_18
REMARK    6  A    between atoms: C_18  and  C_19
REMARK    7  A    between atoms: C_18  and  C_25
REMARK    8  A    between atoms: C_18  and  O_31
REMARK                            x       y       z     vdW  Elec       q    Type
REMARK                         _______ _______ _______ _____ _____    ______ ____
ROOT
ATOM      1  N   UNL     1       1.063   2.318  -0.484  0.00  0.00    -0.247 N 
ATOM      2  C   UNL     1       0.022   1.463  -0.443  0.00  0.00    +0.267 C 
ATOM      3  O   UNL     1       0.171   0.308  -0.782  0.00  0.00    -0.271 OA
ATOM      4  H   UNL     1       0.944   3.241  -0.212  0.00  0.00    +0.169 HD
ENDROOT
BRANCH   1   5
ATOM      5  N   UNL     1       2.287   1.883  -0.908  0.00  0.00    -0.228 NA
ATOM      6  H   UNL     1       2.600   1.095  -0.362  0.00  0.00    +0.145 HD
BRANCH   5   7
ATOM      7  C   UNL     1       3.273   2.971  -0.874  0.00  0.00    +0.139 C 
BRANCH   7  11
ATOM      8  C   UNL     1       7.157   1.351  -0.139  0.00  0.00    +0.000 A 
ATOM      9  C   UNL     1       6.775   2.534   0.466  0.00  0.00    +0.000 A 
ATOM     10  C   UNL     1       5.519   3.058   0.229  0.00  0.00    +0.005 A 
ATOM     11  C   UNL     1       4.643   2.400  -0.615  0.00  0.00    -0.024 A 
ATOM     12  C   UNL     1       5.023   1.214  -1.216  0.00  0.00    +0.005 A 
ATOM     13  C   UNL     1       6.281   0.692  -0.981  0.00  0.00    +0.000 A 
ENDBRANCH   7  11
BRANCH   7  14
ATOM     14  C   UNL     1       3.272   3.692  -2.197  0.00  0.00    +0.013 A 
ATOM     15  C   UNL     1       3.365   5.021  -2.445  0.00  0.00    +0.013 A 
ATOM     16  C   UNL     1       3.346   5.462  -3.756  0.00  0.00    +0.008 A 
ATOM     17  C   UNL     1       3.224   4.552  -4.753  0.00  0.00    +0.045 A 
ATOM     18  S   UNL     1       3.139   3.018  -3.845  0.00  0.00    -0.100 S 
ENDBRANCH   7  14
ENDBRANCH   5   7
ENDBRANCH   1   5
BRANCH   2  19
ATOM     19  C   UNL     1      -1.330   1.944   0.019  0.00  0.00    +0.193 C 
BRANCH  19  20
ATOM     20  C   UNL     1      -2.064   2.567  -1.140  0.00  0.00    -0.003 A 
ATOM     21  C   UNL     1      -1.990   1.991  -2.395  0.00  0.00    +0.007 A 
ATOM     22  C   UNL     1      -2.667   2.559  -3.458  0.00  0.00    +0.000 A 
ATOM     23  C   UNL     1      -3.412   3.708  -3.267  0.00  0.00    +0.000 A 
ATOM     24  C   UNL     1      -3.482   4.287  -2.014  0.00  0.00    +0.000 A 
ATOM     25  C   UNL     1      -2.809   3.716  -0.950  0.00  0.00    +0.007 A 
ENDBRANCH  19  20
BRANCH  19  26
ATOM     26  C   UNL     1      -2.123   0.778   0.549  0.00  0.00    -0.003 A 
ATOM     27  C   UNL     1      -2.502  -0.244  -0.300  0.00  0.00    +0.007 A 
ATOM     28  C   UNL     1      -3.225  -1.316   0.187  0.00  0.00    +0.000 A 
ATOM     29  C   UNL     1      -3.580  -1.361   1.522  0.00  0.00    +0.000 A 
ATOM     30  C   UNL     1      -3.207  -0.335   2.371  0.00  0.00    +0.000 A 
ATOM     31  C   UNL     1      -2.478   0.734   1.885  0.00  0.00    +0.007 A 
ENDBRANCH  19  26
BRANCH  19  32
ATOM     32  O   UNL     1      -1.161   2.916   1.053  0.00  0.00    -0.371 OA
ATOM     33  H   UNL     1      -0.695   2.584   1.833  0.00  0.00    +0.212 HD
ENDBRANCH  19  32
ENDBRANCH   2  19
TORSDOF 8
