REMARK  Name = ZINC16524614
REMARK  9 active torsions:
REMARK  status: ('A' for Active; 'I' for Inactive)
REMARK    1  A    between atoms: C_1  and  C_2
REMARK    2  A    between atoms: C_2  and  C_3
REMARK    3  A    between atoms: C_6  and  N_9
REMARK    4  A    between atoms: C_10  and  C_12
REMARK    5  A    between atoms: C_12  and  C_14
REMARK    6  A    between atoms: C_12  and  N_15
REMARK    7  A    between atoms: N_18  and  S_21
REMARK    8  A    between atoms: S_21  and  C_24
REMARK    9  A    between atoms: C_25  and  C_26
REMARK                            x       y       z     vdW  Elec       q    Type
REMARK                         _______ _______ _______ _____ _____    ______ ____
ROOT
ATOM      1  N   UNL     1       6.147  -2.503  -5.671  0.00  0.00    +0.389 N 
ATOM      2  C   UNL     1       6.725  -1.219  -5.256  0.00  0.00    -0.060 C 
ATOM      3  C   UNL     1       8.190  -1.424  -4.857  0.00  0.00    +0.091 C 
ATOM      4  N   UNL     1       8.891  -2.072  -5.977  0.00  0.00    -0.181 NA
ATOM      5  C   UNL     1       8.291  -3.279  -6.565  0.00  0.00    +0.091 C 
ATOM      6  C   UNL     1       6.821  -2.986  -6.882  0.00  0.00    -0.060 C 
ATOM      7  H   UNL     1       6.264  -3.177  -4.930  0.00  0.00    -0.081 HD
ENDROOT
BRANCH   4   8
ATOM      8  S   UNL     1      10.315  -1.458  -6.559  0.00  0.00    +0.054 S 
ATOM      9  O   UNL     1      10.434  -1.911  -7.900  0.00  0.00    -0.153 OA
ATOM     10  O   UNL     1      10.334  -0.080  -6.215  0.00  0.00    -0.153 OA
BRANCH   8  11
ATOM     11  C   UNL     1      11.620  -2.220  -5.652  0.00  0.00    +0.153 C 
ATOM     12  C   UNL     1      12.478  -3.019  -6.271  0.00  0.00    +0.028 C 
BRANCH  12  13
ATOM     13  C   UNL     1      13.572  -3.659  -5.511  0.00  0.00    -0.024 A 
ATOM     14  C   UNL     1      13.702  -3.428  -4.141  0.00  0.00    +0.008 A 
ATOM     15  C   UNL     1      14.726  -4.028  -3.437  0.00  0.00    +0.001 A 
ATOM     16  C   UNL     1      15.623  -4.856  -4.087  0.00  0.00    +0.000 A 
ATOM     17  C   UNL     1      15.501  -5.088  -5.445  0.00  0.00    +0.001 A 
ATOM     18  C   UNL     1      14.477  -4.500  -6.159  0.00  0.00    +0.008 A 
ENDBRANCH  12  13
ENDBRANCH   8  11
ENDBRANCH   4   8
BRANCH   1  19
ATOM     19  C   UNL     1       4.715  -2.327  -5.947  0.00  0.00    +0.017 C 
ATOM     20  C   UNL     1       4.122  -3.651  -6.432  0.00  0.00    -0.004 C 
BRANCH  19  22
ATOM     21  N   UNL     1       2.890  -1.145  -4.767  0.00  0.00    -0.287 N 
ATOM     22  C   UNL     1       4.010  -1.891  -4.689  0.00  0.00    +0.203 C 
ATOM     23  O   UNL     1       4.450  -2.212  -3.605  0.00  0.00    -0.277 OA
ATOM     24  H   UNL     1       2.500  -0.945  -5.632  0.00  0.00    +0.155 HD
BRANCH  21  28
ATOM     25  C   UNL     1       1.105   0.301  -1.292  0.00  0.00    -0.048 A 
ATOM     26  C   UNL     1       1.694  -0.950  -1.295  0.00  0.00    +0.005 A 
ATOM     27  C   UNL     1       2.287  -1.432  -2.446  0.00  0.00    +0.023 A 
ATOM     28  C   UNL     1       2.290  -0.660  -3.600  0.00  0.00    +0.033 A 
ATOM     29  C   UNL     1       1.697   0.596  -3.593  0.00  0.00    +0.023 A 
ATOM     30  C   UNL     1       1.102   1.071  -2.440  0.00  0.00    +0.005 A 
BRANCH  25  32
ATOM     31  C   UNL     1      -1.012   0.406  -0.005  0.00  0.00    +0.009 C 
ATOM     32  C   UNL     1       0.459   0.825  -0.034  0.00  0.00    +0.032 C 
ENDBRANCH  25  32
ENDBRANCH  21  28
ENDBRANCH  19  22
ENDBRANCH   1  19
TORSDOF 7
