REMARK  Name = ZINC02117986
REMARK  11 active torsions:
REMARK  status: ('A' for Active; 'I' for Inactive)
REMARK    1  A    between atoms: C_1  and  C_2
REMARK    2  A    between atoms: C_2  and  C_3
REMARK    3  A    between atoms: C_3  and  O_4
REMARK    4  A    between atoms: O_4  and  C_5
REMARK    5  A    between atoms: C_8  and  C_13
REMARK    6  A    between atoms: C_10  and  O_11
REMARK    7  A    between atoms: O_11  and  C_12
REMARK    8  A    between atoms: C_14  and  C_23
REMARK    9  A    between atoms: C_15  and  N_22
REMARK   10  A    between atoms: C_17  and  N_21
REMARK   11  A    between atoms: C_18  and  C_19
REMARK                            x       y       z     vdW  Elec       q    Type
REMARK                         _______ _______ _______ _____ _____    ______ ____
ROOT
ATOM      1  C   UNL     1       0.065  -4.280  -0.021  0.00  0.00    +0.105 C 
ATOM      2  C   UNL     1       0.748  -4.752   1.216  0.00  0.00    +0.069 C 
ATOM      3  C   UNL     1       2.038  -5.107   1.312  0.00  0.00    +0.079 C 
ATOM      4  S   UNL     1       3.143  -5.076  -0.051  0.00  0.00    -0.058 S 
ATOM      5  C   UNL     1       2.016  -5.092  -1.395  0.00  0.00    +0.079 C 
ATOM      6  C   UNL     1       0.724  -4.740  -1.276  0.00  0.00    +0.069 C 
ENDROOT
BRANCH   1  10
ATOM      7  C   UNL     1       0.002  -0.004   0.002  0.00  0.00    +0.162 A 
ATOM      8  C   UNL     1       1.210  -0.682  -0.013  0.00  0.00    +0.050 A 
ATOM      9  C   UNL     1       1.227  -2.064  -0.021  0.00  0.00    +0.008 A 
ATOM     10  C   UNL     1       0.041  -2.773  -0.013  0.00  0.00    -0.030 A 
ATOM     11  C   UNL     1      -1.168  -2.103   0.002  0.00  0.00    +0.054 A 
ATOM     12  C   UNL     1      -1.192  -0.718   0.015  0.00  0.00    +0.162 A 
BRANCH  12  13
ATOM     13  O   UNL     1      -2.381  -0.057   0.036  0.00  0.00    -0.491 OA
ATOM     14  C   UNL     1      -3.567  -0.855   0.049  0.00  0.00    +0.277 C 
ENDBRANCH  12  13
BRANCH   7  15
ATOM     15  O   UNL     1      -0.016   1.356   0.009  0.00  0.00    -0.488 OA
BRANCH  15  16
ATOM     16  C   UNL     1       1.248   2.022   0.001  0.00  0.00    +0.229 C 
BRANCH  16  18
ATOM     17  C   UNL     1       2.381   4.249   0.002  0.00  0.00    +0.007 C 
ATOM     18  C   UNL     1       1.027   3.536   0.011  0.00  0.00    +0.038 C 
ENDBRANCH  16  18
ENDBRANCH  15  16
ENDBRANCH   7  15
ENDBRANCH   1  10
BRANCH   5  19
ATOM     19  N   UNL     1       2.475  -5.484  -2.630  0.00  0.00    -0.352 N 
ATOM     20  H   UNL     1       1.791  -5.504  -3.491  0.00  0.00    +0.143 HD
ATOM     21  H   UNL     1       3.527  -5.779  -2.757  0.00  0.00    +0.143 HD
ENDBRANCH   5  19
BRANCH   3  22
ATOM     22  N   UNL     1       2.518  -5.512   2.535  0.00  0.00    -0.352 N 
ATOM     23  H   UNL     1       3.572  -5.808   2.641  0.00  0.00    +0.143 HD
ATOM     24  H   UNL     1       1.848  -5.540   3.407  0.00  0.00    +0.143 HD
ENDBRANCH   3  22
BRANCH   6  25
ATOM     25  C   UNL     1      -0.086  -4.811  -2.454  0.00  0.00    +0.098 C 
ATOM     26  N   UNL     1      -0.729  -4.868  -3.389  0.00  0.00    -0.191 NA
ENDBRANCH   6  25
BRANCH   2  27
ATOM     27  C   UNL     1      -0.041  -4.836   2.409  0.00  0.00    +0.098 C 
ATOM     28  N   UNL     1      -0.666  -4.902   3.354  0.00  0.00    -0.191 NA
ENDBRANCH   2  27
TORSDOF 9
