REMARK  Name = ZINC36159933
REMARK  8 active torsions:
REMARK  status: ('A' for Active; 'I' for Inactive)
REMARK    1  A    between atoms: C_1  and  C_2
REMARK    2  A    between atoms: C_2  and  C_3
REMARK    3  A    between atoms: C_3  and  C_4
REMARK    4  A    between atoms: C_3  and  C_5
REMARK    5  A    between atoms: C_3  and  C_6
REMARK    6  A    between atoms: C_10  and  C_23
REMARK    7  A    between atoms: C_12  and  N_15
REMARK    8  A    between atoms: C_23  and  N_24
REMARK                            x       y       z     vdW  Elec       q    Type
REMARK                         _______ _______ _______ _____ _____    ______ ____
ROOT
ATOM      1  C   UNL     1       0.809  -1.988  -1.291  0.00  0.00    -0.004 C 
ATOM      2  C   UNL     1      -0.640  -2.477  -1.255  0.00  0.00    +0.004 C 
ATOM      3  C   UNL     1      -0.661  -4.007  -1.239  0.00  0.00    +0.003 C 
ATOM      4  C   UNL     1       0.027  -4.540  -2.497  0.00  0.00    -0.011 C 
ATOM      5  C   UNL     1       1.476  -4.051  -2.532  0.00  0.00    +0.058 C 
ATOM      6  C   UNL     1       1.497  -2.521  -2.549  0.00  0.00    +0.023 C 
ENDROOT
BRANCH   5   7
ATOM      7  N   UNL     1       2.186  -4.537  -1.342  0.00  0.00    -0.296 NA
ATOM      8  C   UNL     1       3.560  -4.031  -1.307  0.00  0.00    +0.107 C 
ATOM      9  C   UNL     1       4.131  -4.171   0.108  0.00  0.00    +0.181 C 
ATOM     10  S   UNL     1       4.173  -5.937   0.542  0.00  0.00    -0.029 S 
ATOM     11  O   UNL     1       4.385  -6.054   1.942  0.00  0.00    -0.174 OA
ATOM     12  O   UNL     1       5.056  -6.602  -0.351  0.00  0.00    -0.174 OA
ATOM     13  C   UNL     1       2.468  -6.449   0.169  0.00  0.00    +0.181 C 
ATOM     14  C   UNL     1       2.124  -5.998  -1.255  0.00  0.00    +0.107 C 
ENDBRANCH   5   7
BRANCH   1  15
ATOM     15  C   UNL     1       0.830  -0.458  -1.307  0.00  0.00    -0.032 C 
ATOM     16  C   UNL     1       0.090   0.049  -2.547  0.00  0.00    +0.011 C 
ATOM     17  C   UNL     1       2.279   0.032  -1.343  0.00  0.00    +0.011 C 
BRANCH  15  19
ATOM     18  C   UNL     1       0.163   1.605  -0.066  0.00  0.00    +0.004 C 
ATOM     19  C   UNL     1       0.142   0.075  -0.049  0.00  0.00    +0.003 C 
ENDBRANCH  15  19
ENDBRANCH   1  15
BRANCH   4  20
ATOM     20  C   UNL     1      -0.713  -4.034  -3.737  0.00  0.00    -0.081 C 
BRANCH  20  21
ATOM     21  N   UNL     1      -2.068  -4.601  -3.764  0.00  0.00    +0.378 N 
ATOM     22  H   UNL     1      -2.556  -4.267  -4.582  0.00  0.00    -0.090 HD
ATOM     23  H   UNL     1      -2.010  -5.608  -3.795  0.00  0.00    -0.090 HD
ATOM     24  H   UNL     1      -2.568  -4.318  -2.935  0.00  0.00    -0.090 HD
ENDBRANCH  20  21
ENDBRANCH   4  20
TORSDOF 5
