REMARK  Name = ZINC05556928
REMARK  4 active torsions:
REMARK  status: ('A' for Active; 'I' for Inactive)
REMARK    1  A    between atoms: C_1  and  C_2
REMARK    2  A    between atoms: C_3  and  C_12
REMARK    3  A    between atoms: N_13  and  N_14
REMARK    4  A    between atoms: C_17  and  C_24
REMARK                            x       y       z     vdW  Elec       q    Type
REMARK                         _______ _______ _______ _____ _____    ______ ____
ROOT
ATOM      1  N   UNL     1       1.867   2.968  -2.218  0.00  0.00    -0.220 N 
ATOM      2  C   UNL     1       3.111   3.539  -2.028  0.00  0.00    +0.150 A 
ATOM      3  C   UNL     1       3.654   3.663  -0.720  0.00  0.00    +0.057 A 
ATOM      4  C   UNL     1       3.087   3.265   0.564  0.00  0.00    +0.002 A 
ATOM      5  C   UNL     1       3.802   3.496   1.691  0.00  0.00    +0.056 A 
ATOM      6  S   UNL     1       5.296   4.258   1.087  0.00  0.00    -0.076 S 
ATOM      7  C   UNL     1       4.929   4.260  -0.648  0.00  0.00    +0.114 A 
ATOM      8  N   UNL     1       5.559   4.668  -1.732  0.00  0.00    -0.228 NA
ATOM      9  C   UNL     1       5.005   4.526  -2.921  0.00  0.00    +0.224 A 
ATOM     10  N   UNL     1       3.813   3.976  -3.063  0.00  0.00    -0.219 NA
ATOM     11  H   UNL     1       1.520   2.334  -1.571  0.00  0.00    +0.176 HD
ENDROOT
BRANCH   4  12
ATOM     12  C   UNL     1       1.752   2.626   0.635  0.00  0.00    -0.017 A 
ATOM     13  C   UNL     1       0.636   3.277   0.110  0.00  0.00    +0.008 A 
ATOM     14  C   UNL     1      -0.605   2.677   0.178  0.00  0.00    +0.001 A 
ATOM     15  C   UNL     1      -0.743   1.432   0.765  0.00  0.00    +0.000 A 
ATOM     16  C   UNL     1       0.360   0.782   1.289  0.00  0.00    +0.001 A 
ATOM     17  C   UNL     1       1.606   1.372   1.226  0.00  0.00    +0.008 A 
ENDBRANCH   4  12
BRANCH   1  19
ATOM     18  C   UNL     1      -0.064   2.770  -3.523  0.00  0.00    +0.140 C 
ATOM     19  N   UNL     1       1.105   3.306  -3.345  0.00  0.00    -0.189 NA
BRANCH  18  22
ATOM     20  C   UNL     1       0.775   4.773  -5.747  0.00  0.00    +0.064 C 
ATOM     21  C   UNL     1      -0.516   3.997  -5.691  0.00  0.00    +0.023 A 
ATOM     22  C   UNL     1      -0.864   3.125  -4.707  0.00  0.00    +0.023 A 
ATOM     23  C   UNL     1      -2.200   2.610  -5.054  0.00  0.00    +0.009 A 
ATOM     24  C   UNL     1      -3.075   1.709  -4.452  0.00  0.00    +0.010 A 
ATOM     25  C   UNL     1      -4.278   1.432  -5.041  0.00  0.00    +0.001 A 
ATOM     26  C   UNL     1      -4.633   2.044  -6.235  0.00  0.00    +0.002 A 
ATOM     27  C   UNL     1      -3.782   2.938  -6.846  0.00  0.00    +0.026 A 
ATOM     28  C   UNL     1      -2.554   3.233  -6.263  0.00  0.00    +0.047 A 
ATOM     29  N   UNL     1      -1.512   4.062  -6.621  0.00  0.00    -0.358 N 
ATOM     30  H   UNL     1      -1.492   4.614  -7.418  0.00  0.00    +0.166 HD
ENDBRANCH  18  22
ENDBRANCH   1  19
TORSDOF 3
