REMARK  Name = ZINC12685866
REMARK  3 active torsions:
REMARK  status: ('A' for Active; 'I' for Inactive)
REMARK    1  A    between atoms: C_5  and  S_6
REMARK    2  A    between atoms: S_6  and  N_9
REMARK    3  A    between atoms: C_15  and  C_17
REMARK                            x       y       z     vdW  Elec       q    Type
REMARK                         _______ _______ _______ _____ _____    ______ ____
ROOT
ATOM      1  N   UNL     1      -2.912   4.548   1.636  0.00  0.00    -0.173 NA
ATOM      2  C   UNL     1      -3.888   3.716   2.353  0.00  0.00    +0.128 C 
ATOM      3  C   UNL     1      -3.214   3.159   3.619  0.00  0.00    +0.125 C 
ATOM      4  N   UNL     1      -2.569   4.269   4.333  0.00  0.00    -0.299 N 
ATOM      5  C   UNL     1      -1.597   5.104   3.614  0.00  0.00    +0.125 C 
ATOM      6  C   UNL     1      -2.267   5.658   2.350  0.00  0.00    +0.128 C 
ATOM      7  C   UNL     1      -2.863   4.517   5.625  0.00  0.00    +0.219 C 
ATOM      8  O   UNL     1      -2.323   5.436   6.204  0.00  0.00    -0.275 OA
ENDROOT
BRANCH   7   9
ATOM      9  C   UNL     1      -3.862   3.653   6.350  0.00  0.00    +0.083 C 
ATOM     10  C   UNL     1      -5.252   3.744   5.674  0.00  0.00    +0.021 C 
ATOM     11  C   UNL     1      -6.169   4.332   6.793  0.00  0.00    +0.013 C 
ATOM     12  C   UNL     1      -5.557   3.629   8.060  0.00  0.00    +0.016 C 
ATOM     13  C   UNL     1      -4.115   4.197   7.791  0.00  0.00    +0.024 C 
ATOM     14  C   UNL     1      -4.454   5.678   7.577  0.00  0.00    -0.027 C 
ATOM     15  C   UNL     1      -5.637   5.755   7.002  0.00  0.00    -0.027 C 
ENDBRANCH   7   9
BRANCH   1  16
ATOM     16  S   UNL     1      -2.551   4.243   0.048  0.00  0.00    +0.067 S 
ATOM     17  O   UNL     1      -2.073   5.463  -0.501  0.00  0.00    -0.152 OA
ATOM     18  O   UNL     1      -3.665   3.548  -0.495  0.00  0.00    -0.152 OA
BRANCH  16  23
ATOM     19  C   UNL     1      -1.213   1.762   0.017  0.00  0.00    +0.038 A 
ATOM     20  C   UNL     1      -0.013   1.076   0.008  0.00  0.00    +0.030 A 
ATOM     21  C   UNL     1       1.147   1.780   0.001  0.00  0.00    +0.080 A 
ATOM     22  S   UNL     1       0.555   3.465   0.015  0.00  0.00    -0.057 S 
ATOM     23  C   UNL     1      -1.196   3.117   0.029  0.00  0.00    +0.144 A 
ATOM     24 CL   UNL     1       2.781   1.196  -0.017  0.00  0.00    -0.076 Cl
ENDBRANCH  16  23
ENDBRANCH   1  16
TORSDOF 3
