REMARK  Name = ZINC02785955
REMARK  3 active torsions:
REMARK  status: ('A' for Active; 'I' for Inactive)
REMARK    1  A    between atoms: C_4  and  S_7
REMARK    2  A    between atoms: S_7  and  C_10
REMARK    3  A    between atoms: C_13  and  C_16
REMARK                            x       y       z     vdW  Elec       q    Type
REMARK                         _______ _______ _______ _____ _____    ______ ____
ROOT
ATOM      1  C   UNL     1       4.610  -1.109   1.582  0.00  0.00    +0.094 A 
ATOM      2  C   UNL     1       5.607  -0.359   2.182  0.00  0.00    +0.028 A 
ATOM      3  C   UNL     1       5.917  -0.553   3.511  0.00  0.00    +0.010 A 
ATOM      4  C   UNL     1       5.219  -1.512   4.255  0.00  0.00    -0.023 A 
ATOM      5  C   UNL     1       4.212  -2.266   3.641  0.00  0.00    +0.010 A 
ATOM      6  C   UNL     1       3.912  -2.055   2.312  0.00  0.00    +0.028 A 
ENDROOT
BRANCH   4   7
ATOM      7  C   UNL     1       5.542  -1.726   5.672  0.00  0.00    +0.035 C 
ATOM      8  C   UNL     1       5.826  -0.665   6.472  0.00  0.00    +0.080 C 
ATOM      9  C   UNL     1       5.681   0.756   6.120  0.00  0.00    +0.209 C 
ATOM     10  O   UNL     1       5.286   1.219   5.064  0.00  0.00    -0.285 OA
ATOM     11  C   UNL     1       6.115   1.500   7.316  0.00  0.00    +0.045 A 
ATOM     12  C   UNL     1       6.205   2.865   7.599  0.00  0.00    +0.013 A 
ATOM     13  C   UNL     1       6.657   3.278   8.833  0.00  0.00    +0.001 A 
ATOM     14  C   UNL     1       7.021   2.344   9.791  0.00  0.00    +0.002 A 
ATOM     15  C   UNL     1       6.936   0.994   9.525  0.00  0.00    +0.024 A 
ATOM     16  C   UNL     1       6.482   0.553   8.284  0.00  0.00    +0.042 A 
ATOM     17  N   UNL     1       6.303  -0.722   7.777  0.00  0.00    -0.311 N 
ATOM     18  H   UNL     1       6.486  -1.540   8.264  0.00  0.00    +0.152 HD
ENDBRANCH   4   7
BRANCH   1  19
ATOM     19  S   UNL     1       4.223  -0.852  -0.117  0.00  0.00    +0.025 S 
ATOM     20  O   UNL     1       3.623  -2.052  -0.583  0.00  0.00    -0.164 OA
ATOM     21  O   UNL     1       5.385  -0.298  -0.719  0.00  0.00    -0.164 OA
BRANCH  19  25
ATOM     22  C   UNL     1       1.024   2.347  -0.295  0.00  0.00    +0.000 A 
ATOM     23  C   UNL     1       2.360   2.702  -0.332  0.00  0.00    +0.002 A 
ATOM     24  C   UNL     1       3.337   1.725  -0.278  0.00  0.00    +0.027 A 
ATOM     25  C   UNL     1       2.978   0.393  -0.185  0.00  0.00    +0.094 A 
ATOM     26  C   UNL     1       1.643   0.038  -0.147  0.00  0.00    +0.027 A 
ATOM     27  C   UNL     1       0.666   1.015  -0.203  0.00  0.00    +0.002 A 
ENDBRANCH  19  25
ENDBRANCH   1  19
TORSDOF 3
