REMARK  Name = ZINC38688015
REMARK  6 active torsions:
REMARK  status: ('A' for Active; 'I' for Inactive)
REMARK    1  A    between atoms: C_8  and  C_10
REMARK    2  A    between atoms: C_10  and  O_12
REMARK    3  A    between atoms: O_12  and  C_13
REMARK    4  A    between atoms: C_20  and  N_33
REMARK    5  A    between atoms: C_21  and  C_31
REMARK    6  A    between atoms: C_22  and  C_24
REMARK                            x       y       z     vdW  Elec       q    Type
REMARK                         _______ _______ _______ _____ _____    ______ ____
ROOT
ATOM      1  C   UNL     1       4.692  -5.650  -0.107  0.00  0.00    +0.135 A 
ATOM      2  C   UNL     1       3.642  -6.555  -0.180  0.00  0.00    +0.047 A 
ATOM      3  C   UNL     1       3.901  -7.910  -0.224  0.00  0.00    +0.012 A 
ATOM      4  C   UNL     1       5.205  -8.373  -0.196  0.00  0.00    +0.008 A 
ATOM      5  C   UNL     1       6.257  -7.474  -0.124  0.00  0.00    +0.138 A 
ATOM      6  C   UNL     1       5.999  -6.109  -0.085  0.00  0.00    +0.093 A 
ATOM      7  O   UNL     1       7.542  -7.907  -0.096  0.00  0.00    -0.441 OA
ATOM      8  C   UNL     1       7.813  -9.178   0.246  0.00  0.00    +0.199 C 
ATOM      9  C   UNL     1       6.871 -10.150   0.198  0.00  0.00    +0.098 C 
ATOM     10  C   UNL     1       5.466  -9.855  -0.245  0.00  0.00    +0.098 C 
ENDROOT
BRANCH  10  11
ATOM     11  C   UNL     1       5.274 -10.349  -1.656  0.00  0.00    -0.034 A 
ATOM     12  C   UNL     1       6.054  -9.841  -2.678  0.00  0.00    +0.007 A 
ATOM     13  C   UNL     1       5.879 -10.293  -3.972  0.00  0.00    +0.038 A 
ATOM     14  C   UNL     1       4.922 -11.256  -4.245  0.00  0.00    +0.123 A 
ATOM     15  C   UNL     1       4.141 -11.764  -3.220  0.00  0.00    +0.038 A 
ATOM     16  C   UNL     1       4.322 -11.314  -1.926  0.00  0.00    +0.007 A 
ATOM     17  F   UNL     1       4.750 -11.699  -5.510  0.00  0.00    -0.205 F 
ENDBRANCH  10  11
BRANCH   8  18
ATOM     18  N   UNL     1       9.082  -9.500   0.657  0.00  0.00    -0.328 N 
ATOM     19  H   UNL     1       9.768  -8.815   0.697  0.00  0.00    +0.145 HD
ATOM     20  H   UNL     1       9.294 -10.413   0.908  0.00  0.00    +0.145 HD
ENDBRANCH   8  18
BRANCH   9  21
ATOM     21  C   UNL     1       7.222 -11.486   0.577  0.00  0.00    +0.101 C 
ATOM     22  N   UNL     1       7.500 -12.546   0.876  0.00  0.00    -0.191 NA
ENDBRANCH   9  21
BRANCH   1  23
ATOM     23  O   UNL     1       4.439  -4.316  -0.064  0.00  0.00    -0.422 OA
BRANCH  23  24
ATOM     24  C   UNL     1       4.621  -3.599  -1.192  0.00  0.00    +0.353 C 
ATOM     25  O   UNL     1       5.085  -4.131  -2.182  0.00  0.00    -0.244 OA
BRANCH  24  33
ATOM     26  C   UNL     1       3.560   2.337  -2.703  0.00  0.00    +0.001 A 
ATOM     27  C   UNL     1       3.069   2.624  -1.435  0.00  0.00    +0.001 A 
ATOM     28  C   UNL     1       3.019   1.626  -0.484  0.00  0.00    +0.016 A 
ATOM     29  C   UNL     1       3.457   0.358  -0.805  0.00  0.00    +0.022 A 
ATOM     30  C   UNL     1       3.961   0.037  -2.087  0.00  0.00    +0.008 A 
ATOM     31  C   UNL     1       3.994   1.094  -3.034  0.00  0.00    +0.010 A 
ATOM     32  C   UNL     1       4.367  -1.299  -2.259  0.00  0.00    +0.070 A 
ATOM     33  C   UNL     1       4.259  -2.179  -1.225  0.00  0.00    +0.116 A 
ATOM     34  S   UNL     1       3.569  -1.177   0.080  0.00  0.00    -0.080 S 
ATOM     35 CL   UNL     1       5.005  -1.825  -3.785  0.00  0.00    -0.082 Cl
ENDBRANCH  24  33
ENDBRANCH  23  24
ENDBRANCH   1  23
TORSDOF 6
