REMARK  Name = ZINC13608700
REMARK  10 active torsions:
REMARK  status: ('A' for Active; 'I' for Inactive)
REMARK    1  A    between atoms: C_1  and  C_2
REMARK    2  A    between atoms: C_2  and  C_3
REMARK    3  A    between atoms: C_2  and  C_4
REMARK    4  A    between atoms: C_4  and  C_5
REMARK    5  A    between atoms: C_8  and  C_26
REMARK    6  A    between atoms: C_9  and  N_11
REMARK    7  A    between atoms: N_14  and  C_17
REMARK    8  A    between atoms: C_17  and  C_18
REMARK    9  A    between atoms: C_29  and  C_32
REMARK   10  A    between atoms: C_29  and  C_33
REMARK                            x       y       z     vdW  Elec       q    Type
REMARK                         _______ _______ _______ _____ _____    ______ ____
ROOT
ATOM      1  C   UNL     1      -1.317  -2.037  -0.124  0.00  0.00    +0.049 A 
ATOM      2  C   UNL     1      -1.448  -2.606  -1.382  0.00  0.00    +0.004 A 
ATOM      3  C   UNL     1      -1.531  -3.978  -1.495  0.00  0.00    -0.017 A 
ATOM      4  C   UNL     1      -1.485  -4.752  -0.329  0.00  0.00    +0.095 A 
ATOM      5  C   UNL     1      -1.352  -4.101   0.909  0.00  0.00    +0.139 A 
ATOM      6  N   UNL     1      -1.268  -2.781   0.962  0.00  0.00    -0.235 NA
ATOM      7  C   UNL     1      -1.662  -4.653  -2.833  0.00  0.00    +0.071 C 
ATOM      8  C   UNL     1      -2.099  -3.632  -3.886  0.00  0.00    +0.068 C 
ATOM      9  O   UNL     1      -1.258  -2.478  -3.776  0.00  0.00    -0.369 OA
ATOM     10  C   UNL     1      -1.498  -1.714  -2.594  0.00  0.00    +0.197 C 
ATOM     11  C   UNL     1      -1.957  -4.240  -5.282  0.00  0.00    +0.041 C 
ATOM     12  C   UNL     1      -3.555  -3.232  -3.640  0.00  0.00    +0.041 C 
ENDROOT
BRANCH   5  13
ATOM     13  N   UNL     1      -1.304  -4.843   2.077  0.00  0.00    -0.312 N 
ATOM     14  C   UNL     1      -2.535  -5.176   2.810  0.00  0.00    +0.122 C 
ATOM     15  C   UNL     1      -2.349  -4.778   4.278  0.00  0.00    +0.104 C 
ATOM     16  N   UNL     1      -1.127  -5.402   4.801  0.00  0.00    -0.291 NA
ATOM     17  C   UNL     1       0.065  -4.915   4.093  0.00  0.00    +0.104 C 
ATOM     18  C   UNL     1      -0.022  -5.324   2.614  0.00  0.00    +0.122 C 
BRANCH  16  19
ATOM     19  C   UNL     1      -1.003  -5.186   6.249  0.00  0.00    +0.181 C 
BRANCH  19  20
ATOM     20  C   UNL     1       0.118  -6.037   6.789  0.00  0.00    +0.233 C 
ATOM     21  O   UNL     1       0.751  -6.752   6.042  0.00  0.00    -0.274 OA
ATOM     22  N   UNL     1       0.416  -6.003   8.103  0.00  0.00    -0.264 N 
ATOM     23  C   UNL     1       1.450  -6.787   8.602  0.00  0.00    +0.164 A 
ATOM     24  N   UNL     1       2.240  -7.610   7.947  0.00  0.00    -0.233 NA
ATOM     25  C   UNL     1       3.184  -8.290   8.571  0.00  0.00    +0.120 A 
ATOM     26  C   UNL     1       3.298  -8.101   9.909  0.00  0.00    +0.068 A 
ATOM     27  S   UNL     1       1.998  -6.909  10.188  0.00  0.00    -0.061 S 
ATOM     28  H   UNL     1      -0.090  -5.431   8.701  0.00  0.00    +0.157 HD
ENDBRANCH  19  20
ENDBRANCH  16  19
ENDBRANCH   5  13
BRANCH   4  29
ATOM     29  C   UNL     1      -1.573  -6.180  -0.398  0.00  0.00    +0.103 C 
ATOM     30  N   UNL     1      -1.643  -7.312  -0.452  0.00  0.00    -0.191 NA
ENDBRANCH   4  29
BRANCH   1  31
ATOM     31  C   UNL     1      -1.224  -0.538   0.002  0.00  0.00    +0.059 C 
BRANCH  31  33
ATOM     32  C   UNL     1       0.330   1.417  -0.073  0.00  0.00    +0.007 C 
ATOM     33  C   UNL     1       0.243  -0.110  -0.075  0.00  0.00    -0.011 C 
ATOM     34  C   UNL     1       1.001  -0.666   1.132  0.00  0.00    +0.007 C 
ENDBRANCH  31  33
ENDBRANCH   1  31
TORSDOF 6
