REMARK  Name = ZINC08452980
REMARK  4 active torsions:
REMARK  status: ('A' for Active; 'I' for Inactive)
REMARK    1  A    between atoms: C_1  and  C_2
REMARK    2  A    between atoms: C_5  and  C_8
REMARK    3  A    between atoms: C_8  and  S_9
REMARK    4  A    between atoms: S_9  and  C_10
REMARK                            x       y       z     vdW  Elec       q    Type
REMARK                         _______ _______ _______ _____ _____    ______ ____
ROOT
ATOM      1  C   UNL     1       4.527   3.943  -2.016  0.00  0.00    +0.213 A 
ATOM      2  N   UNL     1       3.254   3.555  -1.995  0.00  0.00    -0.184 NA
ATOM      3  C   UNL     1       2.398   4.190  -1.213  0.00  0.00    +0.248 A 
ATOM      4  C   UNL     1       2.867   5.261  -0.419  0.00  0.00    +0.156 A 
ATOM      5  N   UNL     1       4.146   5.598  -0.488  0.00  0.00    -0.141 NA
ATOM      6  N   UNL     1       4.946   4.954  -1.266  0.00  0.00    -0.122 NA
ATOM      7  C   UNL     1       1.931   5.977   0.471  0.00  0.00    +0.028 A 
ATOM      8  C   UNL     1       1.877   7.365   0.503  0.00  0.00    +0.012 A 
ATOM      9  C   UNL     1       0.997   7.998   1.359  0.00  0.00    +0.001 A 
ATOM     10  C   UNL     1       0.169   7.259   2.186  0.00  0.00    +0.002 A 
ATOM     11  C   UNL     1       0.208   5.876   2.161  0.00  0.00    +0.024 A 
ATOM     12  C   UNL     1       1.079   5.228   1.305  0.00  0.00    +0.040 A 
ATOM     13  N   UNL     1       1.124   3.833   1.228  0.00  0.00    -0.295 N 
ATOM     14  C   UNL     1       0.638   3.180   0.016  0.00  0.00    +0.283 C 
ATOM     15  O   UNL     1       1.092   3.836  -1.163  0.00  0.00    -0.437 OA
ATOM     16  C   UNL     1      -0.858   3.088   0.029  0.00  0.00    +0.046 A 
ATOM     17  C   UNL     1      -1.830   4.064   0.043  0.00  0.00    +0.031 A 
ATOM     18  C   UNL     1      -3.154   3.635   0.052  0.00  0.00    +0.042 A 
ATOM     19  C   UNL     1      -3.474   2.292   0.047  0.00  0.00    +0.022 A 
ATOM     20  C   UNL     1      -2.501   1.306   0.031  0.00  0.00    +0.025 A 
ATOM     21  C   UNL     1      -1.169   1.723   0.017  0.00  0.00    +0.043 A 
ATOM     22  N   UNL     1      -0.011   0.966   0.007  0.00  0.00    -0.280 N 
ATOM     23  C   UNL     1       1.097   1.734   0.001  0.00  0.00    +0.285 C 
ATOM     24  O   UNL     1       2.244   1.343  -0.015  0.00  0.00    -0.269 OA
ATOM     25 CL   UNL     1      -4.429   4.814   0.071  0.00  0.00    -0.084 Cl
ATOM     26  H   UNL     1       1.471   3.308   1.967  0.00  0.00    +0.151 HD
ATOM     27  H   UNL     1       0.002  -0.004   0.002  0.00  0.00    +0.155 HD
ENDROOT
BRANCH   1  28
ATOM     28  S   UNL     1       5.673   3.101  -3.057  0.00  0.00    -0.080 S 
BRANCH  28  29
ATOM     29  C   UNL     1       7.180   4.030  -2.680  0.00  0.00    +0.112 C 
BRANCH  29  34
ATOM     30  C   UNL     1      11.583   1.884  -5.746  0.00  0.00    +0.044 C 
ATOM     31  C   UNL     1      10.434   2.443  -4.946  0.00  0.00    -0.050 A 
ATOM     32  C   UNL     1       9.660   3.462  -5.469  0.00  0.00    +0.003 A 
ATOM     33  C   UNL     1       8.607   3.976  -4.735  0.00  0.00    +0.005 A 
ATOM     34  C   UNL     1       8.328   3.470  -3.479  0.00  0.00    -0.037 A 
ATOM     35  C   UNL     1       9.105   2.454  -2.955  0.00  0.00    +0.005 A 
ATOM     36  C   UNL     1      10.155   1.937  -3.691  0.00  0.00    +0.003 A 
ENDBRANCH  29  34
ENDBRANCH  28  29
ENDBRANCH   1  28
TORSDOF 3
