REMARK  Name = ZINC35484866
REMARK  13 active torsions:
REMARK  status: ('A' for Active; 'I' for Inactive)
REMARK    1  A    between atoms: C_1  and  C_2
REMARK    2  A    between atoms: C_2  and  C_3
REMARK    3  A    between atoms: C_3  and  C_4
REMARK    4  A    between atoms: C_4  and  O_5
REMARK    5  A    between atoms: O_5  and  C_6
REMARK    6  A    between atoms: C_10  and  C_12
REMARK    7  A    between atoms: C_14  and  C_15
REMARK    8  A    between atoms: C_15  and  C_16
REMARK    9  A    between atoms: C_17  and  C_26
REMARK   10  A    between atoms: C_22  and  C_25
REMARK   11  A    between atoms: N_32  and  C_33
REMARK   12  A    between atoms: C_33  and  C_34
REMARK   13  A    between atoms: C_34  and  C_35
REMARK                            x       y       z     vdW  Elec       q    Type
REMARK                         _______ _______ _______ _____ _____    ______ ____
ROOT
ATOM      1  C   UNL     1       2.936  -6.299  -5.066  0.00  0.00    +0.145 C 
ATOM      2  C   UNL     1       1.972  -6.851  -6.090  0.00  0.00    +0.078 C 
ATOM      3  C   UNL     1       2.332  -8.136  -6.314  0.00  0.00    +0.249 C 
ATOM      4  O   UNL     1       1.717  -8.985  -7.170  0.00  0.00    -0.282 OA
ATOM      5  C   UNL     1       3.503  -8.465  -5.475  0.00  0.00    +0.288 C 
ATOM      6  O   UNL     1       4.062  -9.543  -5.450  0.00  0.00    -0.266 OA
ATOM      7  N   UNL     1       3.860  -7.393  -4.744  0.00  0.00    -0.283 N 
ENDROOT
BRANCH   1  12
ATOM      8  C   UNL     1       1.361  -4.133  -2.401  0.00  0.00    +0.121 A 
ATOM      9  C   UNL     1       0.817  -5.090  -1.556  0.00  0.00    +0.045 A 
ATOM     10  C   UNL     1       0.961  -6.432  -1.850  0.00  0.00    +0.004 A 
ATOM     11  C   UNL     1       1.646  -6.822  -2.986  0.00  0.00    +0.006 A 
ATOM     12  C   UNL     1       2.189  -5.871  -3.829  0.00  0.00    -0.019 A 
ATOM     13  C   UNL     1       2.043  -4.527  -3.542  0.00  0.00    +0.051 A 
BRANCH   8  14
ATOM     14  O   UNL     1       1.220  -2.812  -2.113  0.00  0.00    -0.492 OA
BRANCH  14  15
ATOM     15  C   UNL     1       0.505  -2.480  -0.921  0.00  0.00    +0.229 C 
BRANCH  15  16
ATOM     16  C   UNL     1       0.450  -0.959  -0.767  0.00  0.00    +0.041 C 
BRANCH  16  18
ATOM     17  C   UNL     1      -0.370   0.918   0.664  0.00  0.00    +0.004 C 
ATOM     18  C   UNL     1      -0.315  -0.604   0.509  0.00  0.00    -0.000 C 
ENDBRANCH  16  18
ENDBRANCH  15  16
ENDBRANCH  14  15
ENDBRANCH   8  14
ENDBRANCH   1  12
BRANCH   2  19
ATOM     19  C   UNL     1       0.860  -6.132  -6.721  0.00  0.00    +0.215 C 
ATOM     20  O   UNL     1       0.743  -4.931  -6.560  0.00  0.00    -0.285 OA
BRANCH  19  21
ATOM     21  C   UNL     1      -0.116  -6.864  -7.551  0.00  0.00    +0.133 A 
ATOM     22  C   UNL     1      -1.118  -6.301  -8.310  0.00  0.00    +0.051 A 
ATOM     23  N   UNL     1      -1.783  -7.326  -8.913  0.00  0.00    -0.303 N 
ATOM     24  C   UNL     1      -2.850  -7.352  -9.766  0.00  0.00    +0.093 A 
ATOM     25  C   UNL     1      -3.330  -8.524 -10.231  0.00  0.00    +0.018 A 
ATOM     26  C   UNL     1      -2.737  -9.738  -9.843  0.00  0.00    +0.008 A 
ATOM     27  C   UNL     1      -1.675  -9.728  -8.995  0.00  0.00    -0.008 A 
ATOM     28  C   UNL     1      -1.182  -8.495  -8.516  0.00  0.00    +0.141 A 
ATOM     29  N   UNL     1      -0.181  -8.200  -7.703  0.00  0.00    -0.224 NA
ATOM     30  C   UNL     1      -1.029 -11.022  -8.571  0.00  0.00    +0.047 C 
ATOM     31  C   UNL     1      -1.421  -4.831  -8.448  0.00  0.00    +0.066 C 
ENDBRANCH  19  21
ENDBRANCH   2  19
BRANCH   7  32
ATOM     32  C   UNL     1       4.973  -7.329  -3.794  0.00  0.00    +0.114 C 
BRANCH  32  33
ATOM     33  C   UNL     1       4.482  -7.738  -2.404  0.00  0.00    +0.054 C 
BRANCH  33  34
ATOM     34  C   UNL     1       5.627  -7.673  -1.427  0.00  0.00    -0.046 A 
ATOM     35  C   UNL     1       6.426  -8.782  -1.223  0.00  0.00    +0.004 A 
ATOM     36  C   UNL     1       7.476  -8.722  -0.326  0.00  0.00    +0.000 A 
ATOM     37  C   UNL     1       7.728  -7.553   0.366  0.00  0.00    +0.000 A 
ATOM     38  C   UNL     1       6.930  -6.443   0.161  0.00  0.00    +0.000 A 
ATOM     39  C   UNL     1       5.882  -6.501  -0.738  0.00  0.00    +0.004 A 
ENDBRANCH  33  34
ENDBRANCH  32  33
ENDBRANCH   7  32
TORSDOF 10
