REMARK  Name = ZINC39657874
REMARK  5 active torsions:
REMARK  status: ('A' for Active; 'I' for Inactive)
REMARK    1  A    between atoms: C_3  and  C_32
REMARK    2  A    between atoms: C_6  and  C_7
REMARK    3  A    between atoms: C_11  and  C_20
REMARK    4  A    between atoms: N_22  and  C_23
REMARK    5  A    between atoms: C_26  and  C_29
REMARK                            x       y       z     vdW  Elec       q    Type
REMARK                         _______ _______ _______ _____ _____    ______ ____
ROOT
ATOM      1  C   UNL     1      -1.258  -0.761   0.013  0.00  0.00    +0.247 C 
ATOM      2  O   UNL     1      -2.316  -0.175   0.134  0.00  0.00    -0.270 OA
ATOM      3  N   UNL     1      -1.242  -2.104  -0.098  0.00  0.00    -0.296 N 
ATOM      4  C   UNL     1      -0.060  -2.999  -0.123  0.00  0.00    +0.121 C 
ATOM      5  C   UNL     1      -0.486  -4.231   0.708  0.00  0.00    +0.100 C 
ATOM      6  C   UNL     1      -2.022  -4.240   0.637  0.00  0.00    -0.004 C 
ATOM      7  C   UNL     1      -2.401  -3.021  -0.216  0.00  0.00    +0.115 C 
ATOM      8  C   UNL     1      -2.617  -4.103   2.035  0.00  0.00    -0.010 C 
ATOM      9  C   UNL     1      -4.144  -4.172   1.945  0.00  0.00    -0.082 C 
ATOM     10  N   UNL     1      -4.543  -5.451   1.346  0.00  0.00    +0.379 N 
ATOM     11  C   UNL     1      -4.045  -5.535  -0.033  0.00  0.00    -0.082 C 
ATOM     12  C   UNL     1      -2.513  -5.523  -0.026  0.00  0.00    -0.010 C 
ATOM     13  H   UNL     1      -4.157  -6.210   1.888  0.00  0.00    -0.086 HD
ATOM     14  H   UNL     1      -5.549  -5.520   1.343  0.00  0.00    -0.086 HD
ENDROOT
BRANCH   1  20
ATOM     15  C   UNL     1       1.137  -0.539  -0.637  0.00  0.00    +0.013 A 
ATOM     16  C   UNL     1       2.317   0.175  -0.656  0.00  0.00    +0.013 A 
ATOM     17  C   UNL     1       2.386   1.421  -0.058  0.00  0.00    +0.055 A 
ATOM     18  C   UNL     1       1.273   1.958   0.564  0.00  0.00    +0.013 A 
ATOM     19  C   UNL     1       0.086   1.255   0.590  0.00  0.00    +0.013 A 
ATOM     20  C   UNL     1       0.010  -0.002  -0.011  0.00  0.00    +0.037 A 
BRANCH  17  21
ATOM     21  C   UNL     1       3.678   2.195  -0.083  0.00  0.00    +0.417 C 
ATOM     22  F   UNL     1       3.718   3.000  -1.227  0.00  0.00    -0.166 F 
ATOM     23  F   UNL     1       3.762   3.001   1.057  0.00  0.00    -0.166 F 
ATOM     24  F   UNL     1       4.756   1.303  -0.104  0.00  0.00    -0.166 F 
ENDBRANCH  17  21
ENDBRANCH   1  20
BRANCH   5  25
ATOM     25  C   UNL     1       0.077  -5.491   0.104  0.00  0.00    +0.218 C 
ATOM     26  O   UNL     1       0.347  -5.529  -1.078  0.00  0.00    -0.275 OA
ATOM     27  N   UNL     1       0.280  -6.577   0.877  0.00  0.00    -0.312 N 
ATOM     28  H   UNL     1       0.064  -6.546   1.822  0.00  0.00    +0.149 HD
BRANCH  27  29
ATOM     29  C   UNL     1       0.828  -7.802   0.290  0.00  0.00    +0.073 C 
ATOM     30  C   UNL     1      -0.308  -8.628  -0.317  0.00  0.00    +0.023 C 
ATOM     31  C   UNL     1      -1.314  -8.992   0.777  0.00  0.00    +0.016 C 
ATOM     32  C   UNL     1      -0.613  -9.809   1.864  0.00  0.00    +0.102 C 
ATOM     33  C   UNL     1       0.523  -8.983   2.470  0.00  0.00    +0.016 C 
ATOM     34  C   UNL     1       1.529  -8.619   1.377  0.00  0.00    +0.023 C 
BRANCH  32  35
ATOM     35  C   UNL     1      -1.604 -10.168   2.941  0.00  0.00    +0.359 C 
ATOM     36  O   UNL     1      -1.577 -11.275   3.451  0.00  0.00    -0.246 OA
ATOM     37  O   UNL     1      -2.433  -9.350   3.303  0.00  0.00    -0.246 OA
ENDBRANCH  32  35
ENDBRANCH  27  29
ENDBRANCH   5  25
TORSDOF 5
