REMARK  Name = ZINC38119324
REMARK  5 active torsions:
REMARK  status: ('A' for Active; 'I' for Inactive)
REMARK    1  A    between atoms: C_3  and  N_8
REMARK    2  A    between atoms: N_8  and  CA_9
REMARK    3  A    between atoms: CA_9  and  C_11
REMARK    4  A    between atoms: CA_9  and  C_13
REMARK    5  A    between atoms: C_11  and  O_12
REMARK                            x       y       z     vdW  Elec       q    Type
REMARK                         _______ _______ _______ _____ _____    ______ ____
ROOT
ATOM      1  CA  UNL     1       4.860   1.411  -0.037  0.00  0.00    +0.126 C 
ENDROOT
BRANCH   1   2
ATOM      2  C   UNL     1       5.933   2.286   0.557  0.00  0.00    -0.020 A 
ATOM      3  C   UNL     1       6.894   1.735   1.384  0.00  0.00    +0.055 A 
ATOM      4  C   UNL     1       7.882   2.537   1.932  0.00  0.00    +0.168 A 
ATOM      5  C   UNL     1       7.904   3.901   1.647  0.00  0.00    +0.184 A 
ATOM      6  C   UNL     1       6.937   4.447   0.818  0.00  0.00    +0.087 A 
ATOM      7  C   UNL     1       5.957   3.638   0.270  0.00  0.00    +0.029 A 
ATOM      8 CL   UNL     1       6.960   6.146   0.460  0.00  0.00    -0.080 Cl
ATOM      9  O   UNL     1       8.962   4.465   2.299  0.00  0.00    -0.451 OA
ATOM     10  C   UNL     1       9.345   3.513   3.309  0.00  0.00    +0.466 C 
ATOM     11  O   UNL     1       8.926   2.248   2.761  0.00  0.00    -0.453 OA
ENDBRANCH   1   2
BRANCH   1  12
ATOM     12  N   UNL     1       3.582   2.126  -0.021  0.00  0.00    -0.335 N 
ATOM     13  H   UNL     1       3.568   3.095  -0.016  0.00  0.00    +0.147 HD
BRANCH  12  16
ATOM     14  C   UNL     1      -0.017   1.378   0.010  0.00  0.00    +0.005 A 
ATOM     15  C   UNL     1       1.169   2.087   0.002  0.00  0.00    +0.023 A 
ATOM     16  C   UNL     1       2.382   1.411  -0.013  0.00  0.00    +0.030 A 
ATOM     17  C   UNL     1       2.400   0.022  -0.021  0.00  0.00    +0.061 A 
ATOM     18  C   UNL     1       1.210  -0.683  -0.013  0.00  0.00    +0.125 A 
ATOM     19  C   UNL     1       0.002  -0.004   0.002  0.00  0.00    +0.038 A 
ATOM     20  F   UNL     1       1.225  -2.034  -0.021  0.00  0.00    -0.205 F 
ENDBRANCH  12  16
ENDBRANCH   1  12
BRANCH   1  21
ATOM     21  C   UNL     1       5.230   1.059  -1.480  0.00  0.00    +0.182 C 
BRANCH  21  22
ATOM     22  O   UNL     1       5.459   2.261  -2.219  0.00  0.00    -0.393 OA
ATOM     23  H   UNL     1       5.699   2.114  -3.144  0.00  0.00    +0.209 HD
ENDBRANCH  21  22
ENDBRANCH   1  21
TORSDOF 5
