REMARK  Name = ZINC16872851
REMARK  6 active torsions:
REMARK  status: ('A' for Active; 'I' for Inactive)
REMARK    1  A    between atoms: C_1  and  C_2
REMARK    2  A    between atoms: C_2  and  C_3
REMARK    3  A    between atoms: C_6  and  C_9
REMARK    4  A    between atoms: N_10  and  N_11
REMARK    5  A    between atoms: N_14  and  C_17
REMARK    6  A    between atoms: C_20  and  C_23
REMARK                            x       y       z     vdW  Elec       q    Type
REMARK                         _______ _______ _______ _____ _____    ______ ____
ROOT
ATOM      1  N   UNL     1       1.379   6.026  -1.064  0.00  0.00    -0.253 N 
ATOM      2  C   UNL     1       2.085   5.345   0.032  0.00  0.00    +0.144 C 
ATOM      3  C   UNL     1       2.158   3.848  -0.292  0.00  0.00    +0.125 C 
ATOM      4  N   UNL     1       0.806   3.344  -0.568  0.00  0.00    -0.327 N 
ATOM      5  C   UNL     1       0.228   3.990  -1.754  0.00  0.00    +0.125 C 
ATOM      6  C   UNL     1       0.076   5.492  -1.490  0.00  0.00    +0.144 C 
ENDROOT
BRANCH   4   7
ATOM      7  C   UNL     1       0.809   1.954  -0.706  0.00  0.00    +0.030 A 
ATOM      8  C   UNL     1      -0.376   1.278  -0.971  0.00  0.00    +0.023 A 
ATOM      9  C   UNL     1      -0.369  -0.096  -1.108  0.00  0.00    +0.005 A 
ATOM     10  C   UNL     1       0.815  -0.799  -0.981  0.00  0.00    -0.050 A 
ATOM     11  C   UNL     1       1.996  -0.130  -0.717  0.00  0.00    +0.005 A 
ATOM     12  C   UNL     1       1.996   1.244  -0.579  0.00  0.00    +0.023 A 
ATOM     13  C   UNL     1       0.818  -2.299  -1.130  0.00  0.00    +0.044 C 
ENDBRANCH   4   7
BRANCH   1  15
ATOM     14  C   UNL     1       1.327   8.298  -1.610  0.00  0.00    +0.138 C 
ATOM     15  N   UNL     1       1.932   7.153  -1.685  0.00  0.00    -0.192 NA
BRANCH  14  19
ATOM     16  C   UNL     1      -1.852   8.841   1.150  0.00  0.00    -0.048 A 
ATOM     17  C   UNL     1      -1.091   7.686   1.195  0.00  0.00    +0.004 A 
ATOM     18  C   UNL     1      -0.056   7.503   0.301  0.00  0.00    +0.010 A 
ATOM     19  C   UNL     1       0.222   8.486  -0.651  0.00  0.00    -0.005 A 
ATOM     20  C   UNL     1      -0.547   9.652  -0.688  0.00  0.00    +0.010 A 
ATOM     21  C   UNL     1      -1.582   9.819   0.209  0.00  0.00    +0.004 A 
BRANCH  16  23
ATOM     22  C   UNL     1      -2.453   9.735   3.383  0.00  0.00    +0.009 C 
ATOM     23  C   UNL     1      -2.980   9.034   2.130  0.00  0.00    +0.032 C 
ENDBRANCH  16  23
ENDBRANCH  14  19
ENDBRANCH   1  15
TORSDOF 4
