REMARK  Name = ZINC06300759
REMARK  11 active torsions:
REMARK  status: ('A' for Active; 'I' for Inactive)
REMARK    1  A    between atoms: C_1  and  C_2
REMARK    2  A    between atoms: C_4  and  C_41
REMARK    3  A    between atoms: C_9  and  C_14
REMARK    4  A    between atoms: C_14  and  C_16
REMARK    5  A    between atoms: C_14  and  N_71
REMARK    6  A    between atoms: N_20  and  C_21
REMARK    7  A    between atoms: C_21  and  C_22
REMARK    8  A    between atoms: C_28  and  C_29
REMARK    9  A    between atoms: C_28  and  N_71
REMARK   10  A    between atoms: C_35  and  C_36
REMARK   11  A    between atoms: C_35  and  N_71
REMARK                            x       y       z     vdW  Elec       q    Type
REMARK                         _______ _______ _______ _____ _____    ______ ____
ROOT
ATOM      1  C   UNL     1       2.148   1.673  -0.003  0.00  0.00    +0.040 C 
ENDROOT
BRANCH   1  10
ATOM      2  C   UNL     1       3.298  -0.102  -7.154  0.00  0.00    +0.044 C 
ATOM      3  C   UNL     1       2.978   0.912  -6.087  0.00  0.00    -0.050 A 
ATOM      4  C   UNL     1       2.756   2.236  -6.441  0.00  0.00    +0.008 A 
ATOM      5  C   UNL     1       2.462   3.181  -5.482  0.00  0.00    -0.026 A 
ATOM      6  C   UNL     1       2.386   2.807  -4.144  0.00  0.00    +0.052 A 
ATOM      7  C   UNL     1       2.612   1.464  -3.789  0.00  0.00    -0.001 A 
ATOM      8  C   UNL     1       2.910   0.522  -4.780  0.00  0.00    +0.013 A 
ATOM      9  C   UNL     1       2.531   1.079  -2.379  0.00  0.00    +0.017 A 
ATOM     10  C   UNL     1       2.240   2.035  -1.463  0.00  0.00    +0.011 A 
ATOM     11  C   UNL     1       2.016   3.367  -1.872  0.00  0.00    +0.251 A 
ATOM     12  O   UNL     1       1.751   4.210  -1.032  0.00  0.00    -0.268 OA
ATOM     13  N   UNL     1       2.095   3.731  -3.164  0.00  0.00    -0.322 N 
ATOM     14  H   UNL     1       1.939   4.656  -3.410  0.00  0.00    +0.169 HD
ATOM     15  C   UNL     1       2.222   4.615  -5.880  0.00  0.00    +0.046 C 
ENDBRANCH   1  10
BRANCH   1  16
ATOM     16  C   UNL     1       3.029   2.595   0.800  0.00  0.00    +0.143 A 
ATOM     17  N   UNL     1       2.724   3.796   1.225  0.00  0.00    -0.115 NA
ATOM     18  N   UNL     1       3.736   4.258   1.874  0.00  0.00    -0.023 NA
ATOM     19  N   UNL     1       4.683   3.386   1.867  0.00  0.00    -0.044 NA
ATOM     20  N   UNL     1       4.285   2.346   1.215  0.00  0.00    -0.228 N 
BRANCH  20  21
ATOM     21  C   UNL     1       5.056   1.125   0.971  0.00  0.00    +0.178 C 
BRANCH  21  22
ATOM     22  C   UNL     1       5.841   1.269  -0.334  0.00  0.00    +0.140 C 
ATOM     23  C   UNL     1       6.566  -0.055  -0.659  0.00  0.00    +0.035 C 
ATOM     24  C   UNL     1       7.928   0.442  -1.214  0.00  0.00    +0.031 C 
ATOM     25  C   UNL     1       8.148   1.715  -0.358  0.00  0.00    +0.160 C 
ATOM     26  O   UNL     1       6.840   2.285  -0.191  0.00  0.00    -0.375 OA
ENDBRANCH  21  22
ENDBRANCH  20  21
ENDBRANCH   1  16
BRANCH   1  27
ATOM     27  N   UNL     1       0.751   1.837   0.452  0.00  0.00    +0.397 N 
ATOM     28  H   UNL     1       0.549   2.839   0.554  0.00  0.00    -0.079 HD
BRANCH  27  29
ATOM     29  C   UNL     1      -0.176   1.259  -0.544  0.00  0.00    -0.041 C 
BRANCH  29  30
ATOM     30  C   UNL     1      -0.634   2.360  -1.466  0.00  0.00    -0.064 A 
ATOM     31  C   UNL     1      -1.225   3.496  -0.945  0.00  0.00    +0.002 A 
ATOM     32  C   UNL     1      -1.641   4.508  -1.790  0.00  0.00    +0.000 A 
ATOM     33  C   UNL     1      -1.477   4.379  -3.157  0.00  0.00    +0.000 A 
ATOM     34  C   UNL     1      -0.891   3.240  -3.678  0.00  0.00    +0.000 A 
ATOM     35  C   UNL     1      -0.470   2.231  -2.832  0.00  0.00    +0.002 A 
ENDBRANCH  29  30
ENDBRANCH  27  29
BRANCH  27  36
ATOM     36  C   UNL     1       0.564   1.174   1.760  0.00  0.00    -0.001 C 
BRANCH  36  37
ATOM     37  C   UNL     1       1.354   1.923   2.802  0.00  0.00    +0.089 A 
ATOM     38  C   UNL     1       0.910   2.964   3.529  0.00  0.00    +0.042 A 
ATOM     39  C   UNL     1       1.971   3.354   4.378  0.00  0.00    +0.041 A 
ATOM     40  C   UNL     1       3.003   2.533   4.113  0.00  0.00    +0.195 A 
ATOM     41  O   UNL     1       2.624   1.669   3.158  0.00  0.00    -0.470 OA
ENDBRANCH  36  37
ENDBRANCH  27  36
ENDBRANCH   1  27
TORSDOF 9
