REMARK  Name = ZINC08780692
REMARK  5 active torsions:
REMARK  status: ('A' for Active; 'I' for Inactive)
REMARK    1  A    between atoms: C_14  and  C_15
REMARK    2  A    between atoms: N_16  and  N_17
REMARK    3  A    between atoms: C_18  and  C_20
REMARK    4  A    between atoms: C_25  and  C_26
REMARK    5  A    between atoms: C_25  and  N_59
REMARK                            x       y       z     vdW  Elec       q    Type
REMARK                         _______ _______ _______ _____ _____    ______ ____
ROOT
ATOM      1  N   UNL     1       2.864   5.207   6.170  0.00  0.00    -0.207 N 
ATOM      2  C   UNL     1       2.057   5.704   5.211  0.00  0.00    +0.235 C 
ATOM      3  O   UNL     1       1.188   6.499   5.502  0.00  0.00    -0.274 OA
ATOM      4  H   UNL     1       3.558   4.572   5.937  0.00  0.00    +0.177 HD
ENDROOT
BRANCH   2   5
ATOM      5  C   UNL     1       2.234   5.272   3.778  0.00  0.00    +0.073 C 
ATOM      6  C   UNL     1       1.198   5.978   2.899  0.00  0.00    -0.006 C 
ATOM      7  C   UNL     1       1.343   5.489   1.456  0.00  0.00    -0.078 C 
ATOM      8  C   UNL     1       2.155   3.333   2.207  0.00  0.00    -0.078 C 
ATOM      9  C   UNL     1       2.034   3.757   3.672  0.00  0.00    -0.006 C 
ATOM     10  N   UNL     1       1.116   4.029   1.419  0.00  0.00    +0.382 N 
ATOM     11  H   UNL     1       0.196   3.825   1.827  0.00  0.00    -0.081 HD
BRANCH  10  12
ATOM     12  C   UNL     1       1.138   3.551   0.021  0.00  0.00    -0.043 C 
BRANCH  12  13
ATOM     13  C   UNL     1       1.177   2.044   0.015  0.00  0.00    -0.064 A 
ATOM     14  C   UNL     1      -0.001   1.322   0.028  0.00  0.00    +0.003 A 
ATOM     15  C   UNL     1       0.035  -0.060   0.023  0.00  0.00    +0.020 A 
ATOM     16  C   UNL     1       1.250  -0.720   0.004  0.00  0.00    +0.041 A 
ATOM     17  C   UNL     1       2.429   0.004  -0.009  0.00  0.00    +0.020 A 
ATOM     18  C   UNL     1       2.392   1.385  -0.003  0.00  0.00    +0.003 A 
ATOM     19 CL   UNL     1       1.296  -2.455  -0.002  0.00  0.00    -0.084 Cl
ENDBRANCH  12  13
ENDBRANCH  10  12
ENDBRANCH   2   5
BRANCH   1  21
ATOM     20  C   UNL     1       3.478   5.130   8.427  0.00  0.00    +0.139 C 
ATOM     21  N   UNL     1       2.699   5.609   7.502  0.00  0.00    -0.188 NA
BRANCH  20  35
ATOM     22  C   UNL     1       5.543   3.778  12.897  0.00  0.00    +0.001 A 
ATOM     23  C   UNL     1       5.710   3.375  11.573  0.00  0.00    +0.001 A 
ATOM     24  C   UNL     1       4.996   3.935  10.561  0.00  0.00    +0.009 A 
ATOM     25  C   UNL     1       4.059   4.943  10.847  0.00  0.00    -0.009 A 
ATOM     26  C   UNL     1       3.885   5.373  12.236  0.00  0.00    -0.017 A 
ATOM     27  C   UNL     1       4.658   4.750  13.240  0.00  0.00    +0.008 A 
ATOM     28  C   UNL     1       2.968   6.375  12.555  0.00  0.00    +0.017 A 
ATOM     29  C   UNL     1       2.214   6.976  11.546  0.00  0.00    -0.017 A 
ATOM     30  C   UNL     1       1.281   7.992  11.844  0.00  0.00    +0.008 A 
ATOM     31  C   UNL     1       0.563   8.558  10.839  0.00  0.00    +0.001 A 
ATOM     32  C   UNL     1       0.724   8.162   9.513  0.00  0.00    +0.001 A 
ATOM     33  C   UNL     1       1.606   7.189   9.160  0.00  0.00    +0.009 A 
ATOM     34  C   UNL     1       2.381   6.562  10.151  0.00  0.00    -0.009 A 
ATOM     35  C   UNL     1       3.306   5.550   9.821  0.00  0.00    +0.010 A 
ENDBRANCH  20  35
ENDBRANCH   1  21
TORSDOF 5
