REMARK  Name = ZINC24950864
REMARK  6 active torsions:
REMARK  status: ('A' for Active; 'I' for Inactive)
REMARK    1  A    between atoms: C_1  and  C_2
REMARK    2  A    between atoms: C_4  and  C_32
REMARK    3  A    between atoms: C_9  and  S_11
REMARK    4  A    between atoms: S_11  and  C_12
REMARK    5  A    between atoms: C_12  and  C_13
REMARK    6  A    between atoms: C_26  and  C_28
REMARK                            x       y       z     vdW  Elec       q    Type
REMARK                         _______ _______ _______ _____ _____    ______ ____
ROOT
ATOM      1  C   UNL     1       1.701   3.079   0.784  0.00  0.00    +0.231 C 
ATOM      2  O   UNL     1       0.876   3.597   1.508  0.00  0.00    -0.274 OA
ATOM      3  N   UNL     1       1.351   2.041   0.000  0.00  0.00    -0.257 N 
ATOM      4  C   UNL     1       2.292   1.433  -0.842  0.00  0.00    +0.058 A 
ATOM      5  C   UNL     1       2.730   2.074  -1.989  0.00  0.00    +0.025 A 
ATOM      6  C   UNL     1       3.628   1.443  -2.830  0.00  0.00    +0.002 A 
ATOM      7  C   UNL     1       4.092   0.175  -2.529  0.00  0.00    +0.002 A 
ATOM      8  C   UNL     1       3.669  -0.467  -1.379  0.00  0.00    +0.025 A 
ATOM      9  C   UNL     1       2.777   0.163  -0.528  0.00  0.00    +0.055 A 
ATOM     10  N   UNL     1       2.354  -0.453   0.655  0.00  0.00    -0.284 N 
ATOM     11  C   UNL     1       1.040  -0.514   0.967  0.00  0.00    +0.219 C 
ATOM     12  O   UNL     1       0.694  -0.981   2.031  0.00  0.00    -0.275 OA
ATOM     13  C   UNL     1       0.002  -0.004   0.002  0.00  0.00    +0.128 C 
ATOM     14  C   UNL     1      -0.019   1.526   0.010  0.00  0.00    +0.194 C 
ATOM     15  H   UNL     1       3.093  -0.894   1.341  0.00  0.00    +0.155 HD
ENDROOT
BRANCH  14  16
ATOM     16  C   UNL     1      -0.761   2.031  -1.228  0.00  0.00    +0.409 C 
ATOM     17  F   UNL     1      -2.074   1.546  -1.215  0.00  0.00    -0.169 F 
ATOM     18  F   UNL     1      -0.781   3.430  -1.222  0.00  0.00    -0.169 F 
ATOM     19  F   UNL     1      -0.108   1.579  -2.380  0.00  0.00    -0.169 F 
ENDBRANCH  14  16
BRANCH   1  20
ATOM     20  C   UNL     1       3.115   3.598   0.762  0.00  0.00    +0.173 C 
BRANCH  20  21
ATOM     21  S   UNL     1       3.268   4.988   1.917  0.00  0.00    -0.075 S 
BRANCH  21  30
ATOM     22  C   UNL     1      10.586   5.830   0.202  0.00  0.00    +0.066 C 
ATOM     23  C   UNL     1       9.252   6.074   0.859  0.00  0.00    +0.044 A 
ATOM     24  C   UNL     1       9.115   7.103   1.798  0.00  0.00    +0.046 A 
ATOM     25  C   UNL     1       7.907   7.311   2.382  0.00  0.00    +0.045 A 
ATOM     26  N   UNL     1       6.862   6.513   2.040  0.00  0.00    -0.200 N 
ATOM     27  C   UNL     1       7.029   5.517   1.120  0.00  0.00    +0.254 A 
ATOM     28  N   UNL     1       8.222   5.319   0.549  0.00  0.00    -0.216 NA
ATOM     29  N   UNL     1       5.857   4.905   0.981  0.00  0.00    -0.183 NA
ATOM     30  C   UNL     1       4.956   5.476   1.777  0.00  0.00    +0.211 A 
ATOM     31  N   UNL     1       5.520   6.465   2.440  0.00  0.00    -0.137 NA
ATOM     32  C   UNL     1       7.728   8.412   3.396  0.00  0.00    +0.066 C 
ENDBRANCH  21  30
ENDBRANCH  20  21
ENDBRANCH   1  20
TORSDOF 4
