REMARK  Name = ZINC13063697
REMARK  14 active torsions:
REMARK  status: ('A' for Active; 'I' for Inactive)
REMARK    1  A    between atoms: C_1  and  C_2
REMARK    2  A    between atoms: C_2  and  C_3
REMARK    3  A    between atoms: C_10  and  C_15
REMARK    4  A    between atoms: C_15  and  N_73
REMARK    5  A    between atoms: C_16  and  C_17
REMARK    6  A    between atoms: C_16  and  N_73
REMARK    7  A    between atoms: C_22  and  O_23
REMARK    8  A    between atoms: O_23  and  C_24
REMARK    9  A    between atoms: C_25  and  C_27
REMARK   10  A    between atoms: C_25  and  C_29
REMARK   11  A    between atoms: C_25  and  N_73
REMARK   12  A    between atoms: C_27  and  C_28
REMARK   13  A    between atoms: N_33  and  C_34
REMARK   14  A    between atoms: C_34  and  C_35
REMARK                            x       y       z     vdW  Elec       q    Type
REMARK                         _______ _______ _______ _____ _____    ______ ____
ROOT
ATOM      1  N   UNL     1       6.136   2.105  -2.155  0.00  0.00    +0.392 N 
ATOM      2  H   UNL     1       6.832   2.776  -1.809  0.00  0.00    -0.080 HD
ENDROOT
BRANCH   1   3
ATOM      3  C   UNL     1       6.601   0.735  -1.855  0.00  0.00    -0.036 C 
BRANCH   3  11
ATOM      4  C   UNL     1      12.747   0.815  -1.141  0.00  0.00    -0.047 A 
ATOM      5  C   UNL     1      13.060   0.502  -2.456  0.00  0.00    +0.005 A 
ATOM      6  C   UNL     1      12.065   0.296  -3.387  0.00  0.00    +0.026 A 
ATOM      7  C   UNL     1      10.731   0.404  -3.006  0.00  0.00    +0.049 A 
ATOM      8  C   UNL     1      10.417   0.722  -1.672  0.00  0.00    -0.001 A 
ATOM      9  C   UNL     1      11.444   0.926  -0.744  0.00  0.00    +0.013 A 
ATOM     10  C   UNL     1       9.011   0.839  -1.282  0.00  0.00    +0.017 A 
ATOM     11  C   UNL     1       8.058   0.626  -2.224  0.00  0.00    +0.001 A 
ATOM     12  C   UNL     1       8.427   0.310  -3.549  0.00  0.00    +0.251 A 
ATOM     13  O   UNL     1       7.554   0.127  -4.380  0.00  0.00    -0.268 OA
ATOM     14  N   UNL     1       9.716   0.205  -3.917  0.00  0.00    -0.322 N 
ATOM     15  H   UNL     1       9.934  -0.015  -4.836  0.00  0.00    +0.169 HD
BRANCH   4  17
ATOM     16  C   UNL     1      14.208  -0.295   0.527  0.00  0.00    +0.009 C 
ATOM     17  C   UNL     1      13.853   1.035  -0.141  0.00  0.00    +0.032 C 
ENDBRANCH   4  17
ENDBRANCH   3  11
ENDBRANCH   1   3
BRANCH   1  18
ATOM     18  C   UNL     1       5.984   2.279  -3.614  0.00  0.00    -0.038 C 
BRANCH  18  19
ATOM     19  C   UNL     1       5.697   3.730  -3.904  0.00  0.00    -0.022 A 
ATOM     20  C   UNL     1       4.435   4.117  -4.312  0.00  0.00    +0.005 A 
ATOM     21  C   UNL     1       4.169   5.448  -4.573  0.00  0.00    +0.000 A 
ATOM     22  C   UNL     1       5.168   6.394  -4.438  0.00  0.00    +0.004 A 
ATOM     23  C   UNL     1       6.433   6.012  -4.035  0.00  0.00    +0.046 A 
ATOM     24  C   UNL     1       6.701   4.677  -3.767  0.00  0.00    +0.121 A 
BRANCH  24  25
ATOM     25  O   UNL     1       7.944   4.299  -3.372  0.00  0.00    -0.495 OA
ATOM     26  C   UNL     1       8.929   5.328  -3.252  0.00  0.00    +0.277 C 
ENDBRANCH  24  25
ENDBRANCH  18  19
ENDBRANCH   1  18
BRANCH   1  27
ATOM     27  C   UNL     1       4.847   2.361  -1.478  0.00  0.00    +0.003 C 
BRANCH  27  28
ATOM     28  C   UNL     1       3.848   1.286  -1.823  0.00  0.00    +0.138 A 
ATOM     29  N   UNL     1       4.048  -0.009  -1.791  0.00  0.00    -0.115 NA
ATOM     30  N   UNL     1       2.959  -0.589  -2.158  0.00  0.00    -0.023 NA
ATOM     31  N   UNL     1       2.066   0.301  -2.418  0.00  0.00    -0.044 NA
ATOM     32  N   UNL     1       2.575   1.470  -2.221  0.00  0.00    -0.226 N 
BRANCH  32  33
ATOM     33  C   UNL     1       1.897   2.756  -2.401  0.00  0.00    +0.182 C 
BRANCH  33  34
ATOM     34  C   UNL     1       1.230   3.158  -1.111  0.00  0.00    -0.026 A 
ATOM     35  C   UNL     1       1.921   3.915  -0.182  0.00  0.00    +0.005 A 
ATOM     36  C   UNL     1       1.309   4.283   1.001  0.00  0.00    +0.000 A 
ATOM     37  C   UNL     1       0.009   3.890   1.259  0.00  0.00    +0.000 A 
ATOM     38  C   UNL     1      -0.683   3.138   0.329  0.00  0.00    +0.000 A 
ATOM     39  C   UNL     1      -0.072   2.770  -0.855  0.00  0.00    +0.005 A 
ENDBRANCH  33  34
ENDBRANCH  32  33
ENDBRANCH  27  28
BRANCH  27  40
ATOM     40  C   UNL     1       5.077   2.377   0.034  0.00  0.00    -0.011 C 
ATOM     41  C   UNL     1       6.016   3.529   0.395  0.00  0.00    +0.002 C 
ENDBRANCH  27  40
ENDBRANCH   1  27
TORSDOF 11
