REMARK  Name = ZINC15226801
REMARK  5 active torsions:
REMARK  status: ('A' for Active; 'I' for Inactive)
REMARK    1  A    between atoms: C_1  and  C_2
REMARK    2  A    between atoms: C_5  and  C_8
REMARK    3  A    between atoms: C_13  and  C_16
REMARK    4  A    between atoms: C_23  and  C_25
REMARK    5  A    between atoms: C_23  and  O_29
REMARK                            x       y       z     vdW  Elec       q    Type
REMARK                         _______ _______ _______ _____ _____    ______ ____
ROOT
ATOM      1  C   UNL     1       0.059  -4.245  -0.021  0.00  0.00    +0.071 C 
ATOM      2  N   UNL     1       0.078  -4.859   1.119  0.00  0.00    -0.172 NA
ATOM      3  N   UNL     1       0.062  -6.252   1.197  0.00  0.00    -0.145 N 
ATOM      4  C   UNL     1       0.131  -7.007   0.049  0.00  0.00    +0.171 C 
ATOM      5  N   UNL     1       0.601  -8.210   0.046  0.00  0.00    -0.230 NA
ATOM      6  C   UNL     1       1.139  -8.841   1.126  0.00  0.00    +0.081 C 
ATOM      7  C   UNL     1       0.944  -8.422   2.394  0.00  0.00    +0.091 C 
ATOM      8  S   UNL     1      -0.090  -7.024   2.693  0.00  0.00    -0.003 S 
ATOM      9  C   UNL     1      -0.356  -6.398  -1.243  0.00  0.00    +0.224 C 
ATOM     10  C   UNL     1       0.050  -4.939  -1.345  0.00  0.00    +0.109 C 
ENDROOT
BRANCH   1  15
ATOM     11  C   UNL     1      -0.018   1.503   0.010  0.00  0.00    +0.044 C 
ATOM     12  C   UNL     1       0.002  -0.004   0.002  0.00  0.00    -0.050 A 
ATOM     13  C   UNL     1      -0.006  -0.686  -1.203  0.00  0.00    +0.004 A 
ATOM     14  C   UNL     1       0.019  -2.064  -1.219  0.00  0.00    +0.010 A 
ATOM     15  C   UNL     1       0.040  -2.774  -0.013  0.00  0.00    -0.002 A 
ATOM     16  C   UNL     1       0.042  -2.077   1.200  0.00  0.00    +0.010 A 
ATOM     17  C   UNL     1       0.023  -0.699   1.199  0.00  0.00    +0.004 A 
ENDBRANCH   1  15
BRANCH   6  18
ATOM     18  C   UNL     1       1.975 -10.041   0.899  0.00  0.00    +0.001 A 
ATOM     19  C   UNL     1       2.194 -10.507  -0.399  0.00  0.00    +0.013 A 
ATOM     20  C   UNL     1       2.978 -11.623  -0.605  0.00  0.00    +0.039 A 
ATOM     21  C   UNL     1       3.539 -12.287   0.474  0.00  0.00    +0.123 A 
ATOM     22  C   UNL     1       3.321 -11.832   1.765  0.00  0.00    +0.039 A 
ATOM     23  C   UNL     1       2.542 -10.714   1.982  0.00  0.00    +0.013 A 
ATOM     24  F   UNL     1       4.302 -13.382   0.267  0.00  0.00    -0.205 F 
ENDBRANCH   6  18
BRANCH   9  25
ATOM     25  C   UNL     1      -1.882  -6.495  -1.301  0.00  0.00    +0.426 C 
ATOM     26  F   UNL     1      -2.435  -5.803  -0.218  0.00  0.00    -0.167 F 
ATOM     27  F   UNL     1      -2.340  -5.932  -2.497  0.00  0.00    -0.167 F 
ATOM     28  F   UNL     1      -2.267  -7.839  -1.241  0.00  0.00    -0.167 F 
ENDBRANCH   9  25
BRANCH   9  29
ATOM     29  O   UNL     1       0.201  -7.122  -2.342  0.00  0.00    -0.373 OA
ATOM     30  H   UNL     1      -0.037  -8.059  -2.358  0.00  0.00    +0.211 HD
ENDBRANCH   9  29
TORSDOF 4
