REMARK  Name = ZINC39676763
REMARK  7 active torsions:
REMARK  status: ('A' for Active; 'I' for Inactive)
REMARK    1  A    between atoms: C_1  and  C_2
REMARK    2  A    between atoms: C_2  and  C_4
REMARK    3  A    between atoms: C_2  and  N_12
REMARK    4  A    between atoms: C_8  and  O_10
REMARK    5  A    between atoms: O_10  and  C_11
REMARK    6  A    between atoms: C_13  and  C_15
REMARK    7  A    between atoms: C_26  and  C_28
REMARK                            x       y       z     vdW  Elec       q    Type
REMARK                         _______ _______ _______ _____ _____    ______ ____
ROOT
ATOM      1  C   UNL     1       2.821  -1.005   1.801  0.00  0.00    +0.100 C 
ATOM      2  C   UNL     1       2.264  -2.319   2.392  0.00  0.00    +0.121 C 
ATOM      3  N   UNL     1       3.222  -3.362   1.957  0.00  0.00    -0.296 N 
ATOM      4  C   UNL     1       4.551  -2.716   2.080  0.00  0.00    +0.115 C 
ATOM      5  C   UNL     1       4.323  -1.268   1.601  0.00  0.00    -0.004 C 
ATOM      6  C   UNL     1       5.146  -0.297   2.442  0.00  0.00    -0.010 C 
ATOM      7  C   UNL     1       6.636  -0.539   2.181  0.00  0.00    -0.082 C 
ATOM      8  N   UNL     1       6.923  -0.347   0.755  0.00  0.00    +0.379 N 
ATOM      9  C   UNL     1       6.198  -1.345  -0.041  0.00  0.00    -0.082 C 
ATOM     10  C   UNL     1       4.690  -1.137   0.126  0.00  0.00    -0.010 C 
ATOM     11  C   UNL     1       2.949  -4.615   1.544  0.00  0.00    +0.249 C 
ATOM     12  O   UNL     1       3.856  -5.389   1.307  0.00  0.00    -0.270 OA
ATOM     13  H   UNL     1       6.632   0.578   0.476  0.00  0.00    -0.086 HD
ATOM     14  H   UNL     1       7.914  -0.447   0.596  0.00  0.00    -0.086 HD
ENDROOT
BRANCH  11  15
ATOM     15  C   UNL     1       1.546  -5.049   1.379  0.00  0.00    +0.073 A 
ATOM     16  C   UNL     1       0.559  -4.574   2.245  0.00  0.00    +0.036 A 
ATOM     17  C   UNL     1      -0.749  -4.982   2.085  0.00  0.00    +0.042 A 
ATOM     18  C   UNL     1      -1.085  -5.862   1.068  0.00  0.00    +0.023 A 
ATOM     19  C   UNL     1      -0.115  -6.337   0.207  0.00  0.00    +0.040 A 
ATOM     20  C   UNL     1       1.200  -5.932   0.352  0.00  0.00    +0.136 A 
ATOM     21  F   UNL     1       2.148  -6.392  -0.494  0.00  0.00    -0.205 F 
ATOM     22 CL   UNL     1      -1.978  -4.393   3.161  0.00  0.00    -0.084 Cl
ENDBRANCH  11  15
BRANCH   1  24
ATOM     23  N   UNL     1       2.046   0.573   0.061  0.00  0.00    -0.308 N 
ATOM     24  C   UNL     1       2.161  -0.703   0.480  0.00  0.00    +0.219 C 
ATOM     25  O   UNL     1       1.733  -1.607  -0.205  0.00  0.00    -0.275 OA
ATOM     26  H   UNL     1       2.389   1.296   0.609  0.00  0.00    +0.149 HD
BRANCH  23  28
ATOM     27  C   UNL     1       2.434   0.744  -2.348  0.00  0.00    +0.033 C 
ATOM     28  C   UNL     1       1.404   0.867  -1.223  0.00  0.00    +0.100 C 
BRANCH  28  29
ATOM     29  C   UNL     1       0.852   2.269  -1.199  0.00  0.00    -0.024 A 
ATOM     30  C   UNL     1       1.577   3.287  -0.607  0.00  0.00    +0.005 A 
ATOM     31  C   UNL     1       1.073   4.574  -0.583  0.00  0.00    +0.004 A 
ATOM     32  C   UNL     1      -0.158   4.846  -1.150  0.00  0.00    +0.045 A 
ATOM     33  C   UNL     1      -0.887   3.827  -1.744  0.00  0.00    +0.120 A 
ATOM     34  C   UNL     1      -0.376   2.537  -1.772  0.00  0.00    +0.051 A 
BRANCH  33  35
ATOM     35  O   UNL     1      -2.097   4.092  -2.303  0.00  0.00    -0.495 OA
ATOM     36  C   UNL     1      -2.558   5.443  -2.242  0.00  0.00    +0.277 C 
ENDBRANCH  33  35
ENDBRANCH  28  29
ENDBRANCH  23  28
ENDBRANCH   1  24
TORSDOF 5
