REMARK  Name = ZINC36493995
REMARK  14 active torsions:
REMARK  status: ('A' for Active; 'I' for Inactive)
REMARK    1  A    between atoms: C_1  and  C_2
REMARK    2  A    between atoms: C_2  and  C_3
REMARK    3  A    between atoms: C_2  and  C_4
REMARK    4  A    between atoms: C_2  and  N_5
REMARK    5  A    between atoms: C_6  and  C_8
REMARK    6  A    between atoms: C_8  and  C_10
REMARK    7  A    between atoms: C_8  and  N_17
REMARK    8  A    between atoms: C_13  and  O_16
REMARK    9  A    between atoms: N_17  and  C_18
REMARK   10  A    between atoms: C_18  and  C_19
REMARK   11  A    between atoms: C_24  and  C_26
REMARK   12  A    between atoms: C_32  and  O_34
REMARK   13  A    between atoms: O_34  and  C_35
REMARK   14  A    between atoms: C_35  and  C_36
REMARK                            x       y       z     vdW  Elec       q    Type
REMARK                         _______ _______ _______ _____ _____    ______ ____
ROOT
ATOM      1  N   UNL     1       4.417  -1.117  -2.809  0.00  0.00    -0.277 N 
ATOM      2  C   UNL     1       5.324  -1.503  -1.891  0.00  0.00    +0.237 C 
ATOM      3  O   UNL     1       5.028  -2.333  -1.058  0.00  0.00    -0.274 OA
ENDROOT
BRANCH   2   4
ATOM      4  C   UNL     1       6.707  -0.905  -1.900  0.00  0.00    +0.165 C 
ATOM      5  C   UNL     1       6.793   0.234  -0.862  0.00  0.00    +0.033 C 
ATOM      6  C   UNL     1       8.217   0.057  -0.270  0.00  0.00    +0.021 C 
ATOM      7  C   UNL     1       8.368  -1.484  -0.279  0.00  0.00    +0.112 C 
ATOM      8  N   UNL     1       7.696  -1.924  -1.518  0.00  0.00    -0.256 N 
ATOM      9  C   UNL     1       7.944  -3.068  -2.187  0.00  0.00    +0.404 C 
ATOM     10  O   UNL     1       7.323  -3.326  -3.200  0.00  0.00    -0.226 OA
BRANCH   9  11
ATOM     11  O   UNL     1       8.878  -3.924  -1.733  0.00  0.00    -0.445 OA
BRANCH  11  12
ATOM     12  C   UNL     1       9.088  -5.117  -2.492  0.00  0.00    +0.269 C 
BRANCH  12  13
ATOM     13  C   UNL     1      10.163  -5.946  -1.837  0.00  0.00    -0.010 A 
ATOM     14  C   UNL     1      11.488  -5.761  -2.185  0.00  0.00    +0.007 A 
ATOM     15  C   UNL     1      12.473  -6.521  -1.584  0.00  0.00    +0.000 A 
ATOM     16  C   UNL     1      12.133  -7.467  -0.634  0.00  0.00    +0.000 A 
ATOM     17  C   UNL     1      10.809  -7.652  -0.286  0.00  0.00    +0.000 A 
ATOM     18  C   UNL     1       9.824  -6.888  -0.884  0.00  0.00    +0.007 A 
ENDBRANCH  12  13
ENDBRANCH  11  12
ENDBRANCH   9  11
ENDBRANCH   2   4
BRANCH   1  19
ATOM     19  C   UNL     1       3.037  -1.601  -2.724  0.00  0.00    +0.193 C 
BRANCH  19  20
ATOM     20  C   UNL     1       2.740  -2.485  -3.907  0.00  0.00    -0.018 A 
ATOM     21  C   UNL     1       2.661  -1.939  -5.175  0.00  0.00    +0.009 A 
ATOM     22  C   UNL     1       2.389  -2.748  -6.261  0.00  0.00    +0.046 A 
ATOM     23  C   UNL     1       2.196  -4.109  -6.080  0.00  0.00    +0.117 A 
ATOM     24  C   UNL     1       2.277  -4.655  -4.807  0.00  0.00    +0.046 A 
ATOM     25  C   UNL     1       2.554  -3.843  -3.725  0.00  0.00    +0.009 A 
BRANCH  23  26
ATOM     26  O   UNL     1       1.928  -4.907  -7.147  0.00  0.00    -0.507 OA
ATOM     27  H   UNL     1       2.716  -5.276  -7.570  0.00  0.00    +0.292 HD
ENDBRANCH  23  26
ENDBRANCH  19  20
BRANCH  19  29
ATOM     28  N   UNL     1       0.770  -0.625  -2.552  0.00  0.00    -0.309 N 
ATOM     29  C   UNL     1       2.092  -0.427  -2.725  0.00  0.00    +0.238 C 
ATOM     30  O   UNL     1       2.521   0.697  -2.883  0.00  0.00    -0.273 OA
ATOM     31  H   UNL     1       0.427  -1.524  -2.426  0.00  0.00    +0.149 HD
BRANCH  28  33
ATOM     32  C   UNL     1      -0.057   1.243  -3.897  0.00  0.00    +0.031 C 
ATOM     33  C   UNL     1      -0.149   0.516  -2.553  0.00  0.00    +0.026 C 
ATOM     34  C   UNL     1       0.232   1.478  -1.426  0.00  0.00    +0.031 C 
ATOM     35  C   UNL     1      -1.580   0.019  -2.339  0.00  0.00    +0.031 C 
ENDBRANCH  28  33
ENDBRANCH  19  29
ENDBRANCH   1  19
BRANCH   1  36
ATOM     36  C   UNL     1       4.810  -0.212  -3.893  0.00  0.00    +0.183 C 
BRANCH  36  37
ATOM     37  C   UNL     1       5.532  -0.993  -4.961  0.00  0.00    +0.122 A 
ATOM     38  C   UNL     1       5.175  -1.070  -6.256  0.00  0.00    +0.046 A 
ATOM     39  C   UNL     1       6.124  -1.901  -6.894  0.00  0.00    +0.041 A 
ATOM     40  C   UNL     1       7.004  -2.282  -5.951  0.00  0.00    +0.195 A 
ATOM     41  O   UNL     1       6.644  -1.724  -4.783  0.00  0.00    -0.466 OA
ENDBRANCH  36  37
ENDBRANCH   1  36
TORSDOF 11
