REMARK  Name = ZINC66200378
REMARK  15 active torsions:
REMARK  status: ('A' for Active; 'I' for Inactive)
REMARK    1  A    between atoms: C_1  and  C_2
REMARK    2  A    between atoms: C_2  and  C_3
REMARK    3  A    between atoms: C_3  and  C_5
REMARK    4  A    between atoms: C_3  and  C_6
REMARK    5  A    between atoms: C_11  and  O_12
REMARK    6  A    between atoms: O_12  and  C_13
REMARK    7  A    between atoms: C_13  and  C_15
REMARK    8  A    between atoms: C_13  and  C_17
REMARK    9  A    between atoms: C_15  and  C_16
REMARK   10  A    between atoms: N_19  and  C_20
REMARK   11  A    between atoms: C_23  and  S_26
REMARK   12  A    between atoms: S_26  and  N_29
REMARK   13  A    between atoms: N_29  and  C_30
REMARK   14  A    between atoms: C_31  and  O_36
REMARK   15  A    between atoms: O_36  and  C_37
REMARK                            x       y       z     vdW  Elec       q    Type
REMARK                         _______ _______ _______ _____ _____    ______ ____
ROOT
ATOM      1  C   UNL     1      -0.956  -1.844   5.753  0.00  0.00    +0.258 C 
ATOM      2  O   UNL     1      -0.336  -0.803   5.802  0.00  0.00    -0.271 OA
ATOM      3  N   UNL     1      -1.605  -2.294   6.846  0.00  0.00    -0.282 N 
ATOM      4  H   UNL     1      -2.037  -3.162   6.830  0.00  0.00    +0.155 HD
ENDROOT
BRANCH   3   5
ATOM      5  C   UNL     1      -1.655  -1.508   8.002  0.00  0.00    +0.034 A 
ATOM      6  C   UNL     1      -1.663  -2.111   9.254  0.00  0.00    +0.025 A 
ATOM      7  C   UNL     1      -1.713  -1.332  10.393  0.00  0.00    +0.031 A 
ATOM      8  C   UNL     1      -1.755   0.046  10.290  0.00  0.00    +0.111 A 
ATOM      9  C   UNL     1      -1.748   0.649   9.045  0.00  0.00    +0.031 A 
ATOM     10  C   UNL     1      -1.692  -0.123   7.902  0.00  0.00    +0.025 A 
BRANCH   8  11
ATOM     11  S   UNL     1      -1.819   1.036  11.746  0.00  0.00    +0.093 S 
ATOM     12  O   UNL     1      -2.402   2.276  11.369  0.00  0.00    -0.148 OA
ATOM     13  O   UNL     1      -2.366   0.217  12.770  0.00  0.00    -0.148 OA
BRANCH  11  14
ATOM     14  N   UNL     1      -0.256   1.362  12.185  0.00  0.00    -0.072 NA
BRANCH  14  15
ATOM     15  C   UNL     1       0.004   2.134  13.314  0.00  0.00    +0.225 A 
ATOM     16  C   UNL     1       1.324   2.416  13.684  0.00  0.00    +0.259 A 
ATOM     17  N   UNL     1       1.562   3.151  14.758  0.00  0.00    -0.217 NA
ATOM     18  C   UNL     1       0.553   3.617  15.479  0.00  0.00    +0.134 A 
ATOM     19  C   UNL     1      -0.748   3.339  15.115  0.00  0.00    +0.133 A 
ATOM     20  N   UNL     1      -0.998   2.610  14.038  0.00  0.00    -0.231 NA
BRANCH  16  21
ATOM     21  O   UNL     1       2.356   1.937  12.944  0.00  0.00    -0.477 OA
ATOM     22  C   UNL     1       3.676   2.265  13.382  0.00  0.00    +0.279 C 
ENDBRANCH  16  21
ENDBRANCH  14  15
ENDBRANCH  11  14
ENDBRANCH   8  11
ENDBRANCH   3   5
BRANCH   1  23
ATOM     23  C   UNL     1      -1.002  -2.635   4.471  0.00  0.00    +0.259 C 
BRANCH  23  24
ATOM     24  C   UNL     1      -2.438  -2.666   3.943  0.00  0.00    +0.051 C 
ATOM     25  C   UNL     1      -2.508  -3.571   2.711  0.00  0.00    +0.008 C 
ENDBRANCH  23  24
BRANCH  23  26
ATOM     26  O   UNL     1      -0.151  -2.020   3.502  0.00  0.00    -0.479 OA
BRANCH  26  32
ATOM     27  C   UNL     1       1.234  -2.307   1.589  0.00  0.00    -0.003 A 
ATOM     28  C   UNL     1       1.866  -3.145   0.691  0.00  0.00    +0.007 A 
ATOM     29  C   UNL     1       1.730  -4.516   0.809  0.00  0.00    +0.001 A 
ATOM     30  C   UNL     1       0.961  -5.051   1.826  0.00  0.00    +0.004 A 
ATOM     31  C   UNL     1       0.327  -4.218   2.727  0.00  0.00    +0.046 A 
ATOM     32  C   UNL     1       0.467  -2.842   2.614  0.00  0.00    +0.125 A 
BRANCH  27  33
ATOM     33  C   UNL     1       1.382  -0.813   1.459  0.00  0.00    +0.019 C 
ATOM     34  C   UNL     1       2.861  -0.436   1.572  0.00  0.00    +0.012 C 
BRANCH  33  36
ATOM     35  C   UNL     1       0.879   1.165   0.018  0.00  0.00    +0.004 C 
ATOM     36  C   UNL     1       0.843  -0.363   0.100  0.00  0.00    +0.004 C 
ENDBRANCH  33  36
ENDBRANCH  27  33
ENDBRANCH  26  32
ENDBRANCH  23  26
ENDBRANCH   1  23
TORSDOF 11
