REMARK  Name = ZINC64481414
REMARK  5 active torsions:
REMARK  status: ('A' for Active; 'I' for Inactive)
REMARK    1  A    between atoms: C_1  and  C_2
REMARK    2  A    between atoms: C_2  and  O_3
REMARK    3  A    between atoms: O_3  and  C_4
REMARK    4  A    between atoms: C_9  and  N_10
REMARK    5  A    between atoms: C_26  and  C_28
REMARK                            x       y       z     vdW  Elec       q    Type
REMARK                         _______ _______ _______ _____ _____    ______ ____
ROOT
ATOM      1  N   UNL     1       1.871  -1.159  -3.517  0.00  0.00    -0.266 N 
ATOM      2  C   UNL     1       2.605  -1.760  -4.474  0.00  0.00    +0.307 C 
ATOM      3  O   UNL     1       2.704  -2.971  -4.493  0.00  0.00    -0.252 OA
ATOM      4  N   UNL     1       3.230  -1.017  -5.409  0.00  0.00    -0.276 N 
ATOM      5  C   UNL     1       3.207   0.446  -5.309  0.00  0.00    +0.114 C 
ATOM      6  C   UNL     1       2.591   1.037  -6.590  0.00  0.00    +0.052 C 
ATOM      7  C   UNL     1       3.229   0.315  -7.750  0.00  0.00    -0.035 C 
ATOM      8  C   UNL     1       3.834   0.768  -8.841  0.00  0.00    -0.001 A 
ATOM      9  C   UNL     1       4.008   2.130  -9.370  0.00  0.00    +0.010 A 
ATOM     10  C   UNL     1       4.713   2.238 -10.527  0.00  0.00    +0.001 A 
ATOM     11  C   UNL     1       5.256   1.141 -11.203  0.00  0.00    +0.002 A 
ATOM     12  C   UNL     1       5.138  -0.147 -10.792  0.00  0.00    +0.026 A 
ATOM     13  C   UNL     1       4.410  -0.389  -9.591  0.00  0.00    +0.043 A 
ATOM     14  N   UNL     1       4.127  -1.507  -8.990  0.00  0.00    -0.375 N 
ATOM     15  C   UNL     1       3.290  -1.206  -7.828  0.00  0.00    +0.131 C 
ATOM     16  C   UNL     1       3.934  -1.683  -6.516  0.00  0.00    +0.135 C 
ATOM     17  H   UNL     1       1.737  -0.199  -3.539  0.00  0.00    +0.156 HD
ATOM     18  H   UNL     1       4.420  -2.389  -9.266  0.00  0.00    +0.160 HD
ENDROOT
BRANCH   1  24
ATOM     19  C   UNL     1       1.044  -1.343  -1.248  0.00  0.00    +0.142 A 
ATOM     20  C   UNL     1       0.474  -2.101  -0.238  0.00  0.00    +0.047 A 
ATOM     21  C   UNL     1       0.166  -3.430  -0.461  0.00  0.00    +0.004 A 
ATOM     22  C   UNL     1       0.425  -4.007  -1.690  0.00  0.00    +0.002 A 
ATOM     23  C   UNL     1       0.993  -3.258  -2.703  0.00  0.00    +0.027 A 
ATOM     24  C   UNL     1       1.300  -1.922  -2.489  0.00  0.00    +0.077 A 
BRANCH  19  25
ATOM     25  O   UNL     1       1.348  -0.036  -1.031  0.00  0.00    -0.490 OA
BRANCH  25  27
ATOM     26  C   UNL     1       1.466   1.964   0.320  0.00  0.00    +0.048 C 
ATOM     27  C   UNL     1       1.059   0.491   0.266  0.00  0.00    +0.226 C 
ENDBRANCH  25  27
ENDBRANCH  19  25
ENDBRANCH   1  24
BRANCH  16  28
ATOM     28  C   UNL     1       5.393  -1.307  -6.494  0.00  0.00    -0.007 A 
ATOM     29  C   UNL     1       5.777   0.022  -6.591  0.00  0.00    +0.008 A 
ATOM     30  C   UNL     1       7.130   0.321  -6.566  0.00  0.00    +0.020 A 
ATOM     31  C   UNL     1       8.046  -0.708  -6.446  0.00  0.00    +0.111 A 
ATOM     32  N   UNL     1       7.644  -1.961  -6.356  0.00  0.00    -0.263 NA
ATOM     33  C   UNL     1       6.365  -2.282  -6.370  0.00  0.00    +0.116 A 
ENDBRANCH  16  28
TORSDOF 4
