REMARK  Name = ZINC58970420
REMARK  9 active torsions:
REMARK  status: ('A' for Active; 'I' for Inactive)
REMARK    1  A    between atoms: C_4  and  C_7
REMARK    2  A    between atoms: C_9  and  C_28
REMARK    3  A    between atoms: C_11  and  S_13
REMARK    4  A    between atoms: S_13  and  C_14
REMARK    5  A    between atoms: C_14  and  C_15
REMARK    6  A    between atoms: C_15  and  C_16
REMARK    7  A    between atoms: C_16  and  C_17
REMARK    8  A    between atoms: N_19  and  C_20
REMARK    9  A    between atoms: C_25  and  O_26
REMARK                            x       y       z     vdW  Elec       q    Type
REMARK                         _______ _______ _______ _____ _____    ______ ____
ROOT
ATOM      1  S   UNL     1       7.503   0.275  -0.013  0.00  0.00    -0.086 S 
ENDROOT
BRANCH   1   6
ATOM      2  C   UNL     1       3.700  -0.684   0.041  0.00  0.00    +0.076 A 
ATOM      3  C   UNL     1       3.733  -2.082   0.030  0.00  0.00    +0.060 A 
ATOM      4  C   UNL     1       4.965  -2.711   0.005  0.00  0.00    +0.148 A 
ATOM      5  N   UNL     1       6.067  -1.978  -0.007  0.00  0.00    -0.218 NA
ATOM      6  C   UNL     1       6.005  -0.654   0.004  0.00  0.00    +0.189 A 
ATOM      7  N   UNL     1       4.847  -0.011   0.021  0.00  0.00    -0.222 NA
BRANCH   2  11
ATOM      8  C   UNL     1      -0.014   1.384   0.114  0.00  0.00    +0.000 A 
ATOM      9  C   UNL     1       1.171   2.097   0.095  0.00  0.00    +0.001 A 
ATOM     10  C   UNL     1       2.380   1.431   0.071  0.00  0.00    +0.010 A 
ATOM     11  C   UNL     1       2.404   0.037   0.067  0.00  0.00    +0.000 A 
ATOM     12  C   UNL     1       1.206  -0.676   0.086  0.00  0.00    +0.010 A 
ATOM     13  C   UNL     1       0.004   0.001   0.109  0.00  0.00    +0.001 A 
ENDBRANCH   2  11
BRANCH   4  14
ATOM     14  C   UNL     1       5.051  -4.216  -0.006  0.00  0.00    +0.434 C 
ATOM     15  F   UNL     1       5.056  -4.672  -1.329  0.00  0.00    -0.164 F 
ATOM     16  F   UNL     1       6.229  -4.620   0.631  0.00  0.00    -0.164 F 
ATOM     17  F   UNL     1       3.948  -4.751   0.667  0.00  0.00    -0.164 F 
ENDBRANCH   4  14
ENDBRANCH   1   6
BRANCH   1  18
ATOM     18  C   UNL     1       8.803  -0.989  -0.042  0.00  0.00    +0.078 C 
BRANCH  18  19
ATOM     19  C   UNL     1      10.174  -0.310  -0.059  0.00  0.00    +0.020 C 
BRANCH  19  20
ATOM     20  C   UNL     1      11.271  -1.376  -0.084  0.00  0.00    +0.097 C 
BRANCH  20  21
ATOM     21  C   UNL     1      12.621  -0.707  -0.100  0.00  0.00    +0.217 C 
ATOM     22  O   UNL     1      12.699   0.503  -0.092  0.00  0.00    -0.275 OA
ATOM     23  N   UNL     1      13.743  -1.454  -0.123  0.00  0.00    -0.283 N 
ATOM     24  H   UNL     1      13.684  -2.420  -0.064  0.00  0.00    +0.155 HD
BRANCH  23  25
ATOM     25  C   UNL     1      14.995  -0.834  -0.232  0.00  0.00    +0.076 A 
ATOM     26  C   UNL     1      15.217   0.396   0.369  0.00  0.00    +0.042 A 
ATOM     27  C   UNL     1      16.453   1.005   0.260  0.00  0.00    +0.020 A 
ATOM     28  C   UNL     1      17.471   0.391  -0.448  0.00  0.00    +0.019 A 
ATOM     29  C   UNL     1      17.257  -0.836  -1.049  0.00  0.00    +0.048 A 
ATOM     30  C   UNL     1      16.022  -1.455  -0.939  0.00  0.00    +0.138 A 
ATOM     31 BR   UNL     1      16.754   2.683   1.079  0.00  0.00    -0.050 Br
BRANCH  30  32
ATOM     32  O   UNL     1      15.812  -2.664  -1.525  0.00  0.00    -0.505 OA
ATOM     33  H   UNL     1      15.486  -2.609  -2.434  0.00  0.00    +0.292 HD
ENDBRANCH  30  32
ENDBRANCH  23  25
ENDBRANCH  20  21
ENDBRANCH  19  20
ENDBRANCH  18  19
ENDBRANCH   1  18
TORSDOF 9
