REMARK  Name = ZINC36370959
REMARK  8 active torsions:
REMARK  status: ('A' for Active; 'I' for Inactive)
REMARK    1  A    between atoms: C_1  and  C_2
REMARK    2  A    between atoms: C_2  and  C_4
REMARK    3  A    between atoms: C_2  and  O_32
REMARK    4  A    between atoms: C_4  and  O_31
REMARK    5  A    between atoms: C_9  and  C_30
REMARK    6  A    between atoms: C_17  and  O_29
REMARK    7  A    between atoms: C_21  and  C_28
REMARK    8  A    between atoms: C_24  and  O_27
REMARK                            x       y       z     vdW  Elec       q    Type
REMARK                         _______ _______ _______ _____ _____    ______ ____
ROOT
ATOM      1  C   UNL     1       0.635  -0.543   1.533  0.00  0.00    +0.097 C 
ATOM      2  C   UNL     1      -0.078  -0.486   2.910  0.00  0.00    +0.038 C 
ATOM      3  C   UNL     1      -0.088  -1.943   3.456  0.00  0.00    +0.007 C 
ATOM      4  C   UNL     1       1.061  -2.583   2.659  0.00  0.00    +0.001 C 
ATOM      5  C   UNL     1       0.766  -2.054   1.239  0.00  0.00    +0.002 C 
ATOM      6  C   UNL     1       1.877  -2.429   0.293  0.00  0.00    +0.010 C 
ATOM      7  C   UNL     1       2.295  -3.897   0.464  0.00  0.00    +0.005 C 
ATOM      8  C   UNL     1       1.327  -4.687   1.325  0.00  0.00    -0.001 C 
ATOM      9  C   UNL     1       1.193  -4.072   2.718  0.00  0.00    -0.001 C 
ATOM     10  C   UNL     1       0.053  -4.765   3.461  0.00  0.00    +0.035 C 
ATOM     11  C   UNL     1       0.398  -6.255   3.600  0.00  0.00    +0.119 C 
ATOM     12  C   UNL     1       1.747  -6.540   2.947  0.00  0.00    +0.026 C 
ATOM     13  C   UNL     1       1.749  -6.155   1.470  0.00  0.00    -0.024 C 
ATOM     14  C   UNL     1       3.146  -6.372   0.895  0.00  0.00    +0.010 C 
ATOM     15  C   UNL     1       3.571  -7.830   1.063  0.00  0.00    +0.032 C 
ATOM     16  C   UNL     1       3.520  -8.248   2.530  0.00  0.00    +0.115 C 
ATOM     17  C   UNL     1       2.124  -8.012   3.110  0.00  0.00    +0.038 C 
ATOM     18  C   UNL     1       0.741  -7.007   0.692  0.00  0.00    +0.012 C 
ATOM     19  C   UNL     1      -0.594  -2.502   0.702  0.00  0.00    +0.014 C 
ENDROOT
BRANCH   1  21
ATOM     20  C   UNL     1      -0.344   1.617   0.758  0.00  0.00    +0.040 C 
ATOM     21  C   UNL     1      -0.219   0.122   0.458  0.00  0.00    +0.144 C 
BRANCH  21  22
ATOM     22  O   UNL     1       0.397  -0.058  -0.819  0.00  0.00    -0.389 OA
ATOM     23  H   UNL     1       1.284   0.321  -0.884  0.00  0.00    +0.210 HD
ENDBRANCH  21  22
ENDBRANCH   1  21
BRANCH  16  24
ATOM     24  O   UNL     1       4.482  -7.500   3.276  0.00  0.00    -0.392 OA
ATOM     25  H   UNL     1       5.393  -7.622   2.978  0.00  0.00    +0.210 HD
ENDBRANCH  16  24
BRANCH  11  26
ATOM     26  O   UNL     1       0.468  -6.582   4.993  0.00  0.00    -0.391 OA
ATOM     27  H   UNL     1      -0.355  -6.426   5.476  0.00  0.00    +0.210 HD
ENDBRANCH  11  26
BRANCH   1  28
ATOM     28  O   UNL     1       1.923   0.058   1.610  0.00  0.00    -0.385 OA
ATOM     29  H   UNL     1       1.904   1.003   1.814  0.00  0.00    +0.210 HD
ENDBRANCH   1  28
TORSDOF 5
