REMARK  Name = ZINC36374949
REMARK  6 active torsions:
REMARK  status: ('A' for Active; 'I' for Inactive)
REMARK    1  A    between atoms: C_1  and  C_2
REMARK    2  A    between atoms: C_11  and  C_14
REMARK    3  A    between atoms: C_12  and  O_13
REMARK    4  A    between atoms: C_21  and  O_22
REMARK    5  A    between atoms: O_22  and  C_23
REMARK    6  A    between atoms: C_27  and  O_29
REMARK                            x       y       z     vdW  Elec       q    Type
REMARK                         _______ _______ _______ _____ _____    ______ ____
ROOT
ATOM      1  C   UNL     1      -0.019   1.526   0.010  0.00  0.00    +0.011 C 
ATOM      2  C   UNL     1       0.002  -0.004   0.002  0.00  0.00    +0.026 C 
ATOM      3  C   UNL     1       0.721  -0.499  -1.260  0.00  0.00    +0.086 C 
ATOM      4  C   UNL     1       0.629  -2.011  -1.270  0.00  0.00    +0.167 C 
ATOM      5  O   UNL     1       0.377  -2.618  -2.289  0.00  0.00    -0.292 OA
ATOM      6  C   UNL     1       0.855  -2.718   0.001  0.00  0.00    +0.065 A 
ATOM      7  C   UNL     1       0.902  -2.005   1.202  0.00  0.00    -0.005 A 
ATOM      8  C   UNL     1       1.106  -2.688   2.385  0.00  0.00    +0.007 A 
ATOM      9  C   UNL     1       1.268  -4.063   2.385  0.00  0.00    +0.011 A 
ATOM     10  C   UNL     1       1.228  -4.776   1.204  0.00  0.00    +0.039 A 
ATOM     11  C   UNL     1       1.021  -4.112   0.003  0.00  0.00    +0.135 A 
ATOM     12  C   UNL     1       0.741  -0.510   1.238  0.00  0.00    +0.149 C 
ENDROOT
BRANCH  10  13
ATOM     13  C   UNL     1       1.407  -6.272   1.218  0.00  0.00    +0.245 C 
ATOM     14  C   UNL     1       0.062  -6.952   1.262  0.00  0.00    +0.053 A 
ATOM     15  C   UNL     1       0.042  -7.699   2.443  0.00  0.00    +0.070 A 
ATOM     16  C   UNL     1      -1.090  -8.449   2.763  0.00  0.00    +0.015 A 
ATOM     17  C   UNL     1      -2.178  -8.447   1.914  0.00  0.00    +0.004 A 
ATOM     18  C   UNL     1      -2.153  -7.706   0.747  0.00  0.00    +0.046 A 
ATOM     19  C   UNL     1      -1.030  -6.955   0.419  0.00  0.00    +0.128 A 
ATOM     20  C   UNL     1       1.335  -7.496   3.122  0.00  0.00    +0.341 C 
ATOM     21  O   UNL     1       1.654  -8.002   4.179  0.00  0.00    -0.245 OA
ATOM     22  O   UNL     1       2.110  -6.669   2.398  0.00  0.00    -0.448 OA
BRANCH  19  23
ATOM     23  O   UNL     1      -1.008  -6.226  -0.728  0.00  0.00    -0.495 OA
ATOM     24  C   UNL     1      -2.175  -6.277  -1.551  0.00  0.00    +0.277 C 
ENDBRANCH  19  23
ENDBRANCH  10  13
BRANCH  11  25
ATOM     25  O   UNL     1       0.980  -4.805  -1.161  0.00  0.00    -0.506 OA
ATOM     26  H   UNL     1       1.841  -4.902  -1.592  0.00  0.00    +0.292 HD
ENDBRANCH  11  25
BRANCH  12  27
ATOM     27  O   UNL     1       0.003  -0.146   2.406  0.00  0.00    -0.387 OA
ATOM     28  H   UNL     1       0.411  -0.434   3.235  0.00  0.00    +0.210 HD
ENDBRANCH  12  27
TORSDOF 4
