REMARK  Name = ZINC04041920
REMARK  5 active torsions:
REMARK  status: ('A' for Active; 'I' for Inactive)
REMARK    1  A    between atoms: C_1  and  C_2
REMARK    2  A    between atoms: C_5  and  O_29
REMARK    3  A    between atoms: C_18  and  C_28
REMARK    4  A    between atoms: C_23  and  N_25
REMARK    5  A    between atoms: O_29  and  C_30
REMARK                            x       y       z     vdW  Elec       q    Type
REMARK                         _______ _______ _______ _____ _____    ______ ____
ROOT
ATOM      1  C   UNL     1      -5.486   3.954   2.045  0.00  0.00    +0.012 C 
ATOM      2  C   UNL     1      -4.894   2.666   2.620  0.00  0.00    -0.026 C 
ATOM      3  C   UNL     1      -5.989   1.619   2.683  0.00  0.00    +0.011 C 
ATOM      4  C   UNL     1      -7.126   2.115   3.578  0.00  0.00    +0.045 C 
ATOM      5  C   UNL     1      -6.587   2.381   4.986  0.00  0.00    +0.176 C 
ATOM      6  C   UNL     1      -5.490   3.445   4.919  0.00  0.00    +0.048 C 
ATOM      7  C   UNL     1      -4.353   2.950   4.023  0.00  0.00    -0.001 C 
ATOM      8  C   UNL     1      -3.258   4.016   3.953  0.00  0.00    +0.004 C 
ATOM      9  C   UNL     1      -2.119   3.520   3.061  0.00  0.00    +0.004 C 
ATOM     10  C   UNL     1      -2.655   3.245   1.653  0.00  0.00    -0.004 C 
ATOM     11  C   UNL     1      -3.752   2.184   1.722  0.00  0.00    -0.001 C 
ATOM     12  C   UNL     1      -4.287   1.946   0.306  0.00  0.00    +0.005 C 
ATOM     13  C   UNL     1      -3.156   1.384  -0.552  0.00  0.00    +0.009 C 
ATOM     14  C   UNL     1      -2.007   2.389  -0.661  0.00  0.00    -0.011 C 
ATOM     15  C   UNL     1      -1.532   2.828   0.735  0.00  0.00    +0.000 C 
ATOM     16  C   UNL     1      -0.765   1.599   1.258  0.00  0.00    +0.006 C 
ATOM     17  C   UNL     1      -0.013   1.086   0.008  0.00  0.00    +0.023 C 
ATOM     18  C   UNL     1      -0.785   1.610  -1.217  0.00  0.00    +0.079 C 
ATOM     19  C   UNL     1      -2.379   3.575  -1.554  0.00  0.00    +0.013 C 
ENDROOT
BRANCH  18  20
ATOM     20  N   UNL     1       0.067   2.505  -2.004  0.00  0.00    -0.314 N 
ATOM     21  C   UNL     1       0.888   1.998  -2.945  0.00  0.00    +0.325 C 
ATOM     22  O   UNL     1       0.922   0.802  -3.139  0.00  0.00    -0.280 OA
ATOM     23  H   UNL     1       0.039   3.462  -1.848  0.00  0.00    +0.149 HD
ENDBRANCH  18  20
BRANCH   5  24
ATOM     24  O   UNL     1      -7.666   2.850   5.836  0.00  0.00    -0.464 OA
BRANCH  24  25
ATOM     25  C   UNL     1      -8.367   1.919   6.502  0.00  0.00    +0.446 C 
ATOM     26  O   UNL     1      -9.277   2.250   7.225  0.00  0.00    -0.255 OA
ENDBRANCH  24  25
ENDBRANCH   5  24
TORSDOF 3
