REMARK  Name = ZINC02837059
REMARK  10 active torsions:
REMARK  status: ('A' for Active; 'I' for Inactive)
REMARK    1  A    between atoms: C_1  and  C_2
REMARK    2  A    between atoms: C_5  and  N_8
REMARK    3  A    between atoms: N_8  and  S_9
REMARK    4  A    between atoms: S_9  and  C_12
REMARK    5  A    between atoms: C_15  and  N_18
REMARK    6  A    between atoms: N_18  and  S_19
REMARK    7  A    between atoms: S_19  and  C_22
REMARK    8  A    between atoms: C_23  and  C_30
REMARK    9  A    between atoms: C_25  and  C_29
REMARK   10  A    between atoms: C_27  and  C_28
REMARK                            x       y       z     vdW  Elec       q    Type
REMARK                         _______ _______ _______ _____ _____    ______ ____
ROOT
ATOM      1  C   UNL     1       0.427   2.320   2.269  0.00  0.00    +0.109 A 
ATOM      2  C   UNL     1       1.356   2.820   3.163  0.00  0.00    +0.030 A 
ATOM      3  C   UNL     1       2.509   3.423   2.698  0.00  0.00    +0.026 A 
ATOM      4  C   UNL     1       2.728   3.536   1.331  0.00  0.00    +0.048 A 
ATOM      5  C   UNL     1       1.790   3.038   0.436  0.00  0.00    +0.026 A 
ATOM      6  C   UNL     1       0.643   2.432   0.908  0.00  0.00    +0.030 A 
ENDROOT
BRANCH   1   7
ATOM      7  S   UNL     1      -1.039   1.546   2.867  0.00  0.00    +0.072 S 
ATOM      8  O   UNL     1      -1.970   1.556   1.794  0.00  0.00    -0.150 OA
ATOM      9  O   UNL     1      -1.324   2.134   4.129  0.00  0.00    -0.150 OA
BRANCH   7  10
ATOM     10  N   UNL     1      -0.670  -0.042   3.158  0.00  0.00    -0.216 N 
ATOM     11  H   UNL     1      -1.114  -0.743   2.655  0.00  0.00    +0.174 HD
BRANCH  10  16
ATOM     12  C   UNL     1       3.190  -1.383   7.090  0.00  0.00    +0.044 C 
ATOM     13  C   UNL     1       2.164  -1.027   6.045  0.00  0.00    -0.050 A 
ATOM     14  C   UNL     1       0.924  -0.552   6.430  0.00  0.00    +0.005 A 
ATOM     15  C   UNL     1      -0.018  -0.225   5.475  0.00  0.00    +0.025 A 
ATOM     16  C   UNL     1       0.281  -0.372   4.126  0.00  0.00    +0.048 A 
ATOM     17  C   UNL     1       1.527  -0.854   3.743  0.00  0.00    +0.025 A 
ATOM     18  C   UNL     1       2.466  -1.175   4.704  0.00  0.00    +0.005 A 
ENDBRANCH  10  16
ENDBRANCH   7  10
ENDBRANCH   1   7
BRANCH   4  19
ATOM     19  N   UNL     1       3.890   4.151   0.858  0.00  0.00    -0.216 N 
ATOM     20  H   UNL     1       4.401   3.737   0.145  0.00  0.00    +0.174 HD
BRANCH  19  21
ATOM     21  S   UNL     1       4.394   5.585   1.514  0.00  0.00    +0.073 S 
ATOM     22  O   UNL     1       5.576   5.957   0.818  0.00  0.00    -0.150 OA
ATOM     23  O   UNL     1       3.251   6.427   1.577  0.00  0.00    -0.150 OA
BRANCH  21  24
ATOM     24  C   UNL     1       4.872   5.258   3.178  0.00  0.00    +0.114 A 
ATOM     25  C   UNL     1       4.140   5.788   4.224  0.00  0.00    -0.023 A 
ATOM     26  C   UNL     1       4.512   5.528   5.529  0.00  0.00    +0.008 A 
ATOM     27  C   UNL     1       5.622   4.745   5.789  0.00  0.00    -0.050 A 
ATOM     28  C   UNL     1       6.356   4.219   4.743  0.00  0.00    +0.008 A 
ATOM     29  C   UNL     1       5.982   4.476   3.437  0.00  0.00    -0.023 A 
ATOM     30  C   UNL     1       6.783   3.902   2.297  0.00  0.00    +0.046 C 
ATOM     31  C   UNL     1       6.029   4.465   7.212  0.00  0.00    +0.044 C 
ATOM     32  C   UNL     1       2.934   6.646   3.941  0.00  0.00    +0.046 C 
ENDBRANCH  21  24
ENDBRANCH  19  21
ENDBRANCH   4  19
TORSDOF 6
