REMARK  Name = ZINC20191705
REMARK  10 active torsions:
REMARK  status: ('A' for Active; 'I' for Inactive)
REMARK    1  A    between atoms: C_1  and  C_2
REMARK    2  A    between atoms: C_2  and  C_3
REMARK    3  A    between atoms: C_4  and  C_32
REMARK    4  A    between atoms: C_7  and  C_8
REMARK    5  A    between atoms: C_11  and  S_16
REMARK    6  A    between atoms: N_12  and  C_13
REMARK    7  A    between atoms: C_13  and  C_14
REMARK    8  A    between atoms: S_16  and  C_17
REMARK    9  A    between atoms: C_17  and  C_18
REMARK   10  A    between atoms: C_24  and  C_26
REMARK                            x       y       z     vdW  Elec       q    Type
REMARK                         _______ _______ _______ _____ _____    ______ ____
ROOT
ATOM      1  S   UNL     1      -3.554  -6.721  -0.417  0.00  0.00    -0.077 S 
ENDROOT
BRANCH   1   5
ATOM      2  C   UNL     1      -1.887  -3.226   0.112  0.00  0.00    +0.166 A 
ATOM      3  N   UNL     1      -3.168  -2.948   0.172  0.00  0.00    -0.128 NA
ATOM      4  N   UNL     1      -3.859  -4.020   0.012  0.00  0.00    -0.122 NA
ATOM      5  C   UNL     1      -3.062  -5.049  -0.160  0.00  0.00    +0.193 A 
ATOM      6  N   UNL     1      -1.778  -4.579  -0.109  0.00  0.00    -0.298 N 
BRANCH   2  11
ATOM      7  C   UNL     1      -0.741  -1.353   1.302  0.00  0.00    -0.027 A 
ATOM      8  C   UNL     1       0.292  -0.487   1.389  0.00  0.00    -0.009 A 
ATOM      9  S   UNL     1       1.287  -0.939  -0.022  0.00  0.00    -0.101 S 
ATOM     10  C   UNL     1       0.259  -2.254  -0.652  0.00  0.00    +0.057 A 
ATOM     11  C   UNL     1      -0.772  -2.265   0.249  0.00  0.00    +0.030 A 
ATOM     12  C   UNL     1       0.544   0.583   2.420  0.00  0.00    +0.052 C 
BRANCH   7  14
ATOM     13  C   UNL     1      -2.949  -0.372   1.863  0.00  0.00    +0.009 C 
ATOM     14  C   UNL     1      -1.848  -1.329   2.325  0.00  0.00    +0.033 C 
ENDBRANCH   7  14
ENDBRANCH   2  11
BRANCH   6  15
ATOM     15  C   UNL     1      -0.544  -5.356  -0.254  0.00  0.00    +0.152 C 
BRANCH  15  16
ATOM     16  C   UNL     1      -0.088  -5.833   1.101  0.00  0.00    -0.013 C 
ATOM     17  C   UNL     1       0.120  -7.109   1.310  0.00  0.00    +0.005 C 
ENDBRANCH  15  16
ENDBRANCH   6  15
ENDBRANCH   1   5
BRANCH   1  18
ATOM     18  C   UNL     1      -5.353  -6.531  -0.364  0.00  0.00    +0.173 C 
BRANCH  18  19
ATOM     19  C   UNL     1      -6.006  -7.874  -0.567  0.00  0.00    +0.229 C 
ATOM     20  O   UNL     1      -5.322  -8.862  -0.732  0.00  0.00    -0.275 OA
ATOM     21  N   UNL     1      -7.350  -7.977  -0.566  0.00  0.00    -0.263 N 
ATOM     22  C   UNL     1      -7.952  -9.216  -0.753  0.00  0.00    +0.188 A 
ATOM     23  N   UNL     1      -7.399 -10.401  -0.947  0.00  0.00    -0.126 NA
ATOM     24  N   UNL     1      -8.094 -11.444  -1.102  0.00  0.00    -0.144 NA
ATOM     25  C   UNL     1      -9.411 -11.384  -1.076  0.00  0.00    +0.107 A 
ATOM     26  S   UNL     1      -9.640  -9.633  -0.790  0.00  0.00    -0.035 S 
ATOM     27  H   UNL     1      -7.970  -7.080  -0.416  0.00  0.00    +0.157 HD
BRANCH  25  28
ATOM     28  C   UNL     1     -10.432 -12.481  -1.236  0.00  0.00    +0.047 C 
ATOM     29  C   UNL     1     -10.231 -13.528  -0.138  0.00  0.00    +0.010 C 
ATOM     30  C   UNL     1     -11.268 -14.642  -0.300  0.00  0.00    +0.001 C 
ATOM     31  C   UNL     1     -11.100 -15.300  -1.671  0.00  0.00    +0.000 C 
ATOM     32  C   UNL     1     -11.300 -14.252  -2.768  0.00  0.00    +0.001 C 
ATOM     33  C   UNL     1     -10.263 -13.139  -2.606  0.00  0.00    +0.010 C 
ENDBRANCH  25  28
ENDBRANCH  18  19
ENDBRANCH   1  18
TORSDOF 8
