REMARK  Name = ZINC38964788
REMARK  7 active torsions:
REMARK  status: ('A' for Active; 'I' for Inactive)
REMARK    1  A    between atoms: C_1  and  C_2
REMARK    2  A    between atoms: C_2  and  O_3
REMARK    3  A    between atoms: O_3  and  C_4
REMARK    4  A    between atoms: C_9  and  N_10
REMARK    5  A    between atoms: C_11  and  O_35
REMARK    6  A    between atoms: C_14  and  O_34
REMARK    7  A    between atoms: C_15  and  C_19
REMARK                            x       y       z     vdW  Elec       q    Type
REMARK                         _______ _______ _______ _____ _____    ______ ____
ROOT
ATOM      1  N   UNL     1      -4.001  -1.491  -0.156  0.00  0.00    -0.222 N 
ATOM      2  C   UNL     1      -4.633  -0.963  -1.356  0.00  0.00    +0.339 C 
ATOM      3  N   UNL     1      -5.419   0.229  -1.081  0.00  0.00    -0.204 NA
ATOM      4  C   UNL     1      -5.854   0.551   0.074  0.00  0.00    +0.200 C 
ATOM      5  C   UNL     1      -5.597  -0.275   1.301  0.00  0.00    +0.183 C 
ATOM      6  C   UNL     1      -4.435  -1.200   1.077  0.00  0.00    +0.237 C 
ATOM      7  O   UNL     1      -3.875  -1.691   2.034  0.00  0.00    -0.274 OA
ENDROOT
BRANCH   5   8
ATOM      8  C   UNL     1      -6.841  -1.106   1.621  0.00  0.00    +0.122 C 
ATOM      9  C   UNL     1      -6.634  -1.850   2.919  0.00  0.00    +0.039 A 
ATOM     10  H   UNL     1      -5.769  -0.455   4.202  0.00  0.00    +0.166 HD
ATOM     11  C   UNL     1      -6.979  -3.147   3.088  0.00  0.00    -0.016 A 
ATOM     12  C   UNL     1      -6.632  -3.508   4.444  0.00  0.00    +0.003 A 
ATOM     13  C   UNL     1      -6.753  -4.696   5.172  0.00  0.00    +0.010 A 
ATOM     14  C   UNL     1      -6.307  -4.676   6.471  0.00  0.00    +0.001 A 
ATOM     15  C   UNL     1      -5.760  -3.541   7.045  0.00  0.00    +0.002 A 
ATOM     16  C   UNL     1      -5.628  -2.352   6.348  0.00  0.00    +0.026 A 
ATOM     17  C   UNL     1      -6.072  -2.341   5.028  0.00  0.00    +0.047 A 
ATOM     18  N   UNL     1      -6.091  -1.361   4.076  0.00  0.00    -0.356 N 
ATOM     19  C   UNL     1      -7.610  -3.988   2.007  0.00  0.00    +0.052 C 
ATOM     20  C   UNL     1      -8.126  -3.043   0.912  0.00  0.00    +0.086 C 
ATOM     21  N   UNL     1      -7.070  -2.087   0.548  0.00  0.00    -0.307 NA
ATOM     22  H   UNL     1      -7.281  -1.625  -0.325  0.00  0.00    +0.123 HD
ENDBRANCH   5   8
BRANCH   1  28
ATOM     23  C   UNL     1      -1.608  -1.815  -0.332  0.00  0.00    +0.142 A 
ATOM     24  C   UNL     1      -0.520  -2.663  -0.466  0.00  0.00    +0.047 A 
ATOM     25  C   UNL     1      -0.715  -4.027  -0.571  0.00  0.00    +0.004 A 
ATOM     26  C   UNL     1      -1.994  -4.551  -0.542  0.00  0.00    +0.002 A 
ATOM     27  C   UNL     1      -3.085  -3.713  -0.408  0.00  0.00    +0.027 A 
ATOM     28  C   UNL     1      -2.897  -2.343  -0.297  0.00  0.00    +0.082 A 
BRANCH  23  29
ATOM     29  O   UNL     1      -1.418  -0.473  -0.229  0.00  0.00    -0.490 OA
BRANCH  29  31
ATOM     30  C   UNL     1      -0.054   1.521  -0.142  0.00  0.00    +0.048 C 
ATOM     31  C   UNL     1      -0.069  -0.004  -0.272  0.00  0.00    +0.226 C 
ENDBRANCH  29  31
ENDBRANCH  23  29
ENDBRANCH   1  28
BRANCH   4  32
ATOM     32  O   UNL     1      -6.576   1.684   0.199  0.00  0.00    -0.495 OA
ATOM     33  H   UNL     1      -6.701   2.164  -0.631  0.00  0.00    +0.293 HD
ENDBRANCH   4  32
BRANCH   2  34
ATOM     34  O   UNL     1      -3.620  -0.639  -2.311  0.00  0.00    -0.356 OA
ATOM     35  H   UNL     1      -3.962  -0.279  -3.141  0.00  0.00    +0.214 HD
ENDBRANCH   2  34
TORSDOF 6
