REMARK  Name = ZINC63152889
REMARK  5 active torsions:
REMARK  status: ('A' for Active; 'I' for Inactive)
REMARK    1  A    between atoms: C_4  and  C_7
REMARK    2  A    between atoms: C_18  and  C_20
REMARK    3  A    between atoms: C_20  and  N_21
REMARK    4  A    between atoms: C_24  and  C_29
REMARK    5  A    between atoms: C_29  and  C_30
REMARK                            x       y       z     vdW  Elec       q    Type
REMARK                         _______ _______ _______ _____ _____    ______ ____
ROOT
ATOM      1  C   UNL     1       2.565  -2.967   2.807  0.00  0.00    +0.214 C 
ENDROOT
BRANCH   1  12
ATOM      2  C   UNL     1       3.193  -1.173  -0.490  0.00  0.00    +0.122 C 
ATOM      3  C   UNL     1       2.870  -1.962  -1.768  0.00  0.00    +0.102 C 
ATOM      4  S   UNL     1       4.314  -2.996  -2.157  0.00  0.00    -0.121 S 
ATOM      5  C   UNL     1       4.727  -3.717  -0.600  0.00  0.00    +0.029 A 
ATOM      6  C   UNL     1       5.578  -4.815  -0.569  0.00  0.00    +0.016 A 
ATOM      7  C   UNL     1       5.921  -5.394   0.637  0.00  0.00    +0.001 A 
ATOM      8  C   UNL     1       5.418  -4.879   1.817  0.00  0.00    +0.002 A 
ATOM      9  C   UNL     1       4.572  -3.789   1.795  0.00  0.00    +0.024 A 
ATOM     10  C   UNL     1       4.213  -3.199   0.585  0.00  0.00    +0.050 A 
ATOM     11  N   UNL     1       3.339  -2.110   0.619  0.00  0.00    -0.261 N 
ATOM     12  C   UNL     1       2.593  -1.918   1.725  0.00  0.00    +0.238 C 
ATOM     13  O   UNL     1       1.944  -0.901   1.850  0.00  0.00    -0.273 OA
BRANCH   2  17
ATOM     14  C   UNL     1       0.015   1.557   0.346  0.00  0.00    +0.000 A 
ATOM     15  C   UNL     1       1.324   2.002   0.333  0.00  0.00    +0.000 A 
ATOM     16  C   UNL     1       2.352   1.119   0.062  0.00  0.00    +0.005 A 
ATOM     17  C   UNL     1       2.072  -0.210  -0.195  0.00  0.00    -0.026 A 
ATOM     18  C   UNL     1       0.763  -0.656  -0.180  0.00  0.00    +0.005 A 
ATOM     19  C   UNL     1      -0.265   0.228   0.089  0.00  0.00    +0.000 A 
ENDBRANCH   2  17
ENDBRANCH   1  12
BRANCH   1  20
ATOM     20  N   UNL     1       1.250  -2.967   3.453  0.00  0.00    -0.216 N 
ATOM     21  C   UNL     1       0.933  -2.211   4.523  0.00  0.00    +0.244 C 
ATOM     22  O   UNL     1       1.654  -1.433   5.110  0.00  0.00    -0.273 OA
ATOM     23  C   UNL     1      -0.513  -2.536   4.840  0.00  0.00    +0.165 C 
ATOM     24  N   UNL     1      -0.877  -3.530   3.816  0.00  0.00    -0.287 N 
ATOM     25  C   UNL     1       0.215  -3.713   3.051  0.00  0.00    +0.310 C 
ATOM     26  O   UNL     1       0.257  -4.472   2.103  0.00  0.00    -0.252 OA
ATOM     27  H   UNL     1      -1.737  -3.966   3.711  0.00  0.00    +0.151 HD
BRANCH  23  28
ATOM     28  C   UNL     1      -0.636  -3.134   6.243  0.00  0.00    +0.065 C 
BRANCH  28  29
ATOM     29  C   UNL     1      -2.091  -3.333   6.579  0.00  0.00    -0.039 C 
ATOM     30  C   UNL     1      -2.813  -4.468   6.430  0.00  0.00    -0.001 A 
ATOM     31  C   UNL     1      -2.471  -5.804   5.930  0.00  0.00    +0.010 A 
ATOM     32  C   UNL     1      -3.429  -6.758   5.900  0.00  0.00    +0.001 A 
ATOM     33  C   UNL     1      -4.737  -6.503   6.334  0.00  0.00    +0.002 A 
ATOM     34  C   UNL     1      -5.127  -5.300   6.807  0.00  0.00    +0.026 A 
ATOM     35  C   UNL     1      -4.201  -4.223   6.883  0.00  0.00    +0.043 A 
ATOM     36  N   UNL     1      -4.333  -2.986   7.295  0.00  0.00    -0.380 N 
ATOM     37  C   UNL     1      -3.040  -2.306   7.156  0.00  0.00    +0.144 C 
ATOM     38  H   UNL     1      -5.148  -2.587   7.639  0.00  0.00    +0.160 HD
ENDBRANCH  28  29
ENDBRANCH  23  28
ENDBRANCH   1  20
TORSDOF 5
