REMARK  Name = ZINC39722267
REMARK  11 active torsions:
REMARK  status: ('A' for Active; 'I' for Inactive)
REMARK    1  A    between atoms: C_1  and  C_2
REMARK    2  A    between atoms: C_2  and  C_3
REMARK    3  A    between atoms: C_2  and  C_4
REMARK    4  A    between atoms: C_4  and  N_5
REMARK    5  A    between atoms: C_6  and  C_28
REMARK    6  A    between atoms: C_10  and  S_11
REMARK    7  A    between atoms: S_11  and  C_12
REMARK    8  A    between atoms: C_12  and  C_13
REMARK    9  A    between atoms: C_21  and  C_25
REMARK   10  A    between atoms: C_31  and  O_34
REMARK   11  A    between atoms: O_34  and  C_35
REMARK                            x       y       z     vdW  Elec       q    Type
REMARK                         _______ _______ _______ _____ _____    ______ ____
ROOT
ATOM      1  N   UNL     1      -0.008  -0.140   2.443  0.00  0.00    -0.285 N 
ATOM      2  C   UNL     1       0.203   1.053   3.281  0.00  0.00    +0.208 C 
ATOM      3  N   UNL     1      -0.813   0.926   4.340  0.00  0.00    -0.242 N 
ATOM      4  N   UNL     1      -1.510  -0.258   4.071  0.00  0.00    -0.162 NA
ATOM      5  C   UNL     1      -1.060  -0.841   3.012  0.00  0.00    +0.176 C 
ATOM      6  H   UNL     1      -0.968   1.540   5.075  0.00  0.00    +0.170 HD
ENDROOT
BRANCH   2   7
ATOM      7  C   UNL     1       1.590   1.046   3.870  0.00  0.00    -0.008 A 
ATOM      8  C   UNL     1       2.427   2.130   3.679  0.00  0.00    +0.011 A 
ATOM      9  C   UNL     1       3.699   2.126   4.218  0.00  0.00    +0.046 A 
ATOM     10  C   UNL     1       4.136   1.034   4.953  0.00  0.00    +0.120 A 
ATOM     11  C   UNL     1       3.294  -0.053   5.143  0.00  0.00    +0.046 A 
ATOM     12  C   UNL     1       2.022  -0.042   4.606  0.00  0.00    +0.011 A 
BRANCH  10  13
ATOM     13  O   UNL     1       5.387   1.027   5.484  0.00  0.00    -0.495 OA
ATOM     14  C   UNL     1       5.770  -0.131   6.228  0.00  0.00    +0.277 C 
ENDBRANCH  10  13
ENDBRANCH   2   7
BRANCH   1  15
ATOM     15  C   UNL     1       0.743  -0.509   1.240  0.00  0.00    +0.112 C 
BRANCH  15  17
ATOM     16  C   UNL     1      -0.040   1.514   0.002  0.00  0.00    +0.009 C 
ATOM     17  C   UNL     1      -0.005  -0.015   0.000  0.00  0.00    +0.000 C 
ATOM     18  C   UNL     1       0.712  -0.508  -1.258  0.00  0.00    +0.009 C 
ENDBRANCH  15  17
ENDBRANCH   1  15
BRANCH   5  19
ATOM     19  S   UNL     1      -1.703  -2.350   2.368  0.00  0.00    -0.081 S 
BRANCH  19  20
ATOM     20  C   UNL     1      -3.041  -2.782   3.514  0.00  0.00    +0.151 C 
BRANCH  20  21
ATOM     21  C   UNL     1      -3.684  -4.071   3.073  0.00  0.00    +0.121 A 
ATOM     22  N   UNL     1      -4.718  -4.560   3.806  0.00  0.00    -0.310 N 
ATOM     23  H   UNL     1      -5.021  -4.077   4.591  0.00  0.00    +0.170 HD
ATOM     24  C   UNL     1      -5.330  -5.714   3.452  0.00  0.00    +0.259 A 
ATOM     25  O   UNL     1      -6.257  -6.162   4.099  0.00  0.00    -0.267 OA
ATOM     26  C   UNL     1      -4.830  -6.405   2.251  0.00  0.00    +0.065 A 
ATOM     27  C   UNL     1      -5.393  -7.599   1.803  0.00  0.00    +0.016 A 
ATOM     28  C   UNL     1      -4.898  -8.207   0.684  0.00  0.00    +0.016 A 
ATOM     29  C   UNL     1      -3.828  -7.640  -0.020  0.00  0.00    +0.065 A 
ATOM     30  C   UNL     1      -3.252  -6.450   0.410  0.00  0.00    +0.043 A 
ATOM     31  C   UNL     1      -3.750  -5.821   1.553  0.00  0.00    +0.079 A 
ATOM     32  N   UNL     1      -3.225  -4.655   2.008  0.00  0.00    -0.233 NA
BRANCH  29  33
ATOM     33  C   UNL     1      -3.306  -8.313  -1.229  0.00  0.00    +0.387 C 
ATOM     34  O   UNL     1      -3.809  -9.360  -1.611  0.00  0.00    -0.241 OA
ATOM     35  O   UNL     1      -2.372  -7.822  -1.847  0.00  0.00    -0.241 OA
ENDBRANCH  29  33
ENDBRANCH  20  21
ENDBRANCH  19  20
ENDBRANCH   5  19
TORSDOF 8
