REMARK  Name = ZINC49563477
REMARK  7 active torsions:
REMARK  status: ('A' for Active; 'I' for Inactive)
REMARK    1  A    between atoms: C_1  and  C_2
REMARK    2  A    between atoms: C_2  and  S_3
REMARK    3  A    between atoms: S_3  and  N_6
REMARK    4  A    between atoms: C_15  and  C_17
REMARK    5  A    between atoms: C_17  and  N_19
REMARK    6  A    between atoms: N_26  and  C_29
REMARK    7  A    between atoms: C_29  and  C_30
REMARK                            x       y       z     vdW  Elec       q    Type
REMARK                         _______ _______ _______ _____ _____    ______ ____
ROOT
ATOM      1  N   UNL     1      -1.487  -2.309   4.007  0.00  0.00    -0.155 NA
ATOM      2  C   UNL     1      -1.554  -1.411   4.992  0.00  0.00    +0.163 A 
ATOM      3  N   UNL     1      -1.782  -0.074   4.901  0.00  0.00    -0.339 N 
ATOM      4  C   UNL     1      -1.813   0.684   6.039  0.00  0.00    +0.024 A 
ATOM      5  C   UNL     1      -1.607   0.011   7.183  0.00  0.00    -0.004 A 
ATOM      6  S   UNL     1      -1.385  -1.661   6.648  0.00  0.00    -0.059 S 
ATOM      7  C   UNL     1      -1.582   0.580   8.563  0.00  0.00    -0.033 C 
ATOM      8  N   UNL     1      -1.447   2.045   8.460  0.00  0.00    +0.386 N 
ATOM      9  C   UNL     1      -2.445   2.563   7.515  0.00  0.00    -0.072 C 
ATOM     10  C   UNL     1      -2.062   2.187   6.080  0.00  0.00    +0.035 C 
ATOM     11  H   UNL     1      -1.921   0.340   4.035  0.00  0.00    +0.167 HD
ATOM     12  H   UNL     1      -0.521   2.275   8.131  0.00  0.00    -0.081 HD
ENDROOT
BRANCH   1  13
ATOM     13  C   UNL     1      -1.648  -1.925   2.747  0.00  0.00    +0.258 C 
ATOM     14  O   UNL     1      -1.856  -0.755   2.490  0.00  0.00    -0.272 OA
BRANCH  13  24
ATOM     15  N   UNL     1      -0.294  -3.666   1.710  0.00  0.00    -0.165 NA
ATOM     16  C   UNL     1      -0.085  -4.761   0.756  0.00  0.00    +0.145 C 
ATOM     17  C   UNL     1      -0.523  -4.326  -0.620  0.00  0.00    -0.028 A 
ATOM     18  C   UNL     1      -0.178  -5.135  -1.695  0.00  0.00    +0.005 A 
ATOM     19  C   UNL     1      -0.559  -4.796  -2.977  0.00  0.00    +0.000 A 
ATOM     20  C   UNL     1      -1.290  -3.642  -3.192  0.00  0.00    +0.000 A 
ATOM     21  C   UNL     1      -1.629  -2.836  -2.126  0.00  0.00    +0.004 A 
ATOM     22  C   UNL     1      -1.242  -3.172  -0.834  0.00  0.00    -0.041 A 
ATOM     23  C   UNL     1      -1.625  -2.230   0.277  0.00  0.00    +0.065 C 
ATOM     24  C   UNL     1      -1.572  -2.940   1.635  0.00  0.00    +0.172 C 
BRANCH  15  25
ATOM     25  S   UNL     1       0.859  -3.268   2.829  0.00  0.00    +0.033 S 
ATOM     26  O   UNL     1       0.682  -1.876   3.053  0.00  0.00    -0.158 OA
ATOM     27  O   UNL     1       2.076  -3.765   2.290  0.00  0.00    -0.158 OA
BRANCH  25  29
ATOM     28  C   UNL     1       1.294  -3.764   5.484  0.00  0.00    +0.029 C 
ATOM     29  C   UNL     1       0.407  -4.202   4.317  0.00  0.00    +0.182 C 
ENDBRANCH  25  29
ENDBRANCH  15  25
ENDBRANCH  13  24
ENDBRANCH   1  13
BRANCH   8  30
ATOM     30  C   UNL     1      -1.662   2.651   9.781  0.00  0.00    -0.043 C 
BRANCH  30  31
ATOM     31  C   UNL     1      -0.566   2.214  10.718  0.00  0.00    -0.064 A 
ATOM     32  C   UNL     1      -0.717   1.065  11.471  0.00  0.00    +0.002 A 
ATOM     33  C   UNL     1       0.289   0.665  12.331  0.00  0.00    +0.000 A 
ATOM     34  C   UNL     1       1.446   1.413  12.437  0.00  0.00    +0.000 A 
ATOM     35  C   UNL     1       1.598   2.562  11.684  0.00  0.00    +0.000 A 
ATOM     36  C   UNL     1       0.594   2.960  10.821  0.00  0.00    +0.002 A 
ENDBRANCH  30  31
ENDBRANCH   8  30
TORSDOF 6
