REMARK  Name = ZINC40322925
REMARK  10 active torsions:
REMARK  status: ('A' for Active; 'I' for Inactive)
REMARK    1  A    between atoms: C_1  and  C_2
REMARK    2  A    between atoms: C_2  and  O_3
REMARK    3  A    between atoms: O_3  and  C_4
REMARK    4  A    between atoms: C_4  and  C_6
REMARK    5  A    between atoms: C_7  and  C_30
REMARK    6  A    between atoms: C_8  and  C_29
REMARK    7  A    between atoms: C_10  and  N_11
REMARK    8  A    between atoms: C_12  and  C_14
REMARK    9  A    between atoms: C_17  and  S_19
REMARK   10  A    between atoms: S_19  and  C_22
REMARK                            x       y       z     vdW  Elec       q    Type
REMARK                         _______ _______ _______ _____ _____    ______ ____
ROOT
ATOM      1  N   UNL     1      -3.048  -2.529   2.497  0.00  0.00    -0.273 N 
ATOM      2  C   UNL     1      -3.829  -2.874   3.540  0.00  0.00    +0.284 C 
ATOM      3  O   UNL     1      -4.933  -3.347   3.343  0.00  0.00    -0.266 OA
ATOM      4  H   UNL     1      -2.168  -2.152   2.654  0.00  0.00    +0.156 HD
ENDROOT
BRANCH   1   9
ATOM      5  C   UNL     1      -2.842  -2.416   0.016  0.00  0.00    +0.091 A 
ATOM      6  C   UNL     1      -3.550  -2.715  -1.208  0.00  0.00    -0.025 A 
ATOM      7  C   UNL     1      -4.779  -3.244  -1.061  0.00  0.00    -0.008 A 
ATOM      8  S   UNL     1      -4.977  -3.337   0.705  0.00  0.00    -0.078 S 
ATOM      9  C   UNL     1      -3.502  -2.711   1.202  0.00  0.00    +0.087 A 
ATOM     10  C   UNL     1      -5.753  -3.657  -2.134  0.00  0.00    +0.052 C 
ATOM     11  C   UNL     1      -2.950  -2.450  -2.565  0.00  0.00    +0.045 C 
BRANCH   5  12
ATOM     12  C   UNL     1      -1.497  -1.838   0.006  0.00  0.00    +0.342 C 
ATOM     13  O   UNL     1      -0.522  -2.566  -0.007  0.00  0.00    -0.245 OA
BRANCH  12  14
ATOM     14  O   UNL     1      -1.339  -0.499   0.012  0.00  0.00    -0.461 OA
BRANCH  14  16
ATOM     15  C   UNL     1      -0.019   1.526   0.010  0.00  0.00    +0.048 C 
ATOM     16  C   UNL     1       0.002  -0.004   0.002  0.00  0.00    +0.229 C 
ENDBRANCH  14  16
ENDBRANCH  12  14
ENDBRANCH   5  12
ENDBRANCH   1   9
BRANCH   2  17
ATOM     17  C   UNL     1      -3.348  -2.681   4.911  0.00  0.00    +0.192 A 
ATOM     18  C   UNL     1      -4.031  -2.992   6.053  0.00  0.00    +0.056 A 
ATOM     19  C   UNL     1      -3.199  -2.643   7.128  0.00  0.00    +0.070 A 
ATOM     20  C   UNL     1      -2.060  -2.141   6.603  0.00  0.00    +0.246 A 
ATOM     21  O   UNL     1      -2.151  -2.170   5.267  0.00  0.00    -0.433 OA
BRANCH  20  22
ATOM     22  S   UNL     1      -0.678  -1.551   7.524  0.00  0.00    +0.058 S 
ATOM     23  O   UNL     1       0.013  -0.640   6.681  0.00  0.00    -0.161 OA
ATOM     24  O   UNL     1      -1.172  -1.181   8.804  0.00  0.00    -0.161 OA
BRANCH  22  25
ATOM     25  C   UNL     1       0.401  -2.920   7.778  0.00  0.00    +0.097 A 
ATOM     26  C   UNL     1       0.252  -3.721   8.895  0.00  0.00    +0.028 A 
ATOM     27  C   UNL     1       1.098  -4.795   9.095  0.00  0.00    +0.017 A 
ATOM     28  C   UNL     1       2.095  -5.069   8.176  0.00  0.00    +0.018 A 
ATOM     29  C   UNL     1       2.245  -4.268   7.059  0.00  0.00    +0.017 A 
ATOM     30  C   UNL     1       1.395  -3.197   6.857  0.00  0.00    +0.028 A 
ATOM     31 BR   UNL     1       3.254  -6.538   8.449  0.00  0.00    -0.050 Br
ENDBRANCH  22  25
ENDBRANCH  20  22
ENDBRANCH   2  17
TORSDOF 7
