REMARK  Name = ZINC67247934
REMARK  8 active torsions:
REMARK  status: ('A' for Active; 'I' for Inactive)
REMARK    1  A    between atoms: C_1  and  C_2
REMARK    2  A    between atoms: C_2  and  C_4
REMARK    3  A    between atoms: C_2  and  N_15
REMARK    4  A    between atoms: C_7  and  S_10
REMARK    5  A    between atoms: S_10  and  N_13
REMARK    6  A    between atoms: N_13  and  C_14
REMARK    7  A    between atoms: N_15  and  C_16
REMARK    8  A    between atoms: C_16  and  C_17
REMARK                            x       y       z     vdW  Elec       q    Type
REMARK                         _______ _______ _______ _____ _____    ______ ____
ROOT
ATOM      1  C   UNL     1      -0.019   1.526   0.010  0.00  0.00    -0.009 C 
ATOM      2  C   UNL     1       0.002  -0.004   0.002  0.00  0.00    -0.044 C 
ENDROOT
BRANCH   2   3
ATOM      3  C   UNL     1      -1.412  -0.526   0.013  0.00  0.00    -0.062 A 
ATOM      4  C   UNL     1      -2.123  -0.571   1.197  0.00  0.00    +0.004 A 
ATOM      5  C   UNL     1      -3.420  -1.049   1.207  0.00  0.00    +0.029 A 
ATOM      6  C   UNL     1      -4.006  -1.482   0.032  0.00  0.00    +0.105 A 
ATOM      7  C   UNL     1      -3.295  -1.436  -1.153  0.00  0.00    +0.029 A 
ATOM      8  C   UNL     1      -2.000  -0.954  -1.163  0.00  0.00    +0.004 A 
BRANCH   6   9
ATOM      9  S   UNL     1      -5.658  -2.093   0.045  0.00  0.00    +0.058 S 
ATOM     10  O   UNL     1      -5.785  -2.944  -1.086  0.00  0.00    -0.153 OA
ATOM     11  O   UNL     1      -5.915  -2.542   1.369  0.00  0.00    -0.153 OA
BRANCH   9  12
ATOM     12  N   UNL     1      -6.660  -0.801  -0.219  0.00  0.00    -0.193 NA
ATOM     13  C   UNL     1      -6.617  -0.091  -1.500  0.00  0.00    +0.127 C 
ATOM     14  H   UNL     1      -7.275  -0.515   0.474  0.00  0.00    +0.148 HD
ENDBRANCH   9  12
ENDBRANCH   6   9
ENDBRANCH   2   3
BRANCH   2  15
ATOM     15  N   UNL     1       0.713  -0.491   1.192  0.00  0.00    +0.386 N 
ATOM     16  H   UNL     1       0.290  -0.099   2.020  0.00  0.00    -0.085 HD
ATOM     17  H   UNL     1       0.655  -1.497   1.230  0.00  0.00    -0.085 HD
BRANCH  15  18
ATOM     18  C   UNL     1       2.122  -0.083   1.122  0.00  0.00    -0.044 C 
BRANCH  18  19
ATOM     19  C   UNL     1       2.851  -0.582   2.343  0.00  0.00    -0.046 A 
ATOM     20  C   UNL     1       3.094   0.274   3.401  0.00  0.00    +0.004 A 
ATOM     21  C   UNL     1       3.763  -0.183   4.521  0.00  0.00    +0.020 A 
ATOM     22  C   UNL     1       4.188  -1.498   4.584  0.00  0.00    +0.042 A 
ATOM     23  C   UNL     1       3.945  -2.355   3.526  0.00  0.00    +0.040 A 
ATOM     24  C   UNL     1       3.271  -1.898   2.407  0.00  0.00    +0.044 A 
ATOM     25 CL   UNL     1       2.959  -2.975   1.082  0.00  0.00    -0.083 Cl
ATOM     26 CL   UNL     1       5.028  -2.072   5.991  0.00  0.00    -0.083 Cl
ENDBRANCH  18  19
ENDBRANCH  15  18
ENDBRANCH   2  15
TORSDOF 6
