REMARK  Name = ZINC41649339
REMARK  5 active torsions:
REMARK  status: ('A' for Active; 'I' for Inactive)
REMARK    1  A    between atoms: C_1  and  C_2
REMARK    2  A    between atoms: C_2  and  C_4
REMARK    3  A    between atoms: C_2  and  N_12
REMARK    4  A    between atoms: N_12  and  C_13
REMARK    5  A    between atoms: C_17  and  N_19
REMARK                            x       y       z     vdW  Elec       q    Type
REMARK                         _______ _______ _______ _____ _____    ______ ____
ROOT
ATOM      1  N   UNL     1      -1.372  -0.511   0.012  0.00  0.00    -0.337 N 
ATOM      2  H   UNL     1      -1.810  -0.743  -0.822  0.00  0.00    +0.147 HD
ENDROOT
BRANCH   1   3
ATOM      3  C   UNL     1      -2.053  -0.660   1.223  0.00  0.00    +0.030 A 
ATOM      4  C   UNL     1      -1.429  -0.323   2.418  0.00  0.00    +0.023 A 
ATOM      5  C   UNL     1      -2.105  -0.471   3.613  0.00  0.00    +0.004 A 
ATOM      6  C   UNL     1      -3.400  -0.955   3.622  0.00  0.00    +0.033 A 
ATOM      7  C   UNL     1      -4.023  -1.292   2.434  0.00  0.00    +0.128 A 
ATOM      8  C   UNL     1      -3.356  -1.141   1.235  0.00  0.00    +0.055 A 
BRANCH   7   9
ATOM      9  N   UNL     1      -5.410  -1.811   2.448  0.00  0.00    +0.056 N 
ATOM     10  O   UNL     1      -5.997  -1.939   3.498  0.00  0.00    -0.126 OA
ATOM     11  O   UNL     1      -5.955  -2.106   1.411  0.00  0.00    -0.126 OA
ENDBRANCH   7   9
ENDBRANCH   1   3
BRANCH   1  13
ATOM     12  C   UNL     1      -0.019   1.526   0.010  0.00  0.00    +0.033 C 
ATOM     13  C   UNL     1       0.002  -0.004   0.002  0.00  0.00    +0.099 C 
BRANCH  13  14
ATOM     14  C   UNL     1       0.707  -0.490  -1.238  0.00  0.00    -0.014 A 
ATOM     15  C   UNL     1      -0.023  -0.817  -2.365  0.00  0.00    +0.007 A 
ATOM     16  C   UNL     1       0.624  -1.262  -3.503  0.00  0.00    +0.015 A 
ATOM     17  C   UNL     1       2.002  -1.381  -3.514  0.00  0.00    +0.019 A 
ATOM     18  C   UNL     1       2.733  -1.054  -2.386  0.00  0.00    +0.031 A 
ATOM     19  C   UNL     1       2.086  -0.603  -1.250  0.00  0.00    +0.024 A 
ATOM     20 BR   UNL     1       3.085  -0.149   0.290  0.00  0.00    -0.050 Br
ATOM     21 BR   UNL     1       2.886  -1.991  -5.070  0.00  0.00    -0.050 Br
ENDBRANCH  13  14
ENDBRANCH   1  13
TORSDOF 4
