REMARK  Name = ZINC39521533
REMARK  5 active torsions:
REMARK  status: ('A' for Active; 'I' for Inactive)
REMARK    1  A    between atoms: C_1  and  C_2
REMARK    2  A    between atoms: C_2  and  O_3
REMARK    3  A    between atoms: O_3  and  C_4
REMARK    4  A    between atoms: N_10  and  C_11
REMARK    5  A    between atoms: C_16  and  O_17
REMARK                            x       y       z     vdW  Elec       q    Type
REMARK                         _______ _______ _______ _____ _____    ______ ____
ROOT
ATOM      1  C   UNL     1      -1.416   0.342   0.029  0.00  0.00    +0.206 C 
ATOM      2  C   UNL     1      -2.834   0.712  -0.417  0.00  0.00    +0.052 C 
ATOM      3  C   UNL     1      -3.460  -0.475  -1.152  0.00  0.00    +0.006 C 
ATOM      4  C   UNL     1      -3.549  -1.675  -0.205  0.00  0.00    +0.026 C 
ATOM      5  C   UNL     1      -2.140  -2.070   0.245  0.00  0.00    +0.039 C 
ATOM      6  N   UNL     1      -1.474  -0.894   0.821  0.00  0.00    -0.296 N 
ATOM      7  C   UNL     1      -2.228  -3.174   1.299  0.00  0.00    +0.026 C 
ATOM      8  C   UNL     1      -0.818  -3.561   1.750  0.00  0.00    +0.003 C 
ATOM      9  C   UNL     1      -0.018  -4.063   0.547  0.00  0.00    +0.019 C 
ATOM     10  C   UNL     1       0.071  -2.956  -0.505  0.00  0.00    +0.083 C 
ATOM     11  C   UNL     1      -1.338  -2.569  -0.957  0.00  0.00    +0.045 C 
ATOM     12 CL   UNL     1       0.891  -1.516   0.206  0.00  0.00    -0.122 Cl
ENDROOT
BRANCH   6  13
ATOM     13  C   UNL     1      -0.907  -0.950   2.099  0.00  0.00    +0.074 A 
ATOM     14  C   UNL     1       0.440  -0.667   2.276  0.00  0.00    +0.027 A 
ATOM     15  C   UNL     1       0.996  -0.722   3.540  0.00  0.00    +0.002 A 
ATOM     16  C   UNL     1       0.214  -1.058   4.630  0.00  0.00    +0.004 A 
ATOM     17  C   UNL     1      -1.129  -1.341   4.461  0.00  0.00    +0.047 A 
ATOM     18  C   UNL     1      -1.696  -1.283   3.199  0.00  0.00    +0.138 A 
BRANCH  18  19
ATOM     19  O   UNL     1      -3.018  -1.556   3.032  0.00  0.00    -0.505 OA
ATOM     20  H   UNL     1      -3.294  -2.405   3.403  0.00  0.00    +0.292 HD
ENDBRANCH  18  19
ENDBRANCH   6  13
BRANCH   1  21
ATOM     21  O   UNL     1      -0.874   1.397   0.826  0.00  0.00    -0.359 OA
BRANCH  21  23
ATOM     22  C   UNL     1       0.916   2.936   1.343  0.00  0.00    +0.034 C 
ATOM     23  C   UNL     1       0.386   1.887   0.364  0.00  0.00    +0.159 C 
ENDBRANCH  21  23
ENDBRANCH   1  21
TORSDOF 4
