REMARK  Name = ZINC40010142
REMARK  6 active torsions:
REMARK  status: ('A' for Active; 'I' for Inactive)
REMARK    1  A    between atoms: C_1  and  C_2
REMARK    2  A    between atoms: C_9  and  C_14
REMARK    3  A    between atoms: C_18  and  O_27
REMARK    4  A    between atoms: C_19  and  O_25
REMARK    5  A    between atoms: O_25  and  C_26
REMARK    6  A    between atoms: O_27  and  C_28
REMARK                            x       y       z     vdW  Elec       q    Type
REMARK                         _______ _______ _______ _____ _____    ______ ____
ROOT
ATOM      1  C   UNL     1       1.319  -4.874   2.934  0.00  0.00    -0.025 C 
ATOM      2  C   UNL     1       1.421  -4.199   4.277  0.00  0.00    -0.054 A 
ATOM      3  C   UNL     1       1.125  -2.846   4.360  0.00  0.00    +0.051 A 
ATOM      4  C   UNL     1       1.209  -2.185   5.572  0.00  0.00    +0.162 A 
ATOM      5  C   UNL     1       1.592  -2.882   6.714  0.00  0.00    +0.162 A 
ATOM      6  C   UNL     1       1.884  -4.232   6.627  0.00  0.00    +0.053 A 
ATOM      7  C   UNL     1       1.798  -4.889   5.409  0.00  0.00    -0.044 A 
ATOM      8  C   UNL     1       2.119  -6.362   5.361  0.00  0.00    +0.016 C 
ATOM      9  C   UNL     1       2.355  -6.793   3.913  0.00  0.00    -0.077 C 
ATOM     10  N   UNL     1       1.225  -6.328   3.095  0.00  0.00    +0.385 N 
ATOM     11  H   UNL     1       0.357  -6.561   3.554  0.00  0.00    -0.085 HD
ATOM     12  H   UNL     1       1.260  -6.771   2.189  0.00  0.00    -0.085 HD
ENDROOT
BRANCH   1  21
ATOM     13  C   UNL     1      -1.790  -7.215  -3.054  0.00  0.00    +0.044 C 
ATOM     14  C   UNL     1      -1.808  -6.755  -1.619  0.00  0.00    -0.050 A 
ATOM     15  C   UNL     1      -2.873  -7.125  -0.797  0.00  0.00    +0.005 A 
ATOM     16  C   UNL     1      -2.958  -6.748   0.506  0.00  0.00    +0.024 A 
ATOM     17  C   UNL     1      -1.953  -5.953   1.086  0.00  0.00    +0.040 A 
ATOM     18  N   UNL     1      -2.047  -5.590   2.365  0.00  0.00    -0.285 N 
ATOM     19  C   UNL     1      -1.139  -4.844   2.973  0.00  0.00    +0.223 C 
ATOM     20  O   UNL     1      -1.279  -4.544   4.144  0.00  0.00    -0.275 OA
ATOM     21  C   UNL     1       0.073  -4.365   2.207  0.00  0.00    +0.089 C 
ATOM     22  C   UNL     1       0.185  -4.776   0.751  0.00  0.00    -0.006 C 
ATOM     23  C   UNL     1      -0.817  -5.547   0.241  0.00  0.00    -0.007 A 
ATOM     24  C   UNL     1      -0.786  -5.992  -1.153  0.00  0.00    +0.012 A 
ATOM     25  H   UNL     1      -2.817  -5.887   2.875  0.00  0.00    +0.155 HD
ENDBRANCH   1  21
BRANCH   5  26
ATOM     26  O   UNL     1       1.679  -2.240   7.910  0.00  0.00    -0.491 OA
ATOM     27  C   UNL     1       2.078  -3.022   9.038  0.00  0.00    +0.277 C 
ENDBRANCH   5  26
BRANCH   4  28
ATOM     28  O   UNL     1       0.917  -0.859   5.648  0.00  0.00    -0.491 OA
ATOM     29  C   UNL     1       0.531  -0.209   4.435  0.00  0.00    +0.277 C 
ENDBRANCH   4  28
TORSDOF 3
