REMARK  Name = ZINC35432649
REMARK  5 active torsions:
REMARK  status: ('A' for Active; 'I' for Inactive)
REMARK    1  A    between atoms: C_1  and  C_2
REMARK    2  A    between atoms: C_2  and  C_3
REMARK    3  A    between atoms: C_6  and  S_9
REMARK    4  A    between atoms: S_9  and  N_12
REMARK    5  A    between atoms: C_21  and  C_23
REMARK                            x       y       z     vdW  Elec       q    Type
REMARK                         _______ _______ _______ _____ _____    ______ ____
ROOT
ATOM      1  N   UNL     1       3.300  -0.612  -5.813  0.00  0.00    -0.176 NA
ATOM      2  C   UNL     1       2.412  -0.010  -6.817  0.00  0.00    +0.113 C 
ATOM      3  C   UNL     1       3.170   0.098  -8.145  0.00  0.00    +0.067 C 
ATOM      4  C   UNL     1       4.479   0.855  -7.920  0.00  0.00    +0.130 C 
ATOM      5  C   UNL     1       5.355   0.104  -6.918  0.00  0.00    +0.067 C 
ATOM      6  C   UNL     1       4.615   0.000  -5.575  0.00  0.00    +0.113 C 
ATOM      7  N   UNL     1       5.193   1.005  -9.194  0.00  0.00    -0.286 N 
ATOM      8  C   UNL     1       5.311   2.331  -9.414  0.00  0.00    +0.264 C 
ATOM      9  O   UNL     1       5.847   2.845 -10.375  0.00  0.00    -0.268 OA
ATOM     10  C   UNL     1       4.676   3.057  -8.285  0.00  0.00    +0.130 C 
ATOM     11  N   UNL     1       4.199   2.207  -7.430  0.00  0.00    -0.252 NA
ATOM     12  H   UNL     1       5.516   0.291  -9.764  0.00  0.00    +0.151 HD
ENDROOT
BRANCH  10  13
ATOM     13  C   UNL     1       4.598   4.529  -8.155  0.00  0.00    +0.005 A 
ATOM     14  C   UNL     1       3.980   5.103  -7.043  0.00  0.00    +0.011 A 
ATOM     15  C   UNL     1       3.911   6.475  -6.927  0.00  0.00    +0.016 A 
ATOM     16  C   UNL     1       4.453   7.284  -7.912  0.00  0.00    +0.018 A 
ATOM     17  C   UNL     1       5.068   6.721  -9.018  0.00  0.00    +0.016 A 
ATOM     18  C   UNL     1       5.148   5.349  -9.141  0.00  0.00    +0.011 A 
ATOM     19 BR   UNL     1       4.354   9.165  -7.746  0.00  0.00    -0.050 Br
ENDBRANCH  10  13
BRANCH   1  20
ATOM     20  S   UNL     1       2.826  -1.951  -4.962  0.00  0.00    +0.061 S 
ATOM     21  O   UNL     1       4.014  -2.596  -4.526  0.00  0.00    -0.153 OA
ATOM     22  O   UNL     1       1.847  -2.610  -5.754  0.00  0.00    -0.153 OA
BRANCH  20  26
ATOM     23  C   UNL     1       0.707  -0.490  -1.238  0.00  0.00    -0.048 A 
ATOM     24  C   UNL     1      -0.011  -0.719  -2.397  0.00  0.00    +0.005 A 
ATOM     25  C   UNL     1       0.636  -1.164  -3.534  0.00  0.00    +0.029 A 
ATOM     26  C   UNL     1       2.002  -1.381  -3.513  0.00  0.00    +0.105 A 
ATOM     27  C   UNL     1       2.720  -1.152  -2.354  0.00  0.00    +0.029 A 
ATOM     28  C   UNL     1       2.073  -0.702  -1.218  0.00  0.00    +0.005 A 
BRANCH  23  30
ATOM     29  C   UNL     1      -0.019   1.526   0.010  0.00  0.00    +0.009 C 
ATOM     30  C   UNL     1       0.002  -0.004   0.002  0.00  0.00    +0.032 C 
ENDBRANCH  23  30
ENDBRANCH  20  26
ENDBRANCH   1  20
TORSDOF 4
