REMARK  Name = ZINC49320588
REMARK  5 active torsions:
REMARK  status: ('A' for Active; 'I' for Inactive)
REMARK    1  A    between atoms: C_1  and  C_2
REMARK    2  A    between atoms: C_3  and  C_20
REMARK    3  A    between atoms: C_7  and  C_8
REMARK    4  A    between atoms: N_10  and  C_11
REMARK    5  A    between atoms: C_11  and  C_12
REMARK                            x       y       z     vdW  Elec       q    Type
REMARK                         _______ _______ _______ _____ _____    ______ ____
ROOT
ATOM      1  C   UNL     1      -0.018   1.503   0.010  0.00  0.00    +0.047 C 
ATOM      2  C   UNL     1       0.002  -0.004   0.002  0.00  0.00    -0.007 A 
ATOM      3  C   UNL     1       0.006  -0.712  -1.188  0.00  0.00    +0.065 A 
ATOM      4  N   UNL     1       0.025  -2.030  -1.175  0.00  0.00    -0.152 NA
ATOM      5  N   UNL     1       0.039  -2.712  -0.089  0.00  0.00    -0.133 NA
ATOM      6  C   UNL     1       0.037  -2.138   1.105  0.00  0.00    +0.159 A 
ATOM      7  C   UNL     1       0.023  -0.733   1.198  0.00  0.00    +0.098 A 
ATOM      8  N   UNL     1       0.053  -2.913   2.253  0.00  0.00    -0.322 N 
ATOM      9  C   UNL     1      -0.011   0.026  -2.502  0.00  0.00    +0.068 C 
ATOM     10  H   UNL     1       0.051  -2.489   3.125  0.00  0.00    +0.148 HD
ENDROOT
BRANCH   7  11
ATOM     11  C   UNL     1       0.026  -0.073   2.469  0.00  0.00    +0.103 C 
ATOM     12  N   UNL     1       0.029   0.450   3.477  0.00  0.00    -0.191 NA
ENDBRANCH   7  11
BRANCH   8  13
ATOM     13  C   UNL     1       0.072  -4.374   2.149  0.00  0.00    +0.139 C 
BRANCH  13  14
ATOM     14  C   UNL     1       0.087  -4.975   3.531  0.00  0.00    -0.012 A 
ATOM     15  C   UNL     1       1.275  -5.421   4.079  0.00  0.00    +0.008 A 
ATOM     16  C   UNL     1       1.289  -5.972   5.346  0.00  0.00    +0.016 A 
ATOM     17  C   UNL     1       0.113  -6.079   6.067  0.00  0.00    +0.019 A 
ATOM     18  C   UNL     1      -1.076  -5.633   5.520  0.00  0.00    +0.035 A 
ATOM     19  C   UNL     1      -1.089  -5.077   4.254  0.00  0.00    +0.047 A 
ATOM     20 CL   UNL     1      -2.580  -4.512   3.569  0.00  0.00    -0.083 Cl
ATOM     21 BR   UNL     1       0.133  -6.835   7.801  0.00  0.00    -0.050 Br
ENDBRANCH  13  14
ENDBRANCH   8  13
TORSDOF 3
