REMARK  Name = ZINC03885265
REMARK  3 active torsions:
REMARK  status: ('A' for Active; 'I' for Inactive)
REMARK    1  A    between atoms: C_3  and  C_6
REMARK    2  A    between atoms: C_16  and  C_18
REMARK    3  A    between atoms: C_23  and  C_25
REMARK                            x       y       z     vdW  Elec       q    Type
REMARK                         _______ _______ _______ _____ _____    ______ ____
ROOT
ATOM      1  C   UNL     1      -2.510   1.422   0.020  0.00  0.00    +0.051 C 
ATOM      2  C   UNL     1      -3.518   2.326   0.029  0.00  0.00    -0.021 C 
ATOM      3  C   UNL     1      -3.197   3.790   0.042  0.00  0.00    +0.037 C 
ATOM      4  C   UNL     1      -4.404   4.691   0.206  0.00  0.00    +0.005 C 
ATOM      5  C   UNL     1      -5.676   4.127  -0.423  0.00  0.00    +0.012 C 
ATOM      6  C   UNL     1      -6.024   2.821   0.295  0.00  0.00    +0.069 C 
ATOM      7  C   UNL     1      -4.856   1.875   0.032  0.00  0.00    +0.068 C 
ATOM      8  N   UNL     1      -5.336   0.699  -0.188  0.00  0.00    -0.181 NA
ATOM      9  N   UNL     1      -6.728   0.682  -0.336  0.00  0.00    -0.181 N 
ATOM     10  C   UNL     1      -7.193   2.087  -0.384  0.00  0.00    +0.176 C 
ATOM     11  C   UNL     1      -7.505  -0.416  -0.418  0.00  0.00    +0.250 C 
ATOM     12  O   UNL     1      -8.706  -0.300  -0.545  0.00  0.00    -0.273 OA
ENDROOT
BRANCH   1  15
ATOM     13  C   UNL     1       1.104   1.930   0.002  0.00  0.00    +0.042 A 
ATOM     14  C   UNL     1      -0.013   1.076   0.008  0.00  0.00    +0.049 A 
ATOM     15  C   UNL     1      -1.121   1.877   0.017  0.00  0.00    +0.128 A 
ATOM     16  O   UNL     1      -0.707   3.161   0.025  0.00  0.00    -0.464 OA
ATOM     17  C   UNL     1       0.636   3.196   0.013  0.00  0.00    +0.195 A 
ENDBRANCH   1  15
BRANCH  10  18
ATOM     18  C   UNL     1      -7.367   2.550  -1.808  0.00  0.00    +0.128 A 
ATOM     19  C   UNL     1      -8.279   3.440  -2.240  0.00  0.00    +0.046 A 
ATOM     20  C   UNL     1      -8.089   3.577  -3.634  0.00  0.00    +0.041 A 
ATOM     21  C   UNL     1      -7.072   2.763  -3.971  0.00  0.00    +0.195 A 
ATOM     22  O   UNL     1      -6.636   2.148  -2.860  0.00  0.00    -0.466 OA
ENDBRANCH  10  18
BRANCH  11  23
ATOM     23  C   UNL     1      -6.883  -1.787  -0.353  0.00  0.00    +0.206 C 
ATOM     24 CL   UNL     1      -8.172  -3.039  -0.489  0.00  0.00    -0.116 Cl
ENDBRANCH  11  23
TORSDOF 3
