REMARK  Name = ZINC09382635
REMARK  8 active torsions:
REMARK  status: ('A' for Active; 'I' for Inactive)
REMARK    1  A    between atoms: C_1  and  C_2
REMARK    2  A    between atoms: C_2  and  C_4
REMARK    3  A    between atoms: C_2  and  N_23
REMARK    4  A    between atoms: C_4  and  C_6
REMARK    5  A    between atoms: C_4  and  N_57
REMARK    6  A    between atoms: N_13  and  C_16
REMARK    7  A    between atoms: N_23  and  S_24
REMARK    8  A    between atoms: S_24  and  C_27
REMARK                            x       y       z     vdW  Elec       q    Type
REMARK                         _______ _______ _______ _____ _____    ______ ____
ROOT
ATOM      1  C   UNL     1       4.146  -0.189  -3.905  0.00  0.00    -0.012 C 
ENDROOT
BRANCH   1   7
ATOM      2  C   UNL     1       3.773   2.154  -4.388  0.00  0.00    -0.059 C 
ATOM      3  C   UNL     1       4.111   3.282  -5.366  0.00  0.00    +0.086 C 
ATOM      4  N   UNL     1       3.620   2.929  -6.706  0.00  0.00    -0.331 N 
ATOM      5  C   UNL     1       4.231   1.678  -7.175  0.00  0.00    +0.086 C 
ATOM      6  C   UNL     1       3.894   0.550  -6.197  0.00  0.00    -0.059 C 
ATOM      7  N   UNL     1       4.412   0.907  -4.860  0.00  0.00    +0.388 N 
ATOM      8  H   UNL     1       5.426   1.056  -4.924  0.00  0.00    -0.081 HD
BRANCH   4   9
ATOM      9  C   UNL     1       3.847   3.969  -7.613  0.00  0.00    +0.065 A 
ATOM     10  C   UNL     1       3.390   3.865  -8.919  0.00  0.00    +0.026 A 
ATOM     11  C   UNL     1       3.613   4.896  -9.812  0.00  0.00    +0.002 A 
ATOM     12  C   UNL     1       4.298   6.027  -9.409  0.00  0.00    +0.003 A 
ATOM     13  C   UNL     1       4.759   6.134  -8.110  0.00  0.00    +0.040 A 
ATOM     14  C   UNL     1       4.536   5.108  -7.209  0.00  0.00    +0.144 A 
ATOM     15  F   UNL     1       4.988   5.212  -5.940  0.00  0.00    -0.204 F 
ENDBRANCH   4   9
ENDBRANCH   1   7
BRANCH   1  16
ATOM     16  C   UNL     1       2.681  -0.541  -3.900  0.00  0.00    -0.022 A 
ATOM     17  C   UNL     1       2.095  -1.759  -3.993  0.00  0.00    +0.009 A 
ATOM     18  C   UNL     1       0.716  -1.844  -3.963  0.00  0.00    +0.008 A 
ATOM     19  C   UNL     1      -0.011  -0.705  -3.852  0.00  0.00    +0.045 A 
ATOM     20  S   UNL     1       1.266   0.541  -3.778  0.00  0.00    -0.103 S 
ENDBRANCH   1  16
BRANCH   1  22
ATOM     21  C   UNL     1       6.057   0.612  -2.508  0.00  0.00    +0.024 C 
ATOM     22  C   UNL     1       4.569   0.255  -2.503  0.00  0.00    +0.065 C 
BRANCH  22  23
ATOM     23  N   UNL     1       4.331  -0.834  -1.553  0.00  0.00    -0.188 NA
ATOM     24  H   UNL     1       4.456  -1.756  -1.830  0.00  0.00    +0.148 HD
BRANCH  23  25
ATOM     25  S   UNL     1       3.849  -0.493  -0.006  0.00  0.00    +0.059 S 
ATOM     26  O   UNL     1       4.730   0.510   0.482  0.00  0.00    -0.153 OA
ATOM     27  O   UNL     1       3.679  -1.742   0.651  0.00  0.00    -0.153 OA
BRANCH  25  28
ATOM     28  C   UNL     1       2.253   0.245  -0.108  0.00  0.00    +0.105 A 
ATOM     29  C   UNL     1       1.121  -0.548  -0.067  0.00  0.00    +0.028 A 
ATOM     30  C   UNL     1      -0.132   0.030  -0.147  0.00  0.00    +0.002 A 
ATOM     31  C   UNL     1      -0.253   1.402  -0.268  0.00  0.00    +0.000 A 
ATOM     32  C   UNL     1       0.879   2.195  -0.309  0.00  0.00    +0.002 A 
ATOM     33  C   UNL     1       2.131   1.616  -0.229  0.00  0.00    +0.028 A 
ENDBRANCH  25  28
ENDBRANCH  23  25
ENDBRANCH  22  23
ENDBRANCH   1  22
TORSDOF 7
