REMARK  Name = ZINC04670517
REMARK  5 active torsions:
REMARK  status: ('A' for Active; 'I' for Inactive)
REMARK    1  A    between atoms: C_1  and  O_2
REMARK    2  A    between atoms: O_2  and  C_3
REMARK    3  A    between atoms: C_5  and  C_11
REMARK    4  A    between atoms: C_8  and  O_9
REMARK    5  A    between atoms: N_12  and  N_13
REMARK                            x       y       z     vdW  Elec       q    Type
REMARK                         _______ _______ _______ _____ _____    ______ ____
ROOT
ATOM      1  C   UNL     1      -2.875   8.055   0.070  0.00  0.00    +0.163 A 
ATOM      2  C   UNL     1      -1.644   7.425   0.055  0.00  0.00    +0.059 A 
ATOM      3  C   UNL     1      -1.577   6.030   0.048  0.00  0.00    -0.001 A 
ATOM      4  C   UNL     1      -2.754   5.277   0.049  0.00  0.00    +0.028 A 
ATOM      5  C   UNL     1      -3.979   5.913   0.070  0.00  0.00    +0.063 A 
ATOM      6  C   UNL     1      -4.045   7.299   0.077  0.00  0.00    +0.173 A 
ATOM      7 BR   UNL     1      -5.571   4.892   0.079  0.00  0.00    -0.046 Br
ENDROOT
BRANCH   1   9
ATOM      8  C   UNL     1      -1.705  10.125   0.070  0.00  0.00    +0.277 C 
ATOM      9  O   UNL     1      -2.944   9.413   0.077  0.00  0.00    -0.491 OA
ENDBRANCH   1   9
BRANCH   6  10
ATOM     10  O   UNL     1      -5.254   7.920   0.091  0.00  0.00    -0.503 OA
ATOM     11  H   UNL     1      -5.612   8.105  -0.788  0.00  0.00    +0.292 HD
ENDBRANCH   6  10
BRANCH   3  12
ATOM     12  C   UNL     1      -0.267   5.353   0.032  0.00  0.00    +0.138 C 
ATOM     13  N   UNL     1      -0.207   4.056   0.025  0.00  0.00    -0.189 NA
BRANCH  13  14
ATOM     14  N   UNL     1       1.038   3.413   0.010  0.00  0.00    -0.221 N 
ATOM     15  C   UNL     1       1.103   2.026   0.002  0.00  0.00    +0.140 A 
ATOM     16  C   UNL     1       2.342   1.393  -0.013  0.00  0.00    +0.045 A 
ATOM     17  C   UNL     1       2.393   0.011  -0.021  0.00  0.00    +0.006 A 
ATOM     18  C   UNL     1       1.199  -0.696  -0.013  0.00  0.00    +0.040 A 
ATOM     19  C   UNL     1       0.002  -0.004   0.002  0.00  0.00    +0.131 A 
ATOM     20  N   UNL     1      -0.016   1.316   0.009  0.00  0.00    -0.219 NA
ATOM     21 CL   UNL     1      -1.496  -0.882   0.012  0.00  0.00    -0.062 Cl
ATOM     22  H   UNL     1       1.855   3.937   0.005  0.00  0.00    +0.176 HD
ENDBRANCH  13  14
ENDBRANCH   3  12
TORSDOF 4
