REMARK  Name = ZINC39227259
REMARK  5 active torsions:
REMARK  status: ('A' for Active; 'I' for Inactive)
REMARK    1  A    between atoms: C_1  and  C_2
REMARK    2  A    between atoms: N_15  and  C_18
REMARK    3  A    between atoms: C_18  and  C_19
REMARK    4  A    between atoms: N_21  and  C_22
REMARK    5  A    between atoms: C_23  and  C_27
REMARK                            x       y       z     vdW  Elec       q    Type
REMARK                         _______ _______ _______ _____ _____    ______ ____
ROOT
ATOM      1  C   UNL     1      -0.018   1.503   0.010  0.00  0.00    +0.044 C 
ATOM      2  C   UNL     1       0.002  -0.004   0.002  0.00  0.00    -0.050 A 
ATOM      3  C   UNL     1       0.006  -0.689  -1.203  0.00  0.00    +0.007 A 
ATOM      4  C   UNL     1       0.020  -2.069  -1.230  0.00  0.00    +0.046 A 
ATOM      5  C   UNL     1       0.033  -2.788  -0.043  0.00  0.00    +0.132 A 
ATOM      6  C   UNL     1       0.037  -2.094   1.178  0.00  0.00    +0.059 A 
ATOM      7  C   UNL     1       0.023  -0.698   1.193  0.00  0.00    +0.018 A 
ATOM      8  C   UNL     1       0.068  -2.860   2.436  0.00  0.00    +0.170 C 
ATOM      9  O   UNL     1       0.289  -2.326   3.503  0.00  0.00    -0.292 OA
ATOM     10  C   UNL     1      -0.190  -4.352   2.328  0.00  0.00    +0.127 C 
ATOM     11  C   UNL     1       0.530  -4.848   1.067  0.00  0.00    +0.114 C 
ATOM     12  O   UNL     1       0.039  -4.141  -0.071  0.00  0.00    -0.485 OA
ATOM     13  C   UNL     1       0.273  -6.346   0.893  0.00  0.00    +0.030 C 
ATOM     14  C   UNL     1       1.063  -6.857  -0.314  0.00  0.00    -0.074 C 
ATOM     15  N   UNL     1       2.497  -6.624  -0.098  0.00  0.00    +0.386 N 
ATOM     16  C   UNL     1       2.759  -5.183  -0.005  0.00  0.00    -0.074 C 
ATOM     17  C   UNL     1       2.034  -4.607   1.214  0.00  0.00    +0.030 C 
ATOM     18  H   UNL     1       2.784  -7.074   0.758  0.00  0.00    -0.081 HD
ENDROOT
BRANCH  15  19
ATOM     19  C   UNL     1       3.257  -7.187  -1.222  0.00  0.00    +0.019 C 
BRANCH  19  20
ATOM     20  C   UNL     1       4.733  -7.058  -0.945  0.00  0.00    +0.201 C 
ATOM     21  O   UNL     1       5.113  -6.548   0.088  0.00  0.00    -0.278 OA
ATOM     22  N   UNL     1       5.630  -7.510  -1.844  0.00  0.00    -0.281 N 
ATOM     23  H   UNL     1       5.325  -7.918  -2.669  0.00  0.00    +0.155 HD
BRANCH  22  24
ATOM     24  C   UNL     1       6.989  -7.391  -1.588  0.00  0.00    +0.089 A 
ATOM     25  C   UNL     1       8.045  -7.790  -2.392  0.00  0.00    +0.080 A 
ATOM     26  C   UNL     1       9.374  -7.546  -1.882  0.00  0.00    +0.028 A 
ATOM     27  C   UNL     1       9.440  -6.954  -0.674  0.00  0.00    +0.048 A 
ATOM     28  S   UNL     1       7.730  -6.725  -0.238  0.00  0.00    -0.081 S 
BRANCH  25  29
ATOM     29  C   UNL     1       7.829  -8.414  -3.663  0.00  0.00    +0.102 C 
ATOM     30  N   UNL     1       7.658  -8.908  -4.672  0.00  0.00    -0.191 NA
ENDBRANCH  25  29
ENDBRANCH  22  24
ENDBRANCH  19  20
ENDBRANCH  15  19
TORSDOF 4
