REMARK  Name = ZINC31857555
REMARK  9 active torsions:
REMARK  status: ('A' for Active; 'I' for Inactive)
REMARK    1  A    between atoms: C_1  and  C_2
REMARK    2  A    between atoms: C_3  and  C_8
REMARK    3  A    between atoms: N_10  and  N_11
REMARK    4  A    between atoms: C_12  and  C_13
REMARK    5  A    between atoms: C_16  and  O_21
REMARK    6  A    between atoms: C_17  and  O_19
REMARK    7  A    between atoms: O_19  and  C_20
REMARK    8  A    between atoms: O_21  and  C_22
REMARK    9  A    between atoms: C_22  and  C_23
REMARK                            x       y       z     vdW  Elec       q    Type
REMARK                         _______ _______ _______ _____ _____    ______ ____
ROOT
ATOM      1  C   UNL     1      -5.128   4.815   2.026  0.00  0.00    -0.002 A 
ATOM      2  C   UNL     1      -4.406   5.333   0.947  0.00  0.00    +0.013 A 
ATOM      3  C   UNL     1      -3.051   5.093   0.846  0.00  0.00    +0.050 A 
ATOM      4  C   UNL     1      -2.405   4.330   1.807  0.00  0.00    +0.162 A 
ATOM      5  C   UNL     1      -3.118   3.812   2.885  0.00  0.00    +0.162 A 
ATOM      6  C   UNL     1      -4.475   4.051   2.997  0.00  0.00    +0.059 A 
ENDROOT
BRANCH   1   8
ATOM      7  N   UNL     1      -7.235   5.524   1.116  0.00  0.00    -0.187 NA
ATOM      8  C   UNL     1      -6.575   5.074   2.139  0.00  0.00    +0.138 C 
BRANCH   7  11
ATOM      9  C   UNL     1      -7.383   5.847  -1.238  0.00  0.00    +0.272 C 
ATOM     10  O   UNL     1      -8.334   6.588  -1.062  0.00  0.00    -0.268 OA
ATOM     11  N   UNL     1      -6.774   5.271  -0.182  0.00  0.00    -0.202 N 
ATOM     12  H   UNL     1      -5.915   4.603  -0.341  0.00  0.00    +0.178 HD
BRANCH   9  15
ATOM     13  C   UNL     1      -8.554   6.992  -3.876  0.00  0.00    +0.067 C 
ATOM     14  C   UNL     1      -7.374   6.057  -3.809  0.00  0.00    +0.060 A 
ATOM     15  C   UNL     1      -6.902   5.584  -2.593  0.00  0.00    +0.100 A 
ATOM     16  S   UNL     1      -5.548   4.555  -3.143  0.00  0.00    -0.048 S 
ATOM     17  C   UNL     1      -5.723   4.842  -4.847  0.00  0.00    +0.156 A 
ATOM     18  N   UNL     1      -6.757   5.669  -4.895  0.00  0.00    -0.230 NA
ATOM     19  N   UNL     1      -4.974   4.337  -5.888  0.00  0.00    -0.337 N 
ATOM     20  H   UNL     1      -5.213   4.618  -6.925  0.00  0.00    +0.144 HD
ATOM     21  H   UNL     1      -4.137   3.653  -5.683  0.00  0.00    +0.144 HD
ENDBRANCH   9  15
ENDBRANCH   7  11
ENDBRANCH   1   8
BRANCH   5  22
ATOM     22  O   UNL     1      -2.479   3.068   3.829  0.00  0.00    -0.491 OA
ATOM     23  C   UNL     1      -3.272   2.568   4.907  0.00  0.00    +0.277 C 
ENDBRANCH   5  22
BRANCH   4  24
ATOM     24  O   UNL     1      -1.070   4.094   1.700  0.00  0.00    -0.484 OA
BRANCH  24  25
ATOM     25  C   UNL     1      -0.401   4.655   0.569  0.00  0.00    +0.264 C 
BRANCH  25  26
ATOM     26  C   UNL     1       1.061   4.290   0.619  0.00  0.00    -0.010 A 
ATOM     27  C   UNL     1       1.959   5.120   1.264  0.00  0.00    +0.008 A 
ATOM     28  C   UNL     1       3.300   4.788   1.305  0.00  0.00    +0.015 A 
ATOM     29  C   UNL     1       3.744   3.626   0.699  0.00  0.00    +0.018 A 
ATOM     30  C   UNL     1       2.845   2.797   0.053  0.00  0.00    +0.015 A 
ATOM     31  C   UNL     1       1.504   3.130   0.013  0.00  0.00    +0.008 A 
ATOM     32 BR   UNL     1       5.578   3.172   0.755  0.00  0.00    -0.050 Br
ENDBRANCH  25  26
ENDBRANCH  24  25
ENDBRANCH   4  24
TORSDOF 7
