REMARK  Name = ZINC21912546
REMARK  14 active torsions:
REMARK  status: ('A' for Active; 'I' for Inactive)
REMARK    1  A    between atoms: C_1  and  C_2
REMARK    2  A    between atoms: C_2  and  O_3
REMARK    3  A    between atoms: O_3  and  C_4
REMARK    4  A    between atoms: C_4  and  C_6
REMARK    5  A    between atoms: C_9  and  N_12
REMARK    6  A    between atoms: C_13  and  C_29
REMARK    7  A    between atoms: N_22  and  C_28
REMARK    8  A    between atoms: N_31  and  C_32
REMARK    9  A    between atoms: C_32  and  C_33
REMARK   10  A    between atoms: C_33  and  C_34
REMARK   11  A    between atoms: C_34  and  O_35
REMARK   12  A    between atoms: O_35  and  C_36
REMARK   13  A    between atoms: C_36  and  C_37
REMARK   14  A    between atoms: C_36  and  C_38
REMARK                            x       y       z     vdW  Elec       q    Type
REMARK                         _______ _______ _______ _____ _____    ______ ____
ROOT
ATOM      1  N   UNL     1       0.009   1.661   0.151  0.00  0.00    -0.255 N 
ATOM      2  C   UNL     1      -1.360   2.113   0.194  0.00  0.00    +0.200 C 
ATOM      3  C   UNL     1      -1.649   3.577   0.021  0.00  0.00    +0.021 A 
ATOM      4  C   UNL     1      -3.055   4.028   0.206  0.00  0.00    +0.006 A 
ATOM      5  C   UNL     1      -4.242   3.344   0.463  0.00  0.00    +0.010 A 
ATOM      6  C   UNL     1      -5.407   4.050   0.596  0.00  0.00    +0.001 A 
ATOM      7  C   UNL     1      -5.409   5.433   0.475  0.00  0.00    +0.002 A 
ATOM      8  C   UNL     1      -4.242   6.122   0.217  0.00  0.00    +0.026 A 
ATOM      9  C   UNL     1      -3.049   5.421   0.076  0.00  0.00    +0.050 A 
ATOM     10  N   UNL     1      -1.752   5.776  -0.188  0.00  0.00    -0.338 N 
ATOM     11  C   UNL     1      -0.938   4.638  -0.258  0.00  0.00    +0.083 A 
ATOM     12  S   UNL     1       0.777   4.906  -0.692  0.00  0.00    -0.098 S 
ATOM     13  C   UNL     1       1.641   3.674   0.335  0.00  0.00    +0.172 C 
ATOM     14  C   UNL     1       1.020   2.349   0.047  0.00  0.00    +0.231 C 
ATOM     15  O   UNL     1       1.855   1.679  -0.523  0.00  0.00    -0.274 OA
ATOM     16  C   UNL     1      -1.283   7.152  -0.369  0.00  0.00    +0.150 C 
ENDROOT
BRANCH   1  20
ATOM     17  C   UNL     1       0.600  -2.456   0.391  0.00  0.00    +0.059 A 
ATOM     18  C   UNL     1       1.135  -1.613   1.369  0.00  0.00    +0.017 A 
ATOM     19  C   UNL     1       0.938  -0.253   1.287  0.00  0.00    +0.024 A 
ATOM     20  C   UNL     1       0.207   0.283   0.231  0.00  0.00    +0.037 A 
ATOM     21  C   UNL     1      -0.333  -0.554  -0.741  0.00  0.00    +0.024 A 
ATOM     22  C   UNL     1      -0.135  -1.914  -0.668  0.00  0.00    +0.017 A 
BRANCH  17  23
ATOM     23  C   UNL     1       0.808  -3.913   0.476  0.00  0.00    +0.339 C 
ATOM     24  O   UNL     1       1.446  -4.383   1.397  0.00  0.00    -0.245 OA
BRANCH  23  25
ATOM     25  O   UNL     1       0.291  -4.724  -0.468  0.00  0.00    -0.461 OA
BRANCH  25  27
ATOM     26  C   UNL     1      -0.124  -6.901  -1.476  0.00  0.00    +0.048 C 
ATOM     27  C   UNL     1       0.536  -6.148  -0.320  0.00  0.00    +0.229 C 
ENDBRANCH  25  27
ENDBRANCH  23  25
ENDBRANCH  17  23
ENDBRANCH   1  20
BRANCH   2  28
ATOM     28  C   UNL     1      -1.935   1.696   1.523  0.00  0.00    +0.239 C 
ATOM     29  O   UNL     1      -1.352   1.973   2.550  0.00  0.00    -0.273 OA
ATOM     30  N   UNL     1      -3.097   1.015   1.571  0.00  0.00    -0.313 N 
ATOM     31  H   UNL     1      -3.580   0.684   0.639  0.00  0.00    +0.149 HD
BRANCH  30  32
ATOM     32  C   UNL     1      -3.718   0.716   2.864  0.00  0.00    +0.106 C 
BRANCH  32  33
ATOM     33  C   UNL     1      -5.018  -0.059   2.638  0.00  0.00    +0.047 C 
BRANCH  33  34
ATOM     34  C   UNL     1      -5.666  -0.372   3.988  0.00  0.00    +0.161 C 
BRANCH  34  35
ATOM     35  O   UNL     1      -6.880  -1.096   3.777  0.00  0.00    -0.377 OA
BRANCH  35  36
ATOM     36  C   UNL     1      -7.568  -1.440   4.981  0.00  0.00    +0.112 C 
ATOM     37  C   UNL     1      -8.544  -0.320   5.348  0.00  0.00    +0.037 C 
ATOM     38  C   UNL     1      -8.342  -2.743   4.772  0.00  0.00    +0.037 C 
ENDBRANCH  35  36
ENDBRANCH  34  35
ENDBRANCH  33  34
ENDBRANCH  32  33
ENDBRANCH  30  32
ENDBRANCH   2  28
TORSDOF 10
