REMARK  Name = ZINC39863791
REMARK  6 active torsions:
REMARK  status: ('A' for Active; 'I' for Inactive)
REMARK    1  A    between atoms: C_1  and  C_2
REMARK    2  A    between atoms: C_2  and  C_18
REMARK    3  A    between atoms: N_6  and  C_17
REMARK    4  A    between atoms: N_8  and  C_9
REMARK    5  A    between atoms: C_21  and  O_24
REMARK    6  A    between atoms: O_24  and  C_25
REMARK                            x       y       z     vdW  Elec       q    Type
REMARK                         _______ _______ _______ _____ _____    ______ ____
ROOT
ATOM      1  C   UNL     1      -0.224   1.575  -0.097  0.00  0.00    +0.045 C 
ATOM      2  C   UNL     1       0.010   0.087  -0.064  0.00  0.00    -0.024 C 
ATOM      3  C   UNL     1      -0.054  -0.584   1.114  0.00  0.00    +0.081 C 
ATOM      4  C   UNL     1      -0.340  -0.073   2.469  0.00  0.00    +0.259 C 
ATOM      5  O   UNL     1      -0.565   1.106   2.669  0.00  0.00    -0.269 OA
ATOM      6  N   UNL     1      -0.342  -0.955   3.454  0.00  0.00    -0.249 N 
ATOM      7  C   UNL     1      -0.085  -2.286   3.206  0.00  0.00    +0.168 C 
ATOM      8  N   UNL     1      -0.049  -3.284   4.061  0.00  0.00    -0.222 NA
ATOM      9  S   UNL     1       0.176  -2.326   1.441  0.00  0.00    -0.048 S 
ATOM     10  C   UNL     1      -0.618  -0.512   4.823  0.00  0.00    +0.140 C 
ENDROOT
BRANCH   8  11
ATOM     11  C   UNL     1      -0.165  -3.040   5.403  0.00  0.00    +0.103 A 
ATOM     12  C   UNL     1      -1.419  -3.057   6.024  0.00  0.00    +0.032 A 
ATOM     13  C   UNL     1      -1.482  -2.804   7.383  0.00  0.00    +0.022 A 
ATOM     14  C   UNL     1      -0.315  -2.546   8.079  0.00  0.00    +0.112 A 
ATOM     15  N   UNL     1       0.855  -2.536   7.469  0.00  0.00    -0.241 NA
ATOM     16  C   UNL     1       0.969  -2.776   6.178  0.00  0.00    +0.154 A 
ATOM     17 CL   UNL     1       2.536  -2.757   5.433  0.00  0.00    -0.060 Cl
ENDBRANCH   8  11
BRANCH   2  18
ATOM     18  C   UNL     1       0.307  -0.637  -1.306  0.00  0.00    -0.021 A 
ATOM     19  C   UNL     1       1.552  -1.255  -1.479  0.00  0.00    +0.012 A 
ATOM     20  C   UNL     1       1.825  -1.933  -2.646  0.00  0.00    +0.046 A 
ATOM     21  C   UNL     1       0.868  -2.005  -3.651  0.00  0.00    +0.120 A 
ATOM     22  C   UNL     1      -0.369  -1.393  -3.485  0.00  0.00    +0.046 A 
ATOM     23  C   UNL     1      -0.655  -0.718  -2.320  0.00  0.00    +0.012 A 
BRANCH  21  24
ATOM     24  O   UNL     1       1.143  -2.675  -4.800  0.00  0.00    -0.495 OA
ATOM     25  C   UNL     1       0.115  -2.710  -5.792  0.00  0.00    +0.277 C 
ENDBRANCH  21  24
ENDBRANCH   2  18
TORSDOF 3
