REMARK  Name = ZINC02270599
REMARK  9 active torsions:
REMARK  status: ('A' for Active; 'I' for Inactive)
REMARK    1  A    between atoms: C_1  and  C_2
REMARK    2  A    between atoms: C_2  and  C_3
REMARK    3  A    between atoms: C_3  and  C_4
REMARK    4  A    between atoms: C_4  and  C_5
REMARK    5  A    between atoms: C_5  and  C_6
REMARK    6  A    between atoms: N_8  and  N_9
REMARK    7  A    between atoms: N_16  and  C_17
REMARK    8  A    between atoms: C_22  and  C_24
REMARK    9  A    between atoms: C_22  and  C_25
REMARK                            x       y       z     vdW  Elec       q    Type
REMARK                         _______ _______ _______ _____ _____    ______ ____
ROOT
ATOM      1  N   UNL     1       1.889  -6.115  -3.664  0.00  0.00    -0.234 N 
ATOM      2  C   UNL     1       2.576  -6.774  -4.649  0.00  0.00    +0.216 A 
ATOM      3  N   UNL     1       3.033  -6.094  -5.681  0.00  0.00    -0.214 NA
ATOM      4  C   UNL     1       3.703  -6.703  -6.664  0.00  0.00    +0.084 A 
ATOM      5  C   UNL     1       3.957  -8.064  -6.587  0.00  0.00    +0.050 A 
ATOM      6  C   UNL     1       3.464  -8.782  -5.489  0.00  0.00    +0.260 A 
ATOM      7  O   UNL     1       3.657  -9.983  -5.393  0.00  0.00    -0.267 OA
ATOM      8  N   UNL     1       2.776  -8.116  -4.537  0.00  0.00    -0.276 N 
ATOM      9  C   UNL     1       4.754  -8.754  -7.660  0.00  0.00    +0.007 C 
ATOM     10  C   UNL     1       6.248  -8.600  -7.360  0.00  0.00    +0.012 C 
ATOM     11  C   UNL     1       7.062  -9.307  -8.444  0.00  0.00    +0.001 C 
ATOM     12  C   UNL     1       6.702 -10.794  -8.465  0.00  0.00    +0.000 C 
ATOM     13  C   UNL     1       5.209 -10.952  -8.761  0.00  0.00    +0.001 C 
ATOM     14  C   UNL     1       4.396 -10.244  -7.676  0.00  0.00    +0.012 C 
ATOM     15  C   UNL     1       4.447  -8.147  -9.028  0.00  0.00    +0.047 C 
ATOM     16  C   UNL     1       4.579  -6.648  -8.983  0.00  0.00    -0.037 A 
ATOM     17  C   UNL     1       4.200  -5.949  -7.837  0.00  0.00    +0.004 A 
ATOM     18  C   UNL     1       4.295  -4.561  -7.804  0.00  0.00    +0.010 A 
ATOM     19  C   UNL     1       4.774  -3.881  -8.906  0.00  0.00    +0.001 A 
ATOM     20  C   UNL     1       5.160  -4.578 -10.037  0.00  0.00    +0.000 A 
ATOM     21  C   UNL     1       5.063  -5.958 -10.076  0.00  0.00    +0.004 A 
ATOM     22  H   UNL     1       1.482  -6.615  -2.939  0.00  0.00    +0.173 HD
ENDROOT
BRANCH   8  23
ATOM     23  C   UNL     1       2.237  -8.840  -3.384  0.00  0.00    +0.098 C 
ATOM     24  C   UNL     1       3.384  -9.505  -2.615  0.00  0.00    +0.053 C 
ATOM     25  C   UNL     1       2.805 -10.323  -1.458  0.00  0.00    +0.162 C 
ATOM     26  O   UNL     1       1.888 -11.290  -1.973  0.00  0.00    -0.374 OA
ATOM     27  C   UNL     1       0.770 -10.725  -2.661  0.00  0.00    +0.066 C 
ATOM     28  C   UNL     1       1.266  -9.922  -3.866  0.00  0.00    +0.059 C 
ATOM     29  C   UNL     1      -0.154 -11.846  -3.140  0.00  0.00    +0.041 C 
ATOM     30  C   UNL     1       0.002  -9.801  -1.713  0.00  0.00    +0.041 C 
ENDBRANCH   8  23
BRANCH   1  33
ATOM     31  C   UNL     1       1.099  -4.071  -2.735  0.00  0.00    +0.229 C 
ATOM     32  O   UNL     1       0.590  -4.696  -1.829  0.00  0.00    -0.274 OA
ATOM     33  N   UNL     1       1.775  -4.719  -3.704  0.00  0.00    -0.234 N 
ATOM     34  H   UNL     1       2.182  -4.220  -4.429  0.00  0.00    +0.173 HD
BRANCH  31  35
ATOM     35  C   UNL     1       0.976  -2.570  -2.777  0.00  0.00    +0.097 C 
BRANCH  35  36
ATOM     36  C   UNL     1       0.167  -2.090  -1.571  0.00  0.00    +0.009 C 
BRANCH  36  37
ATOM     37  C   UNL     1       0.042  -0.566  -1.614  0.00  0.00    +0.000 C 
BRANCH  37  39
ATOM     38  C   UNL     1      -0.892   1.438  -0.450  0.00  0.00    +0.004 C 
ATOM     39  C   UNL     1      -0.767  -0.086  -0.407  0.00  0.00    -0.003 C 
ENDBRANCH  37  39
ENDBRANCH  36  37
ENDBRANCH  35  36
ENDBRANCH  31  35
ENDBRANCH   1  33
TORSDOF 6
