REMARK  Name = ZINC09302441
REMARK  10 active torsions:
REMARK  status: ('A' for Active; 'I' for Inactive)
REMARK    1  A    between atoms: C_1  and  C_2
REMARK    2  A    between atoms: C_5  and  N_9
REMARK    3  A    between atoms: C_7  and  C_8
REMARK    4  A    between atoms: C_10  and  C_12
REMARK    5  A    between atoms: C_12  and  C_13
REMARK    6  A    between atoms: C_16  and  S_19
REMARK    7  A    between atoms: N_17  and  C_18
REMARK    8  A    between atoms: S_19  and  C_20
REMARK    9  A    between atoms: C_20  and  C_21
REMARK   10  A    between atoms: N_23  and  C_24
REMARK                            x       y       z     vdW  Elec       q    Type
REMARK                         _______ _______ _______ _____ _____    ______ ____
ROOT
ATOM      1  C   UNL     1      -6.055   2.895  -0.239  0.00  0.00    +0.143 A 
ATOM      2  N   UNL     1      -6.559   2.399  -1.334  0.00  0.00    -0.133 NA
ATOM      3  N   UNL     1      -7.511   1.583  -1.052  0.00  0.00    -0.122 NA
ATOM      4  C   UNL     1      -7.674   1.521   0.249  0.00  0.00    +0.192 A 
ATOM      5  N   UNL     1      -6.750   2.357   0.809  0.00  0.00    -0.309 N 
ATOM      6  C   UNL     1      -6.545   2.621   2.235  0.00  0.00    +0.152 C 
ENDROOT
BRANCH   1   7
ATOM      7  C   UNL     1      -4.921   3.883  -0.145  0.00  0.00    +0.172 C 
BRANCH   7   9
ATOM      8  N   UNL     1      -2.456   3.823   0.046  0.00  0.00    -0.285 N 
ATOM      9  C   UNL     1      -3.614   3.140  -0.048  0.00  0.00    +0.225 C 
ATOM     10  O   UNL     1      -3.604   1.927  -0.055  0.00  0.00    -0.275 OA
ATOM     11  H   UNL     1      -2.468   4.790   0.128  0.00  0.00    +0.155 HD
BRANCH   8  16
ATOM     12  C   UNL     1       2.490   1.046  -0.039  0.00  0.00    +0.044 C 
ATOM     13  C   UNL     1       1.177   1.784  -0.017  0.00  0.00    -0.047 A 
ATOM     14  C   UNL     1       0.105   1.307  -0.749  0.00  0.00    +0.005 A 
ATOM     15  C   UNL     1      -1.099   1.984  -0.735  0.00  0.00    +0.023 A 
ATOM     16  C   UNL     1      -1.236   3.138   0.025  0.00  0.00    +0.034 A 
ATOM     17  C   UNL     1      -0.158   3.615   0.758  0.00  0.00    +0.027 A 
ATOM     18  C   UNL     1       1.045   2.937   0.736  0.00  0.00    -0.046 A 
ATOM     19  C   UNL     1       2.216   3.453   1.532  0.00  0.00    +0.044 C 
ENDBRANCH   8  16
ENDBRANCH   7   9
ENDBRANCH   1   7
BRANCH   4  20
ATOM     20  S   UNL     1      -8.861   0.545   1.111  0.00  0.00    -0.077 S 
BRANCH  20  21
ATOM     21  C   UNL     1      -9.685  -0.255  -0.287  0.00  0.00    +0.173 C 
BRANCH  21  22
ATOM     22  C   UNL     1     -10.772  -1.165   0.224  0.00  0.00    +0.224 C 
ATOM     23  O   UNL     1     -10.970  -1.264   1.416  0.00  0.00    -0.275 OA
ATOM     24  N   UNL     1     -11.524  -1.870  -0.645  0.00  0.00    -0.309 N 
ATOM     25  H   UNL     1     -11.366  -1.792  -1.599  0.00  0.00    +0.149 HD
BRANCH  24  26
ATOM     26  C   UNL     1     -12.580  -2.756  -0.148  0.00  0.00    +0.035 C 
ATOM     27  C   UNL     1     -11.966  -3.822   0.761  0.00  0.00    +0.029 C 
ATOM     28  C   UNL     1     -13.070  -4.747   1.280  0.00  0.00    -0.008 C 
ATOM     29  C   UNL     1     -13.766  -5.423   0.097  0.00  0.00    +0.007 C 
ATOM     30  C   UNL     1     -14.380  -4.356  -0.811  0.00  0.00    -0.008 C 
ATOM     31  C   UNL     1     -13.277  -3.432  -1.330  0.00  0.00    +0.029 C 
ATOM     32  C   UNL     1     -15.401  -3.537  -0.019  0.00  0.00    +0.007 C 
ATOM     33  C   UNL     1     -14.704  -2.861   1.164  0.00  0.00    -0.008 C 
ATOM     34  C   UNL     1     -14.090  -3.928   2.072  0.00  0.00    +0.007 C 
ATOM     35  C   UNL     1     -13.601  -1.937   0.645  0.00  0.00    +0.029 C 
ENDBRANCH  24  26
ENDBRANCH  21  22
ENDBRANCH  20  21
ENDBRANCH   4  20
TORSDOF 7
