REMARK  Name = ZINC59016982
REMARK  7 active torsions:
REMARK  status: ('A' for Active; 'I' for Inactive)
REMARK    1  A    between atoms: C_6  and  N_7
REMARK    2  A    between atoms: C_8  and  C_10
REMARK    3  A    between atoms: C_10  and  S_11
REMARK    4  A    between atoms: S_11  and  C_12
REMARK    5  A    between atoms: N_17  and  N_18
REMARK    6  A    between atoms: C_19  and  C_20
REMARK    7  A    between atoms: C_25  and  O_26
REMARK                            x       y       z     vdW  Elec       q    Type
REMARK                         _______ _______ _______ _____ _____    ______ ____
ROOT
ATOM      1  C   UNL     1      -3.721  -5.345  -0.450  0.00  0.00    +0.211 A 
ATOM      2  N   UNL     1      -3.961  -6.657  -0.559  0.00  0.00    -0.186 NA
ATOM      3  C   UNL     1      -5.259  -6.866  -0.620  0.00  0.00    +0.232 A 
ATOM      4  N   UNL     1      -5.878  -5.668  -0.549  0.00  0.00    -0.245 N 
ATOM      5  N   UNL     1      -4.865  -4.703  -0.435  0.00  0.00    -0.144 NA
ATOM      6  N   UNL     1      -5.880  -8.096  -0.737  0.00  0.00    -0.205 N 
ATOM      7  H   UNL     1      -6.848  -8.149  -0.775  0.00  0.00    +0.177 HD
ATOM      8  H   UNL     1      -6.835  -5.506  -0.570  0.00  0.00    +0.192 HD
ENDROOT
BRANCH   6   9
ATOM      9  N   UNL     1      -5.111  -9.265  -0.801  0.00  0.00    -0.187 NA
ATOM     10  C   UNL     1      -5.693 -10.420  -0.910  0.00  0.00    +0.142 C 
BRANCH  10  11
ATOM     11  C   UNL     1      -4.884 -11.650  -0.977  0.00  0.00    +0.037 A 
ATOM     12  C   UNL     1      -5.507 -12.894  -1.101  0.00  0.00    +0.028 A 
ATOM     13  C   UNL     1      -4.743 -14.042  -1.164  0.00  0.00    +0.019 A 
ATOM     14  C   UNL     1      -3.362 -13.965  -1.104  0.00  0.00    +0.019 A 
ATOM     15  C   UNL     1      -2.735 -12.740  -0.981  0.00  0.00    +0.047 A 
ATOM     16  C   UNL     1      -3.486 -11.578  -0.923  0.00  0.00    +0.126 A 
ATOM     17 BR   UNL     1      -5.587 -15.726  -1.331  0.00  0.00    -0.050 Br
BRANCH  16  18
ATOM     18  O   UNL     1      -2.870 -10.372  -0.808  0.00  0.00    -0.506 OA
ATOM     19  H   UNL     1      -2.722 -10.092   0.106  0.00  0.00    +0.292 HD
ENDBRANCH  16  18
ENDBRANCH  10  11
ENDBRANCH   6   9
BRANCH   1  20
ATOM     20  S   UNL     1      -2.128  -4.602  -0.337  0.00  0.00    -0.075 S 
BRANCH  20  21
ATOM     21  C   UNL     1      -2.480  -2.827  -0.204  0.00  0.00    +0.173 C 
BRANCH  21  23
ATOM     22  N   UNL     1      -1.200  -0.721   0.010  0.00  0.00    -0.285 N 
ATOM     23  C   UNL     1      -1.185  -2.065  -0.099  0.00  0.00    +0.227 C 
ATOM     24  O   UNL     1      -0.128  -2.659  -0.113  0.00  0.00    -0.275 OA
ATOM     25  H   UNL     1      -2.045  -0.252   0.098  0.00  0.00    +0.155 HD
BRANCH  22  31
ATOM     26  C   UNL     1       1.071  -0.454  -0.766  0.00  0.00    +0.026 A 
ATOM     27  C   UNL     1       2.257   0.255  -0.780  0.00  0.00    +0.043 A 
ATOM     28  C   UNL     1       2.380   1.414  -0.033  0.00  0.00    +0.159 A 
ATOM     29  C   UNL     1       1.314   1.866   0.730  0.00  0.00    +0.160 A 
ATOM     30  C   UNL     1       0.126   1.159   0.745  0.00  0.00    +0.064 A 
ATOM     31  C   UNL     1       0.002  -0.004  -0.004  0.00  0.00    +0.036 A 
ATOM     32  F   UNL     1       1.436   2.998   1.458  0.00  0.00    -0.202 F 
ATOM     33  F   UNL     1       3.541   2.105  -0.047  0.00  0.00    -0.202 F 
ENDBRANCH  22  31
ENDBRANCH  21  23
ENDBRANCH  20  21
ENDBRANCH   1  20
TORSDOF 7
