REMARK  Name = ZINC31168972
REMARK  8 active torsions:
REMARK  status: ('A' for Active; 'I' for Inactive)
REMARK    1  A    between atoms: C_1  and  C_2
REMARK    2  A    between atoms: C_5  and  S_8
REMARK    3  A    between atoms: S_8  and  N_11
REMARK    4  A    between atoms: C_14  and  C_17
REMARK    5  A    between atoms: N_19  and  C_20
REMARK    6  A    between atoms: N_19  and  C_30
REMARK    7  A    between atoms: C_20  and  C_21
REMARK    8  A    between atoms: C_24  and  C_27
REMARK                            x       y       z     vdW  Elec       q    Type
REMARK                         _______ _______ _______ _____ _____    ______ ____
ROOT
ATOM      1  C   UNL     1      -2.515   1.427   2.038  0.00  0.00    +0.219 C 
ATOM      2  O   UNL     1      -2.851   0.414   1.463  0.00  0.00    -0.275 OA
ATOM      3  N   UNL     1      -1.754   2.341   1.404  0.00  0.00    -0.294 N 
ENDROOT
BRANCH   1   7
ATOM      4  N   UNL     1      -3.085   1.019   6.213  0.00  0.00    -0.177 NA
ATOM      5  C   UNL     1      -4.261   0.742   5.377  0.00  0.00    +0.110 C 
ATOM      6  C   UNL     1      -3.794   0.482   3.941  0.00  0.00    +0.030 C 
ATOM      7  C   UNL     1      -2.947   1.663   3.462  0.00  0.00    +0.078 C 
ATOM      8  C   UNL     1      -1.711   1.801   4.354  0.00  0.00    +0.030 C 
ATOM      9  C   UNL     1      -2.154   2.075   5.795  0.00  0.00    +0.110 C 
BRANCH   4  10
ATOM     10  S   UNL     1      -2.815   0.157   7.601  0.00  0.00    +0.061 S 
ATOM     11  O   UNL     1      -2.001   0.972   8.433  0.00  0.00    -0.153 OA
ATOM     12  O   UNL     1      -4.077  -0.342   8.022  0.00  0.00    -0.153 OA
BRANCH  10  17
ATOM     13  C   UNL     1       0.519  -4.643   6.099  0.00  0.00    +0.044 C 
ATOM     14  C   UNL     1      -0.313  -3.444   6.474  0.00  0.00    -0.050 A 
ATOM     15  C   UNL     1       0.302  -2.263   6.844  0.00  0.00    +0.005 A 
ATOM     16  C   UNL     1      -0.461  -1.163   7.188  0.00  0.00    +0.029 A 
ATOM     17  C   UNL     1      -1.841  -1.245   7.162  0.00  0.00    +0.105 A 
ATOM     18  C   UNL     1      -2.457  -2.428   6.798  0.00  0.00    +0.029 A 
ATOM     19  C   UNL     1      -1.693  -3.526   6.449  0.00  0.00    +0.005 A 
ENDBRANCH  10  17
ENDBRANCH   4  10
ENDBRANCH   1   7
BRANCH   3  20
ATOM     20  C   UNL     1      -1.348   3.565   2.100  0.00  0.00    +0.077 C 
ATOM     21  C   UNL     1      -0.660   4.653   1.272  0.00  0.00    +0.024 C 
ATOM     22  C   UNL     1       0.152   3.819   2.265  0.00  0.00    +0.024 C 
ENDBRANCH   3  20
BRANCH   3  23
ATOM     23  C   UNL     1      -1.334   2.112   0.020  0.00  0.00    +0.143 C 
BRANCH  23  24
ATOM     24  C   UNL     1      -0.017   1.379   0.010  0.00  0.00    -0.030 A 
ATOM     25  C   UNL     1       1.168   2.094   0.002  0.00  0.00    +0.006 A 
ATOM     26  C   UNL     1       2.377   1.429  -0.013  0.00  0.00    +0.013 A 
ATOM     27  C   UNL     1       2.403   0.034  -0.021  0.00  0.00    +0.037 A 
ATOM     28  C   UNL     1       1.204  -0.681  -0.013  0.00  0.00    +0.013 A 
ATOM     29  C   UNL     1       0.002  -0.004   0.002  0.00  0.00    +0.006 A 
BRANCH  27  30
ATOM     30  C   UNL     1       3.696  -0.685  -0.036  0.00  0.00    +0.242 C 
ATOM     31  O   UNL     1       3.715  -1.900  -0.043  0.00  0.00    -0.270 OA
ATOM     32  N   UNL     1       4.852   0.008  -0.044  0.00  0.00    -0.325 N 
ATOM     33  H   UNL     1       5.813  -0.526  -0.055  0.00  0.00    +0.145 HD
ATOM     34  H   UNL     1       4.834   1.108  -0.038  0.00  0.00    +0.145 HD
ENDBRANCH  27  30
ENDBRANCH  23  24
ENDBRANCH   3  23
TORSDOF 7
