REMARK  Name = ZINC28347237
REMARK  7 active torsions:
REMARK  status: ('A' for Active; 'I' for Inactive)
REMARK    1  A    between atoms: C_1  and  C_2
REMARK    2  A    between atoms: C_2  and  C_3
REMARK    3  A    between atoms: C_3  and  N_4
REMARK    4  A    between atoms: C_12  and  C_16
REMARK    5  A    between atoms: C_19  and  S_26
REMARK    6  A    between atoms: C_20  and  C_22
REMARK    7  A    between atoms: S_26  and  C_27
REMARK                            x       y       z     vdW  Elec       q    Type
REMARK                         _______ _______ _______ _____ _____    ______ ____
ROOT
ATOM      1  C   UNL     1       2.748  -5.198   0.321  0.00  0.00    -0.017 A 
ATOM      2  C   UNL     1       1.766  -4.215   0.201  0.00  0.00    +0.009 A 
ATOM      3  C   UNL     1       2.129  -2.890   0.093  0.00  0.00    +0.016 A 
ATOM      4  C   UNL     1       3.474  -2.534   0.093  0.00  0.00    +0.024 A 
ATOM      5  C   UNL     1       4.455  -3.514   0.213  0.00  0.00    +0.069 A 
ATOM      6  C   UNL     1       4.095  -4.839   0.327  0.00  0.00    +0.022 A 
ENDROOT
BRANCH   1  15
ATOM      7  N   UNL     1      -2.983  -9.915   1.661  0.00  0.00    -0.299 NA
ATOM      8  C   UNL     1      -2.231 -10.600   0.601  0.00  0.00    +0.103 C 
ATOM      9  C   UNL     1      -0.755 -10.201   0.686  0.00  0.00    +0.122 C 
ATOM     10  N   UNL     1      -0.637  -8.742   0.554  0.00  0.00    -0.314 N 
ATOM     11  C   UNL     1      -1.389  -8.057   1.614  0.00  0.00    +0.122 C 
ATOM     12  C   UNL     1      -2.864  -8.456   1.529  0.00  0.00    +0.103 C 
ATOM     13  C   UNL     1       0.697  -8.349   0.555  0.00  0.00    +0.099 A 
ATOM     14  C   UNL     1       1.016  -7.002   0.439  0.00  0.00    +0.050 A 
ATOM     15  C   UNL     1       2.359  -6.624   0.443  0.00  0.00    -0.013 A 
ATOM     16  C   UNL     1       3.330  -7.626   0.558  0.00  0.00    +0.026 A 
ATOM     17  C   UNL     1       2.930  -8.939   0.674  0.00  0.00    +0.085 A 
ATOM     18  N   UNL     1       1.650  -9.263   0.668  0.00  0.00    -0.350 N 
ATOM     19  H   UNL     1       1.384 -10.326   0.759  0.00  0.00    +0.166 HD
BRANCH   7  20
ATOM     20  C   UNL     1      -4.392 -10.331   1.659  0.00  0.00    +0.084 C 
BRANCH  20  22
ATOM     21  C   UNL     1      -6.550 -10.230   2.915  0.00  0.00    +0.005 C 
ATOM     22  C   UNL     1      -5.082  -9.797   2.916  0.00  0.00    +0.012 C 
ENDBRANCH  20  22
ENDBRANCH   7  20
ENDBRANCH   1  15
BRANCH   5  23
ATOM     23  C   UNL     1       5.911  -3.125   0.218  0.00  0.00    +0.418 C 
ATOM     24  F   UNL     1       6.699  -4.274   0.349  0.00  0.00    -0.166 F 
ATOM     25  F   UNL     1       6.225  -2.477  -0.981  0.00  0.00    -0.166 F 
ATOM     26  F   UNL     1       6.160  -2.264   1.293  0.00  0.00    -0.166 F 
ENDBRANCH   5  23
BRANCH   4  27
ATOM     27  S   UNL     1       3.936  -0.840  -0.051  0.00  0.00    -0.089 S 
BRANCH  27  28
ATOM     28  C   UNL     1       2.402   0.026  -0.006  0.00  0.00    +0.016 A 
ATOM     29  C   UNL     1       1.827   0.358   1.214  0.00  0.00    +0.019 A 
ATOM     30  C   UNL     1       0.624   1.036   1.250  0.00  0.00    +0.050 A 
ATOM     31  C   UNL     1      -0.013   1.386   0.069  0.00  0.00    +0.162 A 
ATOM     32  C   UNL     1       0.560   1.058  -1.154  0.00  0.00    +0.163 A 
ATOM     33  C   UNL     1       1.767   0.376  -1.190  0.00  0.00    +0.064 A 
ATOM     34  O   UNL     1      -0.047   1.401  -2.323  0.00  0.00    -0.485 OA
ATOM     35  C   UNL     1      -1.433   1.750  -2.250  0.00  0.00    +0.270 C 
ATOM     36  C   UNL     1      -1.625   2.714  -1.071  0.00  0.00    +0.270 C 
ATOM     37  O   UNL     1      -1.204   2.047   0.124  0.00  0.00    -0.485 OA
ENDBRANCH  27  28
ENDBRANCH   4  27
TORSDOF 6
