REMARK  Name = ZINC39696299
REMARK  8 active torsions:
REMARK  status: ('A' for Active; 'I' for Inactive)
REMARK    1  A    between atoms: C_1  and  C_2
REMARK    2  A    between atoms: C_2  and  C_3
REMARK    3  A    between atoms: C_6  and  C_9
REMARK    4  A    between atoms: C_9  and  C_11
REMARK    5  A    between atoms: C_9  and  N_12
REMARK    6  A    between atoms: C_13  and  C_15
REMARK    7  A    between atoms: C_26  and  C_28
REMARK    8  A    between atoms: C_29  and  C_33
REMARK                            x       y       z     vdW  Elec       q    Type
REMARK                         _______ _______ _______ _____ _____    ______ ____
ROOT
ATOM      1  C   UNL     1      -8.319  -0.554  -1.987  0.00  0.00    +0.100 C 
ATOM      2  C   UNL     1      -8.015   0.961  -1.997  0.00  0.00    +0.121 C 
ATOM      3  N   UNL     1      -9.314   1.601  -2.312  0.00  0.00    -0.296 N 
ATOM      4  C   UNL     1     -10.310   0.805  -1.556  0.00  0.00    +0.115 C 
ATOM      5  C   UNL     1      -9.826  -0.652  -1.697  0.00  0.00    -0.004 C 
ATOM      6  C   UNL     1     -10.066  -1.415  -0.397  0.00  0.00    -0.010 C 
ATOM      7  C   UNL     1     -11.572  -1.550  -0.160  0.00  0.00    -0.082 C 
ATOM      8  N   UNL     1     -12.185  -2.262  -1.288  0.00  0.00    +0.379 N 
ATOM      9  C   UNL     1     -12.031  -1.477  -2.518  0.00  0.00    -0.082 C 
ATOM     10  C   UNL     1     -10.544  -1.338  -2.855  0.00  0.00    -0.010 C 
ATOM     11  C   UNL     1      -9.538   2.667  -3.105  0.00  0.00    +0.254 C 
ATOM     12  O   UNL     1      -8.623   3.155  -3.742  0.00  0.00    -0.269 OA
ATOM     13  H   UNL     1     -11.735  -3.158  -1.403  0.00  0.00    -0.086 HD
ATOM     14  H   UNL     1     -13.166  -2.404  -1.101  0.00  0.00    -0.086 HD
ENDROOT
BRANCH  11  15
ATOM     15  C   UNL     1     -10.885   3.239  -3.200  0.00  0.00    +0.077 A 
ATOM     16  C   UNL     1     -11.347   4.253  -4.026  0.00  0.00    -0.031 A 
ATOM     17  C   UNL     1     -12.675   4.577  -3.887  0.00  0.00    +0.011 A 
ATOM     18  C   UNL     1     -13.426   3.905  -2.979  0.00  0.00    +0.046 A 
ATOM     19  S   UNL     1     -12.356   2.808  -2.290  0.00  0.00    -0.092 S 
ATOM     20  C   UNL     1     -10.450   4.954  -5.013  0.00  0.00    +0.045 C 
ENDBRANCH  11  15
BRANCH   1  22
ATOM     21  N   UNL     1      -7.311  -2.569  -0.966  0.00  0.00    -0.308 N 
ATOM     22  C   UNL     1      -7.530  -1.241  -0.902  0.00  0.00    +0.219 C 
ATOM     23  O   UNL     1      -7.092  -0.598   0.028  0.00  0.00    -0.275 OA
ATOM     24  H   UNL     1      -7.661  -3.083  -1.711  0.00  0.00    +0.149 HD
BRANCH  21  25
ATOM     25  C   UNL     1      -6.544  -3.236   0.088  0.00  0.00    +0.100 C 
ATOM     26  C   UNL     1      -7.475  -3.594   1.248  0.00  0.00    +0.033 C 
BRANCH  25  30
ATOM     27  C   UNL     1      -4.781  -6.801  -1.471  0.00  0.00    -0.048 A 
ATOM     28  C   UNL     1      -4.064  -5.998  -0.604  0.00  0.00    +0.004 A 
ATOM     29  C   UNL     1      -4.635  -4.844  -0.100  0.00  0.00    +0.006 A 
ATOM     30  C   UNL     1      -5.921  -4.494  -0.463  0.00  0.00    -0.027 A 
ATOM     31  C   UNL     1      -6.638  -5.297  -1.330  0.00  0.00    +0.006 A 
ATOM     32  C   UNL     1      -6.066  -6.448  -1.838  0.00  0.00    +0.004 A 
BRANCH  27  34
ATOM     33  C   UNL     1      -3.424  -7.737  -3.324  0.00  0.00    +0.009 C 
ATOM     34  C   UNL     1      -4.159  -8.059  -2.021  0.00  0.00    +0.032 C 
ENDBRANCH  27  34
ENDBRANCH  25  30
ENDBRANCH  21  25
ENDBRANCH   1  22
TORSDOF 5
