REMARK  Name = ZINC59286560
REMARK  9 active torsions:
REMARK  status: ('A' for Active; 'I' for Inactive)
REMARK    1  A    between atoms: C_1  and  C_2
REMARK    2  A    between atoms: C_5  and  C_34
REMARK    3  A    between atoms: N_8  and  C_10
REMARK    4  A    between atoms: C_10  and  C_11
REMARK    5  A    between atoms: C_16  and  C_17
REMARK    6  A    between atoms: C_17  and  N_18
REMARK    7  A    between atoms: C_19  and  C_21
REMARK    8  A    between atoms: C_21  and  C_22
REMARK    9  A    between atoms: C_22  and  N_23
REMARK                            x       y       z     vdW  Elec       q    Type
REMARK                         _______ _______ _______ _____ _____    ______ ____
ROOT
ATOM      1  C   UNL     1       2.463   0.124   3.285  0.00  0.00    +0.139 C 
ENDROOT
BRANCH   1   7
ATOM      2  C   UNL     1       3.041  -2.188   2.520  0.00  0.00    -0.059 A 
ATOM      3  C   UNL     1       3.941  -3.113   2.025  0.00  0.00    +0.002 A 
ATOM      4  C   UNL     1       5.246  -2.739   1.766  0.00  0.00    +0.000 A 
ATOM      5  C   UNL     1       5.651  -1.438   2.002  0.00  0.00    +0.000 A 
ATOM      6  C   UNL     1       4.752  -0.513   2.497  0.00  0.00    +0.005 A 
ATOM      7  C   UNL     1       3.445  -0.886   2.751  0.00  0.00    -0.029 A 
BRANCH   2   8
ATOM      8  C   UNL     1       1.618  -2.596   2.802  0.00  0.00    -0.043 C 
BRANCH   8  14
ATOM      9  C   UNL     1       1.374  -5.328  -1.253  0.00  0.00    +0.005 C 
ATOM     10  C   UNL     1       1.299  -5.353   0.275  0.00  0.00    -0.031 C 
ATOM     11  C   UNL     1      -0.060  -5.909   0.711  0.00  0.00    +0.003 C 
ATOM     12  C   UNL     1      -0.155  -5.856   2.239  0.00  0.00    -0.031 C 
ATOM     13  C   UNL     1       0.060  -4.415   2.708  0.00  0.00    -0.075 C 
ATOM     14  N   UNL     1       1.386  -3.951   2.283  0.00  0.00    +0.383 N 
ATOM     15  C   UNL     1       1.461  -3.931   0.817  0.00  0.00    -0.075 C 
ATOM     16  C   UNL     1       0.919  -6.758   2.849  0.00  0.00    +0.005 C 
ATOM     17  H   UNL     1       2.091  -4.574   2.646  0.00  0.00    -0.081 HD
ENDBRANCH   8  14
ENDBRANCH   2   8
ENDBRANCH   1   7
BRANCH   1  18
ATOM     18  N   UNL     1       2.228  -0.129   4.709  0.00  0.00    -0.311 N 
ATOM     19  C   UNL     1       1.379   0.656   5.402  0.00  0.00    +0.215 C 
ATOM     20  O   UNL     1       0.810   1.572   4.846  0.00  0.00    -0.276 OA
ATOM     21  H   UNL     1       2.684  -0.861   5.154  0.00  0.00    +0.149 HD
BRANCH  19  22
ATOM     22  C   UNL     1       1.138   0.397   6.867  0.00  0.00    +0.115 C 
BRANCH  22  23
ATOM     23  C   UNL     1       0.141   1.422   7.409  0.00  0.00    +0.126 C 
BRANCH  23  24
ATOM     24  N   UNL     1      -0.094   1.170   8.833  0.00  0.00    -0.234 N 
ATOM     25  C   UNL     1      -1.051   0.356   9.314  0.00  0.00    +0.254 C 
ATOM     26  O   UNL     1      -1.845  -0.276   8.647  0.00  0.00    -0.270 OA
ATOM     27  C   UNL     1      -0.974   0.359  10.790  0.00  0.00    +0.049 A 
ATOM     28  C   UNL     1      -1.685  -0.273  11.797  0.00  0.00    +0.014 A 
ATOM     29  C   UNL     1      -1.347  -0.047  13.123  0.00  0.00    +0.001 A 
ATOM     30  C   UNL     1      -0.306   0.804  13.445  0.00  0.00    +0.001 A 
ATOM     31  C   UNL     1       0.414   1.443  12.448  0.00  0.00    +0.014 A 
ATOM     32  C   UNL     1       0.087   1.227  11.119  0.00  0.00    +0.049 A 
ATOM     33  C   UNL     1       0.622   1.717   9.831  0.00  0.00    +0.254 C 
ATOM     34  O   UNL     1       1.552   2.487   9.697  0.00  0.00    -0.270 OA
ENDBRANCH  23  24
ENDBRANCH  22  23
ENDBRANCH  19  22
ENDBRANCH   1  18
TORSDOF 7
