REMARK  Name = ZINC11915298
REMARK  5 active torsions:
REMARK  status: ('A' for Active; 'I' for Inactive)
REMARK    1  A    between atoms: C_1  and  C_2
REMARK    2  A    between atoms: C_2  and  N_3
REMARK    3  A    between atoms: C_7  and  C_8
REMARK    4  A    between atoms: C_11  and  C_13
REMARK    5  A    between atoms: C_16  and  C_18
REMARK                            x       y       z     vdW  Elec       q    Type
REMARK                         _______ _______ _______ _____ _____    ______ ____
ROOT
ATOM      1  N   UNL     1       6.059  -0.375  -0.069  0.00  0.00    -0.256 N 
ATOM      2  C   UNL     1       4.758  -0.138  -0.052  0.00  0.00    +0.258 C 
ATOM      3  O   UNL     1       4.316   0.997  -0.042  0.00  0.00    -0.269 OA
ATOM      4  C   UNL     1       3.871  -1.313  -0.045  0.00  0.00    +0.080 C 
ATOM      5  C   UNL     1       2.509  -1.374  -0.029  0.00  0.00    +0.066 C 
ATOM      6  S   UNL     1       5.070  -2.639  -0.065  0.00  0.00    -0.061 S 
ATOM      7  C   UNL     1       6.545  -1.633  -0.079  0.00  0.00    +0.121 C 
ATOM      8  S   UNL     1       8.180  -2.142  -0.095  0.00  0.00    -0.027 S 
ENDROOT
BRANCH   5   9
ATOM      9  C   UNL     1       1.855  -2.623  -0.137  0.00  0.00    +0.129 A 
ATOM     10  C   UNL     1       0.493  -2.823  -0.236  0.00  0.00    +0.049 A 
ATOM     11  C   UNL     1       0.298  -4.210  -0.322  0.00  0.00    +0.045 A 
ATOM     12  C   UNL     1       1.518  -4.789  -0.273  0.00  0.00    +0.109 A 
ATOM     13  O   UNL     1       2.452  -3.833  -0.167  0.00  0.00    -0.460 OA
BRANCH  12  14
ATOM     14  C   UNL     1       1.786  -6.271  -0.335  0.00  0.00    +0.058 C 
ATOM     15  C   UNL     1       3.242  -6.720  -0.468  0.00  0.00    +0.015 C 
ATOM     16  C   UNL     1       2.502  -6.909   0.858  0.00  0.00    -0.003 C 
ATOM     17  C   UNL     1       2.891  -5.994   2.020  0.00  0.00    +0.008 C 
ENDBRANCH  12  14
ENDBRANCH   5   9
BRANCH   1  19
ATOM     18  C   UNL     1       7.300   1.153  -1.520  0.00  0.00    +0.025 C 
ATOM     19  C   UNL     1       6.993   0.754  -0.075  0.00  0.00    +0.111 C 
ENDBRANCH   1  19
TORSDOF 3
