REMARK  Name = ZINC34756355
REMARK  8 active torsions:
REMARK  status: ('A' for Active; 'I' for Inactive)
REMARK    1  A    between atoms: C_1  and  C_2
REMARK    2  A    between atoms: C_2  and  C_3
REMARK    3  A    between atoms: C_3  and  C_4
REMARK    4  A    between atoms: C_4  and  N_5
REMARK    5  A    between atoms: C_18  and  S_20
REMARK    6  A    between atoms: S_20  and  C_21
REMARK    7  A    between atoms: C_21  and  C_22
REMARK    8  A    between atoms: C_25  and  N_28
REMARK                            x       y       z     vdW  Elec       q    Type
REMARK                         _______ _______ _______ _____ _____    ______ ____
ROOT
ATOM      1  N   UNL     1      -3.800  -1.695   0.047  0.00  0.00    +0.382 N 
ATOM      2  C   UNL     1      -5.247  -1.882   0.206  0.00  0.00    -0.060 C 
ATOM      3  C   UNL     1      -5.561  -3.379   0.297  0.00  0.00    +0.088 C 
ATOM      4  N   UNL     1      -4.988  -4.048  -0.882  0.00  0.00    -0.318 N 
ATOM      5  C   UNL     1      -3.579  -3.785  -1.211  0.00  0.00    +0.088 C 
ATOM      6  C   UNL     1      -3.359  -2.269  -1.231  0.00  0.00    -0.060 C 
ATOM      7  C   UNL     1      -5.753  -4.899  -1.658  0.00  0.00    +0.134 A 
ATOM      8  C   UNL     1      -5.717  -6.304  -1.433  0.00  0.00    +0.051 A 
ATOM      9  C   UNL     1      -4.943  -7.053  -0.441  0.00  0.00    -0.025 A 
ATOM     10  C   UNL     1      -5.089  -8.393  -0.436  0.00  0.00    -0.004 A 
ATOM     11  S   UNL     1      -6.250  -8.738  -1.731  0.00  0.00    -0.073 S 
ATOM     12  C   UNL     1      -6.537  -7.076  -2.281  0.00  0.00    +0.115 A 
ATOM     13  N   UNL     1      -7.282  -6.519  -3.217  0.00  0.00    -0.215 NA
ATOM     14  C   UNL     1      -7.275  -5.203  -3.381  0.00  0.00    +0.191 A 
ATOM     15  N   UNL     1      -6.530  -4.417  -2.613  0.00  0.00    -0.206 NA
ATOM     16  C   UNL     1      -4.413  -9.377   0.471  0.00  0.00    +0.043 C 
ATOM     17  C   UNL     1      -3.236  -8.671   1.160  0.00  0.00    +0.005 C 
ATOM     18  C   UNL     1      -3.723  -7.326   1.707  0.00  0.00    +0.005 C 
ATOM     19  C   UNL     1      -4.006  -6.367   0.550  0.00  0.00    +0.037 C 
ATOM     20  H   UNL     1      -3.318  -2.155   0.805  0.00  0.00    -0.082 HD
ENDROOT
BRANCH   1  21
ATOM     21  C   UNL     1      -3.488  -0.260   0.070  0.00  0.00    -0.079 C 
BRANCH  21  22
ATOM     22  C   UNL     1      -3.832   0.315   1.446  0.00  0.00    -0.019 C 
BRANCH  22  24
ATOM     23  C   UNL     1      -3.851   2.384   2.845  0.00  0.00    +0.004 C 
ATOM     24  C   UNL     1      -3.507   1.810   1.470  0.00  0.00    -0.005 C 
ENDBRANCH  22  24
ENDBRANCH  21  22
ENDBRANCH   1  21
BRANCH  14  25
ATOM     25  S   UNL     1      -8.278  -4.484  -4.638  0.00  0.00    -0.081 S 
BRANCH  25  26
ATOM     26  C   UNL     1      -9.103  -5.905  -5.408  0.00  0.00    +0.112 C 
BRANCH  26  27
ATOM     27  C   UNL     1     -10.004  -5.423  -6.516  0.00  0.00    -0.037 A 
ATOM     28  C   UNL     1     -11.319  -5.095  -6.244  0.00  0.00    +0.007 A 
ATOM     29  C   UNL     1     -12.146  -4.653  -7.260  0.00  0.00    +0.033 A 
ATOM     30  C   UNL     1     -11.657  -4.539  -8.548  0.00  0.00    +0.126 A 
ATOM     31  C   UNL     1     -10.342  -4.866  -8.820  0.00  0.00    +0.033 A 
ATOM     32  C   UNL     1      -9.514  -5.304  -7.803  0.00  0.00    +0.007 A 
BRANCH  30  33
ATOM     33  N   UNL     1     -12.543  -4.066  -9.636  0.00  0.00    +0.056 N 
ATOM     34  O   UNL     1     -13.693  -3.780  -9.398  0.00  0.00    -0.126 OA
ATOM     35  O   UNL     1     -12.116  -3.967 -10.762  0.00  0.00    -0.126 OA
ENDBRANCH  30  33
ENDBRANCH  26  27
ENDBRANCH  25  26
ENDBRANCH  14  25
TORSDOF 7
