REMARK  Name = ZINC64704491
REMARK  14 active torsions:
REMARK  status: ('A' for Active; 'I' for Inactive)
REMARK    1  A    between atoms: C_1  and  C_2
REMARK    2  A    between atoms: C_2  and  C_4
REMARK    3  A    between atoms: C_2  and  N_31
REMARK    4  A    between atoms: C_4  and  C_5
REMARK    5  A    between atoms: C_5  and  N_6
REMARK    6  A    between atoms: C_7  and  C_9
REMARK    7  A    between atoms: C_9  and  N_10
REMARK    8  A    between atoms: N_10  and  C_11
REMARK    9  A    between atoms: C_15  and  N_26
REMARK   10  A    between atoms: C_16  and  C_20
REMARK   11  A    between atoms: N_26  and  C_27
REMARK   12  A    between atoms: C_27  and  C_28
REMARK   13  A    between atoms: C_27  and  C_29
REMARK   14  A    between atoms: C_27  and  C_30
REMARK                            x       y       z     vdW  Elec       q    Type
REMARK                         _______ _______ _______ _____ _____    ______ ____
ROOT
ATOM      1  N   UNL     1       3.263  -6.424   2.580  0.00  0.00    -0.302 N 
ATOM      2  C   UNL     1       3.774  -7.648   1.959  0.00  0.00    +0.132 C 
ATOM      3  C   UNL     1       2.226  -6.494   3.497  0.00  0.00    +0.184 A 
ATOM      4  N   UNL     1       1.587  -7.545   3.933  0.00  0.00    -0.140 NA
ATOM      5  N   UNL     1       0.560  -7.431   4.866  0.00  0.00    -0.190 N 
ATOM      6  C   UNL     1      -0.319  -8.261   5.545  0.00  0.00    +0.150 A 
ATOM      7  C   UNL     1      -1.097  -7.475   6.341  0.00  0.00    +0.114 A 
ATOM      8  N   UNL     1      -0.708  -6.186   6.158  0.00  0.00    -0.218 NA
ATOM      9  C   UNL     1       0.262  -6.162   5.294  0.00  0.00    +0.199 A 
ATOM     10  S   UNL     1       1.427  -5.169   4.389  0.00  0.00    -0.013 S 
ENDROOT
BRANCH   7  11
ATOM     11  C   UNL     1      -2.174  -7.941   7.244  0.00  0.00    +0.004 A 
ATOM     12  C   UNL     1      -2.965  -9.034   6.885  0.00  0.00    +0.010 A 
ATOM     13  C   UNL     1      -3.966  -9.464   7.730  0.00  0.00    +0.001 A 
ATOM     14  C   UNL     1      -4.188  -8.815   8.932  0.00  0.00    +0.000 A 
ATOM     15  C   UNL     1      -3.407  -7.731   9.293  0.00  0.00    +0.001 A 
ATOM     16  C   UNL     1      -2.398  -7.295   8.459  0.00  0.00    +0.010 A 
ENDBRANCH   7  11
BRANCH   6  17
ATOM     17  N   UNL     1      -0.393  -9.653   5.434  0.00  0.00    -0.323 N 
ATOM     18  H   UNL     1      -1.033 -10.149   5.968  0.00  0.00    +0.148 HD
BRANCH  17  19
ATOM     19  C   UNL     1       0.495 -10.362   4.510  0.00  0.00    +0.025 C 
ATOM     20  C   UNL     1       1.952 -10.096   4.897  0.00  0.00    +0.031 C 
ATOM     21  C   UNL     1       0.214 -11.864   4.584  0.00  0.00    +0.031 C 
ATOM     22  C   UNL     1       0.249  -9.867   3.083  0.00  0.00    +0.031 C 
ENDBRANCH  17  19
ENDBRANCH   6  17
BRANCH   1  23
ATOM     23  C   UNL     1       3.847  -5.127   2.233  0.00  0.00    +0.202 C 
BRANCH  23  25
ATOM     24  N   UNL     1       3.471  -3.342   0.562  0.00  0.00    -0.314 N 
ATOM     25  C   UNL     1       3.106  -4.540   1.059  0.00  0.00    +0.230 C 
ATOM     26  O   UNL     1       2.180  -5.146   0.562  0.00  0.00    -0.274 OA
ATOM     27  H   UNL     1       4.212  -2.857   0.959  0.00  0.00    +0.149 HD
BRANCH  24  28
ATOM     28  C   UNL     1       2.751  -2.772  -0.579  0.00  0.00    +0.102 C 
BRANCH  28  29
ATOM     29  C   UNL     1       3.361  -1.416  -0.942  0.00  0.00    +0.003 C 
BRANCH  29  31
ATOM     30  C   UNL     1       1.170  -0.484  -1.698  0.00  0.00    -0.013 C 
ATOM     31  C   UNL     1       2.601  -0.815  -2.126  0.00  0.00    -0.070 C 
BRANCH  31  32
ATOM     32  N   UNL     1       3.276   0.412  -2.570  0.00  0.00    +0.381 N 
ATOM     33  C   UNL     1       4.664   0.105  -3.001  0.00  0.00    -0.079 C 
ATOM     34  C   UNL     1       5.019   1.297  -3.925  0.00  0.00    -0.020 C 
ATOM     35  C   UNL     1       3.688   1.571  -4.663  0.00  0.00    -0.020 C 
ATOM     36  C   UNL     1       2.596   0.966  -3.761  0.00  0.00    -0.079 C 
ATOM     37  H   UNL     1       3.284   1.093  -1.825  0.00  0.00    -0.081 HD
ENDBRANCH  31  32
ENDBRANCH  29  31
ENDBRANCH  28  29
ENDBRANCH  24  28
ENDBRANCH  23  25
ENDBRANCH   1  23
TORSDOF 9
