REMARK  Name = ZINC63280833
REMARK  9 active torsions:
REMARK  status: ('A' for Active; 'I' for Inactive)
REMARK    1  A    between atoms: C_1  and  C_2
REMARK    2  A    between atoms: C_2  and  C_4
REMARK    3  A    between atoms: C_2  and  N_14
REMARK    4  A    between atoms: C_4  and  C_5
REMARK    5  A    between atoms: C_15  and  C_17
REMARK    6  A    between atoms: C_20  and  C_23
REMARK    7  A    between atoms: C_23  and  N_24
REMARK    8  A    between atoms: N_24  and  S_25
REMARK    9  A    between atoms: S_25  and  C_28
REMARK                            x       y       z     vdW  Elec       q    Type
REMARK                         _______ _______ _______ _____ _____    ______ ____
ROOT
ATOM      1  C   UNL     1       2.736  -1.073  -2.455  0.00  0.00    +0.075 C 
ATOM      2  C   UNL     1       2.247  -2.480  -2.801  0.00  0.00    +0.013 C 
ATOM      3  C   UNL     1       2.550  -3.427  -1.638  0.00  0.00    +0.005 C 
ATOM      4  C   UNL     1       4.059  -3.459  -1.387  0.00  0.00    +0.005 C 
ATOM      5  C   UNL     1       4.548  -2.052  -1.040  0.00  0.00    +0.005 C 
ATOM      6  C   UNL     1       4.245  -1.105  -2.204  0.00  0.00    +0.013 C 
ENDROOT
BRANCH   1   8
ATOM      7  N   UNL     1       0.688  -0.476  -1.203  0.00  0.00    -0.312 N 
ATOM      8  C   UNL     1       2.031  -0.587  -1.215  0.00  0.00    +0.216 C 
ATOM      9  O   UNL     1       2.672  -0.295  -0.228  0.00  0.00    -0.276 OA
ATOM     10  H   UNL     1       0.175  -0.710  -1.993  0.00  0.00    +0.149 HD
BRANCH   7  12
ATOM     11  C   UNL     1      -0.019   1.526   0.010  0.00  0.00    +0.028 C 
ATOM     12  C   UNL     1       0.002  -0.004   0.002  0.00  0.00    +0.074 C 
BRANCH  12  13
ATOM     13  C   UNL     1      -1.433  -0.534   0.013  0.00  0.00    +0.055 C 
BRANCH  13  14
ATOM     14  C   UNL     1      -1.414  -2.036   0.129  0.00  0.00    -0.040 C 
ATOM     15  C   UNL     1      -1.525  -2.766   1.262  0.00  0.00    -0.001 A 
ATOM     16  C   UNL     1      -1.690  -2.394   2.672  0.00  0.00    +0.010 A 
ATOM     17  C   UNL     1      -1.772  -3.371   3.603  0.00  0.00    +0.001 A 
ATOM     18  C   UNL     1      -1.704  -4.728   3.256  0.00  0.00    +0.002 A 
ATOM     19  C   UNL     1      -1.553  -5.147   1.982  0.00  0.00    +0.026 A 
ATOM     20  C   UNL     1      -1.456  -4.205   0.921  0.00  0.00    +0.043 A 
ATOM     21  N   UNL     1      -1.308  -4.359  -0.372  0.00  0.00    -0.380 N 
ATOM     22  C   UNL     1      -1.272  -3.033  -1.000  0.00  0.00    +0.144 C 
ATOM     23  H   UNL     1      -1.237  -5.207  -0.837  0.00  0.00    +0.160 HD
ENDBRANCH  13  14
ENDBRANCH  12  13
ENDBRANCH   7  12
ENDBRANCH   1   8
BRANCH   4  24
ATOM     24  C   UNL     1       4.362  -4.406  -0.224  0.00  0.00    +0.109 C 
BRANCH  24  25
ATOM     25  N   UNL     1       5.812  -4.529  -0.060  0.00  0.00    -0.190 NA
ATOM     26  H   UNL     1       6.407  -4.231  -0.765  0.00  0.00    +0.148 HD
BRANCH  25  27
ATOM     27  S   UNL     1       6.436  -5.179   1.329  0.00  0.00    +0.058 S 
ATOM     28  O   UNL     1       7.849  -5.187   1.175  0.00  0.00    -0.153 OA
ATOM     29  O   UNL     1       5.792  -4.520   2.411  0.00  0.00    -0.153 OA
BRANCH  27  30
ATOM     30  C   UNL     1       5.927  -6.865   1.391  0.00  0.00    +0.105 A 
ATOM     31  C   UNL     1       4.735  -7.204   2.004  0.00  0.00    +0.028 A 
ATOM     32  C   UNL     1       4.335  -8.527   2.053  0.00  0.00    +0.002 A 
ATOM     33  C   UNL     1       5.127  -9.509   1.487  0.00  0.00    +0.000 A 
ATOM     34  C   UNL     1       6.318  -9.169   0.873  0.00  0.00    +0.002 A 
ATOM     35  C   UNL     1       6.715  -7.846   0.821  0.00  0.00    +0.028 A 
ENDBRANCH  27  30
ENDBRANCH  25  27
ENDBRANCH  24  25
ENDBRANCH   4  24
TORSDOF 8
