REMARK  Name = ZINC35425371
REMARK  9 active torsions:
REMARK  status: ('A' for Active; 'I' for Inactive)
REMARK    1  A    between atoms: C_1  and  C_2
REMARK    2  A    between atoms: C_5  and  N_9
REMARK    3  A    between atoms: C_6  and  C_8
REMARK    4  A    between atoms: C_10  and  C_12
REMARK    5  A    between atoms: C_12  and  N_13
REMARK    6  A    between atoms: C_24  and  O_27
REMARK    7  A    between atoms: O_27  and  C_28
REMARK    8  A    between atoms: C_30  and  C_35
REMARK    9  A    between atoms: C_32  and  C_34
REMARK                            x       y       z     vdW  Elec       q    Type
REMARK                         _______ _______ _______ _____ _____    ______ ____
ROOT
ATOM      1  N   UNL     1      -0.227  -6.820  -2.573  0.00  0.00    -0.203 N 
ATOM      2  C   UNL     1       0.805  -7.130  -3.386  0.00  0.00    +0.352 A 
ATOM      3  O   UNL     1       1.987  -7.072  -3.099  0.00  0.00    -0.244 OA
ATOM      4  N   UNL     1       0.294  -7.514  -4.570  0.00  0.00    -0.238 N 
ATOM      5  C   UNL     1       0.876  -7.938  -5.762  0.00  0.00    +0.079 A 
ATOM      6  C   UNL     1       2.256  -8.022  -5.875  0.00  0.00    +0.028 A 
ATOM      7  C   UNL     1       2.829  -8.444  -7.059  0.00  0.00    +0.002 A 
ATOM      8  C   UNL     1       2.031  -8.784  -8.140  0.00  0.00    +0.002 A 
ATOM      9  C   UNL     1       0.659  -8.706  -8.046  0.00  0.00    +0.030 A 
ATOM     10  C   UNL     1       0.063  -8.282  -6.853  0.00  0.00    +0.092 A 
ATOM     11  N   UNL     1      -1.292  -8.208  -6.764  0.00  0.00    -0.208 NA
ATOM     12  C   UNL     1      -1.887  -7.816  -5.666  0.00  0.00    +0.267 A 
ATOM     13  C   UNL     1      -1.089  -7.442  -4.490  0.00  0.00    +0.225 A 
ATOM     14  N   UNL     1      -1.411  -7.032  -3.293  0.00  0.00    -0.143 NA
ENDROOT
BRANCH   1  15
ATOM     15  C   UNL     1      -0.127  -6.354  -1.188  0.00  0.00    +0.244 C 
BRANCH  15  17
ATOM     16  N   UNL     1       0.040  -4.194   0.005  0.00  0.00    -0.284 N 
ATOM     17  C   UNL     1      -0.056  -4.849  -1.169  0.00  0.00    +0.239 C 
ATOM     18  O   UNL     1      -0.086  -4.227  -2.210  0.00  0.00    -0.273 OA
ATOM     19  H   UNL     1       0.123  -4.692   0.833  0.00  0.00    +0.155 HD
BRANCH  16  24
ATOM     20  C   UNL     1      -0.043   1.478   0.103  0.00  0.00    +0.044 C 
ATOM     21  C   UNL     1      -0.021  -0.029   0.077  0.00  0.00    -0.050 A 
ATOM     22  C   UNL     1       0.576  -0.692  -0.980  0.00  0.00    +0.005 A 
ATOM     23  C   UNL     1       0.597  -2.072  -1.007  0.00  0.00    +0.024 A 
ATOM     24  C   UNL     1       0.020  -2.795   0.029  0.00  0.00    +0.036 A 
ATOM     25  C   UNL     1      -0.578  -2.126   1.089  0.00  0.00    -0.029 A 
ATOM     26  C   UNL     1      -0.592  -0.745   1.112  0.00  0.00    +0.008 A 
ATOM     27  C   UNL     1      -1.205  -2.906   2.216  0.00  0.00    +0.045 C 
ENDBRANCH  16  24
ENDBRANCH  15  17
ENDBRANCH   1  15
BRANCH  12  28
ATOM     28  O   UNL     1      -3.239  -7.754  -5.613  0.00  0.00    -0.435 OA
BRANCH  28  29
ATOM     29  C   UNL     1      -3.940  -8.210  -6.684  0.00  0.00    +0.131 A 
ATOM     30  C   UNL     1      -4.682  -7.327  -7.455  0.00  0.00    +0.049 A 
ATOM     31  C   UNL     1      -5.394  -7.792  -8.544  0.00  0.00    -0.047 A 
ATOM     32  C   UNL     1      -5.368  -9.137  -8.865  0.00  0.00    +0.007 A 
ATOM     33  C   UNL     1      -4.629 -10.019  -8.098  0.00  0.00    -0.047 A 
ATOM     34  C   UNL     1      -3.911  -9.558  -7.012  0.00  0.00    +0.049 A 
ATOM     35  C   UNL     1      -4.603 -11.484  -8.450  0.00  0.00    +0.044 C 
ATOM     36  C   UNL     1      -6.200  -6.834  -9.382  0.00  0.00    +0.044 C 
ENDBRANCH  28  29
ENDBRANCH  12  28
TORSDOF 5
