REMARK  Name = ZINC04317812
REMARK  6 active torsions:
REMARK  status: ('A' for Active; 'I' for Inactive)
REMARK    1  A    between atoms: C_1  and  C_2
REMARK    2  A    between atoms: C_6  and  N_9
REMARK    3  A    between atoms: C_7  and  C_8
REMARK    4  A    between atoms: C_13  and  N_17
REMARK    5  A    between atoms: N_17  and  C_18
REMARK    6  A    between atoms: C_21  and  N_24
REMARK                            x       y       z     vdW  Elec       q    Type
REMARK                         _______ _______ _______ _____ _____    ______ ____
ROOT
ATOM      1  N   UNL     1       0.057  -2.766   2.397  0.00  0.00    -0.209 N 
ATOM      2  C   UNL     1      -1.061  -3.166   3.016  0.00  0.00    +0.228 C 
ATOM      3  O   UNL     1      -2.191  -2.958   2.629  0.00  0.00    -0.275 OA
ATOM      4  C   UNL     1      -0.691  -3.918   4.275  0.00  0.00    +0.128 C 
ATOM      5  C   UNL     1       0.851  -3.884   4.277  0.00  0.00    +0.166 C 
ATOM      6  C   UNL     1       1.190  -3.121   3.015  0.00  0.00    +0.247 C 
ATOM      7  O   UNL     1       2.311  -2.868   2.627  0.00  0.00    -0.273 OA
ENDROOT
BRANCH   1  13
ATOM      8  C   UNL     1      -0.026   1.564   0.065  0.00  0.00    +0.044 C 
ATOM      9  C   UNL     1       0.002   0.057   0.038  0.00  0.00    -0.046 A 
ATOM     10  C   UNL     1       0.012  -0.612  -1.172  0.00  0.00    +0.004 A 
ATOM     11  C   UNL     1       0.037  -1.994  -1.201  0.00  0.00    +0.002 A 
ATOM     12  C   UNL     1       0.051  -2.710  -0.020  0.00  0.00    +0.024 A 
ATOM     13  C   UNL     1       0.042  -2.042   1.196  0.00  0.00    +0.047 A 
ATOM     14  C   UNL     1       0.022  -0.653   1.222  0.00  0.00    -0.026 A 
ATOM     15  C   UNL     1       0.018   0.076   2.541  0.00  0.00    +0.046 C 
ENDBRANCH   1  13
BRANCH   5  16
ATOM     16  N   UNL     1       1.351  -3.183   5.462  0.00  0.00    -0.333 N 
ATOM     17  H   UNL     1       0.794  -2.525   5.907  0.00  0.00    +0.147 HD
BRANCH  16  18
ATOM     18  C   UNL     1       2.631  -3.462   5.953  0.00  0.00    +0.028 A 
ATOM     19  C   UNL     1       3.431  -4.400   5.313  0.00  0.00    +0.025 A 
ATOM     20  C   UNL     1       4.694  -4.676   5.797  0.00  0.00    +0.025 A 
ATOM     21  C   UNL     1       5.165  -4.016   6.924  0.00  0.00    +0.030 A 
ATOM     22  C   UNL     1       4.366  -3.078   7.564  0.00  0.00    +0.025 A 
ATOM     23  C   UNL     1       3.105  -2.798   7.077  0.00  0.00    +0.025 A 
BRANCH  21  24
ATOM     24  N   UNL     1       6.446  -4.296   7.416  0.00  0.00    -0.330 N 
ATOM     25  C   UNL     1       7.005  -3.522   8.533  0.00  0.00    +0.105 C 
ATOM     26  C   UNL     1       7.457  -4.493   9.628  0.00  0.00    +0.019 C 
ATOM     27  C   UNL     1       8.421  -5.519   9.029  0.00  0.00    +0.003 C 
ATOM     28  C   UNL     1       7.705  -6.320   7.939  0.00  0.00    +0.019 C 
ATOM     29  C   UNL     1       7.254  -5.374   6.829  0.00  0.00    +0.105 C 
ENDBRANCH  21  24
ENDBRANCH  16  18
ENDBRANCH   5  16
TORSDOF 4
