REMARK  Name = ZINC37020859
REMARK  4 active torsions:
REMARK  status: ('A' for Active; 'I' for Inactive)
REMARK    1  A    between atoms: C_1  and  C_2
REMARK    2  A    between atoms: C_2  and  C_4
REMARK    3  A    between atoms: C_2  and  N_10
REMARK    4  A    between atoms: C_11  and  C_13
REMARK                            x       y       z     vdW  Elec       q    Type
REMARK                         _______ _______ _______ _____ _____    ______ ____
ROOT
ATOM      1  N   UNL     1       0.688  -0.476  -1.203  0.00  0.00    -0.305 N 
ATOM      2  C   UNL     1       2.031  -0.587  -1.215  0.00  0.00    +0.256 C 
ATOM      3  O   UNL     1       2.672  -0.295  -0.228  0.00  0.00    -0.272 OA
ATOM      4  H   UNL     1       0.175  -0.710  -1.993  0.00  0.00    +0.149 HD
ENDROOT
BRANCH   2   5
ATOM      5  C   UNL     1       2.736  -1.073  -2.455  0.00  0.00    +0.275 C 
ATOM      6  C   UNL     1       2.346  -2.532  -2.730  0.00  0.00    +0.155 C 
ATOM      7  N   UNL     1       3.096  -2.977  -3.918  0.00  0.00    -0.337 N 
ATOM      8  C   UNL     1       4.444  -2.599  -4.018  0.00  0.00    +0.070 A 
ATOM      9  C   UNL     1       5.270  -3.213  -4.946  0.00  0.00    +0.026 A 
ATOM     10  C   UNL     1       6.597  -2.835  -5.043  0.00  0.00    +0.002 A 
ATOM     11  C   UNL     1       7.098  -1.847  -4.216  0.00  0.00    +0.004 A 
ATOM     12  C   UNL     1       6.279  -1.233  -3.287  0.00  0.00    +0.047 A 
ATOM     13  C   UNL     1       4.947  -1.607  -3.181  0.00  0.00    +0.142 A 
ATOM     14  O   UNL     1       4.151  -1.000  -2.261  0.00  0.00    -0.476 OA
ATOM     15  H   UNL     1       2.672  -3.512  -4.607  0.00  0.00    +0.146 HD
ENDBRANCH   2   5
BRANCH   1  17
ATOM     16  C   UNL     1      -0.019   1.526   0.010  0.00  0.00    +0.033 C 
ATOM     17  C   UNL     1       0.002  -0.004   0.002  0.00  0.00    +0.107 C 
BRANCH  17  18
ATOM     18  C   UNL     1      -1.412  -0.526   0.013  0.00  0.00    +0.011 A 
ATOM     19  C   UNL     1      -2.141  -0.993   1.055  0.00  0.00    +0.014 A 
ATOM     20  C   UNL     1      -3.435  -1.425   0.828  0.00  0.00    +0.028 A 
ATOM     21  C   UNL     1      -3.935  -1.368  -0.431  0.00  0.00    +0.078 A 
ATOM     22  S   UNL     1      -2.563  -0.681  -1.343  0.00  0.00    -0.080 S 
ATOM     23 CL   UNL     1      -5.505  -1.836  -1.006  0.00  0.00    -0.076 Cl
ENDBRANCH  17  18
ENDBRANCH   1  17
TORSDOF 3
