REMARK  Name = ZINC38650437
REMARK  11 active torsions:
REMARK  status: ('A' for Active; 'I' for Inactive)
REMARK    1  A    between atoms: C_1  and  C_2
REMARK    2  A    between atoms: C_2  and  O_3
REMARK    3  A    between atoms: O_3  and  C_4
REMARK    4  A    between atoms: C_9  and  C_10
REMARK    5  A    between atoms: C_15  and  O_24
REMARK    6  A    between atoms: C_19  and  N_23
REMARK    7  A    between atoms: C_20  and  C_21
REMARK    8  A    between atoms: O_24  and  C_25
REMARK    9  A    between atoms: C_25  and  C_27
REMARK   10  A    between atoms: C_31  and  O_33
REMARK   11  A    between atoms: O_33  and  C_34
REMARK                            x       y       z     vdW  Elec       q    Type
REMARK                         _______ _______ _______ _____ _____    ______ ____
ROOT
ATOM      1  C   UNL     1       2.060  -1.429   3.377  0.00  0.00    +0.101 C 
ATOM      2  C   UNL     1       3.544  -1.665   3.476  0.00  0.00    +0.008 A 
ATOM      3  C   UNL     1       4.370  -1.239   2.451  0.00  0.00    +0.012 A 
ATOM      4  C   UNL     1       5.734  -1.446   2.525  0.00  0.00    +0.047 A 
ATOM      5  C   UNL     1       6.279  -2.084   3.630  0.00  0.00    +0.135 A 
ATOM      6  C   UNL     1       5.454  -2.512   4.658  0.00  0.00    +0.093 A 
ATOM      7  C   UNL     1       4.083  -2.302   4.582  0.00  0.00    +0.138 A 
ATOM      8  O   UNL     1       3.289  -2.726   5.596  0.00  0.00    -0.441 OA
ATOM      9  C   UNL     1       2.057  -2.213   5.742  0.00  0.00    +0.199 C 
ATOM     10  C   UNL     1       1.420  -1.587   4.727  0.00  0.00    +0.098 C 
ENDROOT
BRANCH   1  16
ATOM     11  C   UNL     1       0.802  -1.985   1.280  0.00  0.00    +0.125 A 
ATOM     12  C   UNL     1       0.254  -2.906   0.398  0.00  0.00    +0.046 A 
ATOM     13  C   UNL     1       0.359  -4.258   0.659  0.00  0.00    +0.004 A 
ATOM     14  C   UNL     1       1.010  -4.694   1.799  0.00  0.00    +0.001 A 
ATOM     15  C   UNL     1       1.556  -3.779   2.679  0.00  0.00    +0.008 A 
ATOM     16  C   UNL     1       1.459  -2.426   2.420  0.00  0.00    +0.007 A 
BRANCH  11  17
ATOM     17  O   UNL     1       0.700  -0.654   1.025  0.00  0.00    -0.492 OA
BRANCH  17  19
ATOM     18  C   UNL     1      -0.002   1.252  -0.284  0.00  0.00    +0.048 C 
ATOM     19  C   UNL     1       0.010  -0.273  -0.167  0.00  0.00    +0.225 C 
ENDBRANCH  17  19
ENDBRANCH  11  17
ENDBRANCH   1  16
BRANCH   9  20
ATOM     20  N   UNL     1       1.425  -2.330   6.955  0.00  0.00    -0.328 N 
ATOM     21  H   UNL     1       1.870  -2.778   7.692  0.00  0.00    +0.145 HD
ATOM     22  H   UNL     1       0.535  -1.964   7.075  0.00  0.00    +0.145 HD
ENDBRANCH   9  20
BRANCH  10  23
ATOM     23  C   UNL     1       0.106  -1.063   4.947  0.00  0.00    +0.101 C 
ATOM     24  N   UNL     1      -0.937  -0.647   5.121  0.00  0.00    -0.191 NA
ENDBRANCH  10  23
BRANCH   5  25
ATOM     25  O   UNL     1       7.621  -2.289   3.705  0.00  0.00    -0.422 OA
BRANCH  25  26
ATOM     26  C   UNL     1       8.416  -1.214   3.872  0.00  0.00    +0.345 C 
ATOM     27  O   UNL     1       7.926  -0.118   4.057  0.00  0.00    -0.245 OA
BRANCH  26  28
ATOM     28  C   UNL     1       9.885  -1.369   3.832  0.00  0.00    +0.063 A 
ATOM     29  C   UNL     1      10.451  -2.627   3.614  0.00  0.00    +0.015 A 
ATOM     30  C   UNL     1      11.823  -2.768   3.577  0.00  0.00    +0.004 A 
ATOM     31  C   UNL     1      12.641  -1.667   3.755  0.00  0.00    +0.045 A 
ATOM     32  C   UNL     1      12.087  -0.412   3.971  0.00  0.00    +0.121 A 
ATOM     33  C   UNL     1      10.711  -0.258   4.005  0.00  0.00    +0.060 A 
BRANCH  32  34
ATOM     34  O   UNL     1      12.896   0.666   4.146  0.00  0.00    -0.495 OA
ATOM     35  C   UNL     1      14.305   0.435   4.093  0.00  0.00    +0.277 C 
ENDBRANCH  32  34
ENDBRANCH  26  28
ENDBRANCH  25  26
ENDBRANCH   5  25
TORSDOF 9
