REMARK  Name = ZINC20705353
REMARK  5 active torsions:
REMARK  status: ('A' for Active; 'I' for Inactive)
REMARK    1  A    between atoms: C_4  and  C_7
REMARK    2  A    between atoms: C_7  and  O_8
REMARK    3  A    between atoms: O_8  and  C_9
REMARK    4  A    between atoms: C_22  and  C_25
REMARK    5  A    between atoms: C_29  and  N_31
REMARK                            x       y       z     vdW  Elec       q    Type
REMARK                         _______ _______ _______ _____ _____    ______ ____
ROOT
ATOM      1  C   UNL     1      -5.149   5.265  -0.234  0.00  0.00    +0.121 A 
ATOM      2  C   UNL     1      -5.178   4.878   1.098  0.00  0.00    +0.047 A 
ATOM      3  C   UNL     1      -4.625   3.668   1.469  0.00  0.00    +0.027 A 
ATOM      4  C   UNL     1      -4.044   2.845   0.513  0.00  0.00    +0.032 A 
ATOM      5  C   UNL     1      -4.012   3.226  -0.819  0.00  0.00    -0.016 A 
ATOM      6  C   UNL     1      -4.569   4.444  -1.185  0.00  0.00    +0.051 A 
ATOM      7  C   UNL     1      -3.398   2.371  -1.881  0.00  0.00    +0.049 C 
ATOM      8  C   UNL     1      -2.030   2.892  -2.331  0.00  0.00    -0.023 C 
ATOM      9  C   UNL     1      -1.221   1.893  -2.590  0.00  0.00    -0.030 C 
ATOM     10  C   UNL     1      -1.923   0.569  -2.362  0.00  0.00    +0.033 C 
ATOM     11  C   UNL     1      -3.089   0.940  -1.399  0.00  0.00    +0.029 C 
ATOM     12  C   UNL     1      -2.514   0.979   0.019  0.00  0.00    +0.105 C 
ATOM     13  N   UNL     1      -3.478   1.640   0.905  0.00  0.00    -0.336 N 
ATOM     14  H   UNL     1      -3.744   1.181   1.868  0.00  0.00    +0.147 HD
ENDROOT
BRANCH  12  15
ATOM     15  C   UNL     1      -1.219   1.750   0.017  0.00  0.00    -0.025 A 
ATOM     16  C   UNL     1      -1.238   3.133   0.030  0.00  0.00    +0.005 A 
ATOM     17  C   UNL     1      -0.050   3.840   0.023  0.00  0.00    +0.003 A 
ATOM     18  C   UNL     1       1.157   3.165   0.008  0.00  0.00    +0.033 A 
ATOM     19  C   UNL     1       1.175   1.783   0.000  0.00  0.00    +0.127 A 
ATOM     20  C   UNL     1      -0.013   1.076   0.008  0.00  0.00    +0.038 A 
BRANCH  19  21
ATOM     21  N   UNL     1       2.467   1.061  -0.016  0.00  0.00    +0.056 N 
ATOM     22  O   UNL     1       2.483  -0.157  -0.023  0.00  0.00    -0.126 OA
ATOM     23  O   UNL     1       3.513   1.684  -0.022  0.00  0.00    -0.126 OA
ENDBRANCH  19  21
ENDBRANCH  12  15
BRANCH   1  24
ATOM     24  O   UNL     1      -5.692   6.455  -0.606  0.00  0.00    -0.487 OA
BRANCH  24  25
ATOM     25  C   UNL     1      -6.274   7.254   0.427  0.00  0.00    +0.264 C 
BRANCH  25  29
ATOM     26  C   UNL     1      -7.822  10.859  -1.263  0.00  0.00    +0.000 A 
ATOM     27  C   UNL     1      -8.626   9.739  -1.169  0.00  0.00    +0.000 A 
ATOM     28  C   UNL     1      -8.125   8.572  -0.623  0.00  0.00    +0.007 A 
ATOM     29  C   UNL     1      -6.820   8.526  -0.170  0.00  0.00    -0.010 A 
ATOM     30  C   UNL     1      -6.017   9.648  -0.258  0.00  0.00    +0.007 A 
ATOM     31  C   UNL     1      -6.516  10.813  -0.810  0.00  0.00    +0.000 A 
ENDBRANCH  25  29
ENDBRANCH  24  25
ENDBRANCH   1  24
TORSDOF 5
