REMARK  Name = ZINC37239054
REMARK  8 active torsions:
REMARK  status: ('A' for Active; 'I' for Inactive)
REMARK    1  A    between atoms: C_1  and  C_2
REMARK    2  A    between atoms: C_2  and  C_3
REMARK    3  A    between atoms: C_2  and  C_4
REMARK    4  A    between atoms: C_2  and  N_6
REMARK    5  A    between atoms: C_4  and  O_5
REMARK    6  A    between atoms: N_6  and  C_7
REMARK    7  A    between atoms: C_7  and  C_8
REMARK    8  A    between atoms: C_12  and  N_14
REMARK                            x       y       z     vdW  Elec       q    Type
REMARK                         _______ _______ _______ _____ _____    ______ ____
ROOT
ATOM      1  C   UNL     1       2.068   0.031  -1.217  0.00  0.00    -0.046 C 
ENDROOT
BRANCH   1   2
ATOM      2  C   UNL     1       2.773  -0.455  -2.457  0.00  0.00    -0.062 A 
ATOM      3  C   UNL     1       3.457  -1.657  -2.437  0.00  0.00    +0.003 A 
ATOM      4  C   UNL     1       4.103  -2.103  -3.574  0.00  0.00    +0.018 A 
ATOM      5  C   UNL     1       4.067  -1.347  -4.732  0.00  0.00    +0.048 A 
ATOM      6  C   UNL     1       3.383  -0.145  -4.751  0.00  0.00    +0.140 A 
ATOM      7  C   UNL     1       2.732   0.298  -3.615  0.00  0.00    +0.035 A 
ATOM      8 BR   UNL     1       4.952  -1.957  -6.288  0.00  0.00    -0.048 Br
BRANCH   6   9
ATOM      9  N   UNL     1       3.344   0.664  -5.990  0.00  0.00    +0.058 N 
ATOM     10  O   UNL     1       2.746   1.715  -6.007  0.00  0.00    -0.126 OA
ATOM     11  O   UNL     1       3.910   0.274  -6.985  0.00  0.00    -0.126 OA
ENDBRANCH   6   9
ENDBRANCH   1   2
BRANCH   1  12
ATOM     12  N   UNL     1       0.690  -0.478  -1.207  0.00  0.00    +0.387 N 
ATOM     13  H   UNL     1       0.703  -1.487  -1.212  0.00  0.00    -0.085 HD
ATOM     14  H   UNL     1       0.202  -0.144  -2.024  0.00  0.00    -0.085 HD
BRANCH  12  16
ATOM     15  C   UNL     1      -0.019   1.526   0.010  0.00  0.00    -0.008 C 
ATOM     16  C   UNL     1       0.002  -0.004   0.002  0.00  0.00    -0.050 C 
ATOM     17  C   UNL     1       0.742  -0.511   1.242  0.00  0.00    -0.008 C 
BRANCH  16  18
ATOM     18  C   UNL     1      -1.433  -0.534   0.013  0.00  0.00    +0.143 C 
BRANCH  18  19
ATOM     19  O   UNL     1      -2.102  -0.073   1.189  0.00  0.00    -0.396 OA
ATOM     20  H   UNL     1      -3.019  -0.371   1.262  0.00  0.00    +0.209 HD
ENDBRANCH  18  19
ENDBRANCH  16  18
ENDBRANCH  12  16
ENDBRANCH   1  12
TORSDOF 6
