REMARK  Name = ZINC21221340
REMARK  5 active torsions:
REMARK  status: ('A' for Active; 'I' for Inactive)
REMARK    1  A    between atoms: C_1  and  C_2
REMARK    2  A    between atoms: C_5  and  C_8
REMARK    3  A    between atoms: C_13  and  C_19
REMARK    4  A    between atoms: C_22  and  O_25
REMARK    5  A    between atoms: O_25  and  C_26
REMARK                            x       y       z     vdW  Elec       q    Type
REMARK                         _______ _______ _______ _____ _____    ______ ____
ROOT
ATOM      1  C   UNL     1       1.416   2.038  -0.001  0.00  0.00    +0.032 C 
ATOM      2  C   UNL     1      -0.018   1.504   0.010  0.00  0.00    +0.059 C 
ATOM      3  C   UNL     1       0.002  -0.004   0.002  0.00  0.00    +0.018 C 
ATOM      4  C   UNL     1       1.015  -0.685   0.578  0.00  0.00    +0.020 C 
ATOM      5  C   UNL     1       1.010  -2.196   0.563  0.00  0.00    +0.063 C 
ATOM      6  C   UNL     1       0.395  -2.689  -0.748  0.00  0.00    +0.109 C 
ATOM      7  C   UNL     1      -0.897  -1.953  -0.994  0.00  0.00    +0.218 C 
ATOM      8  O   UNL     1      -1.817  -2.516  -1.547  0.00  0.00    -0.275 OA
ATOM      9  N   UNL     1      -1.031  -0.674  -0.603  0.00  0.00    -0.289 N 
ATOM     10  C   UNL     1       2.086  -0.019   1.196  0.00  0.00    +0.162 C 
ATOM     11  O   UNL     1       2.974  -0.667   1.715  0.00  0.00    -0.292 OA
ATOM     12  C   UNL     1       2.152   1.484   1.224  0.00  0.00    +0.088 C 
ATOM     13  H   UNL     1      -1.990  -0.164  -0.776  0.00  0.00    +0.155 HD
ENDROOT
BRANCH   1  18
ATOM     14  C   UNL     1       1.339   7.811   0.226  0.00  0.00    +0.044 C 
ATOM     15  C   UNL     1       1.359   6.306   0.167  0.00  0.00    -0.050 A 
ATOM     16  C   UNL     1       1.944   5.664  -0.909  0.00  0.00    +0.003 A 
ATOM     17  C   UNL     1       1.963   4.283  -0.963  0.00  0.00    +0.004 A 
ATOM     18  C   UNL     1       1.396   3.543   0.059  0.00  0.00    -0.043 A 
ATOM     19  C   UNL     1       0.807   4.185   1.132  0.00  0.00    +0.004 A 
ATOM     20  C   UNL     1       0.793   5.566   1.188  0.00  0.00    +0.003 A 
ENDBRANCH   1  18
BRANCH   5  21
ATOM     21  C   UNL     1       0.197  -2.708   1.724  0.00  0.00    -0.039 A 
ATOM     22  C   UNL     1      -1.138  -2.366   1.835  0.00  0.00    +0.008 A 
ATOM     23  C   UNL     1      -1.887  -2.839   2.896  0.00  0.00    +0.046 A 
ATOM     24  C   UNL     1      -1.295  -3.648   3.855  0.00  0.00    +0.120 A 
ATOM     25  C   UNL     1       0.046  -3.985   3.743  0.00  0.00    +0.046 A 
ATOM     26  C   UNL     1       0.789  -3.514   2.678  0.00  0.00    +0.008 A 
BRANCH  24  27
ATOM     27  O   UNL     1      -2.029  -4.111   4.901  0.00  0.00    -0.495 OA
ATOM     28  C   UNL     1      -3.403  -3.723   4.952  0.00  0.00    +0.277 C 
ENDBRANCH  24  27
ENDBRANCH   5  21
TORSDOF 3
