REMARK  Name = ZINC01811017
REMARK  13 active torsions:
REMARK  status: ('A' for Active; 'I' for Inactive)
REMARK    1  A    between atoms: C_1  and  C_2
REMARK    2  A    between atoms: C_4  and  O_10
REMARK    3  A    between atoms: C_6  and  C_9
REMARK    4  A    between atoms: O_10  and  C_11
REMARK    5  A    between atoms: C_16  and  O_22
REMARK    6  A    between atoms: O_22  and  C_23
REMARK    7  A    between atoms: C_23  and  C_24
REMARK    8  A    between atoms: C_24  and  C_26
REMARK    9  A    between atoms: C_24  and  O_35
REMARK   10  A    between atoms: C_26  and  N_63
REMARK   11  A    between atoms: C_27  and  N_63
REMARK   12  A    between atoms: C_28  and  C_29
REMARK   13  A    between atoms: C_28  and  N_63
REMARK                            x       y       z     vdW  Elec       q    Type
REMARK                         _______ _______ _______ _____ _____    ______ ____
ROOT
ATOM      1  C   UNL     1       0.696   0.572  -9.793  0.00  0.00    +0.210 A 
ATOM      2  C   UNL     1      -0.559   1.044  -9.657  0.00  0.00    +0.245 A 
ATOM      3  O   UNL     1      -1.198   1.077  -8.480  0.00  0.00    -0.459 OA
ATOM      4  C   UNL     1      -0.631   0.640  -7.338  0.00  0.00    +0.142 A 
ATOM      5  C   UNL     1      -1.323   0.683  -6.136  0.00  0.00    +0.092 A 
ATOM      6  C   UNL     1      -0.715   0.231  -4.977  0.00  0.00    +0.124 A 
ATOM      7  C   UNL     1       0.583  -0.276  -5.008  0.00  0.00    +0.046 A 
ATOM      8  C   UNL     1       1.275  -0.331  -6.184  0.00  0.00    +0.019 A 
ATOM      9  C   UNL     1       0.678   0.126  -7.360  0.00  0.00    +0.068 A 
ATOM     10  C   UNL     1       1.390   0.085  -8.649  0.00  0.00    +0.234 A 
ATOM     11  O   UNL     1       2.527  -0.349  -8.733  0.00  0.00    -0.283 OA
ENDROOT
BRANCH   1  12
ATOM     12  O   UNL     1       1.297   0.562 -11.014  0.00  0.00    -0.449 OA
BRANCH  12  16
ATOM     13  C   UNL     1       0.075   4.353 -13.836  0.00  0.00    +0.045 C 
ATOM     14  C   UNL     1      -0.022   2.892 -13.478  0.00  0.00    -0.028 A 
ATOM     15  C   UNL     1       0.688   2.397 -12.402  0.00  0.00    +0.051 A 
ATOM     16  C   UNL     1       0.598   1.052 -12.072  0.00  0.00    +0.129 A 
ATOM     17  C   UNL     1      -0.201   0.206 -12.828  0.00  0.00    +0.051 A 
ATOM     18  C   UNL     1      -0.914   0.707 -13.900  0.00  0.00    -0.028 A 
ATOM     19  C   UNL     1      -0.824   2.048 -14.227  0.00  0.00    +0.047 A 
ATOM     20 CL   UNL     1      -1.716   2.674 -15.578  0.00  0.00    -0.083 Cl
ATOM     21  C   UNL     1      -1.788  -0.210 -14.717  0.00  0.00    +0.045 C 
ENDBRANCH  12  16
ENDBRANCH   1  12
BRANCH   6  22
ATOM     22  O   UNL     1      -1.390   0.279  -3.800  0.00  0.00    -0.489 OA
BRANCH  22  23
ATOM     23  C   UNL     1      -0.710  -0.207  -2.642  0.00  0.00    +0.258 C 
BRANCH  23  24
ATOM     24  C   UNL     1      -1.623  -0.075  -1.421  0.00  0.00    +0.135 C 
BRANCH  24  25
ATOM     25  O   UNL     1      -2.757  -0.929  -1.579  0.00  0.00    -0.390 OA
ATOM     26  H   UNL     1      -2.535  -1.866  -1.669  0.00  0.00    +0.210 HD
ENDBRANCH  24  25
BRANCH  24  27
ATOM     27  C   UNL     1      -0.853  -0.478  -0.162  0.00  0.00    -0.044 C 
BRANCH  27  29
ATOM     28  C   UNL     1      -2.083   1.055   1.252  0.00  0.00    -0.096 C 
ATOM     29  N   UNL     1      -1.753  -0.364   1.005  0.00  0.00    +0.382 N 
ATOM     30  H   UNL     1      -2.620  -0.879   0.808  0.00  0.00    -0.082 HD
BRANCH  29  31
ATOM     31  C   UNL     1      -1.108  -0.949   2.200  0.00  0.00    -0.043 C 
BRANCH  31  32
ATOM     32  C   UNL     1      -2.122  -1.021   3.312  0.00  0.00    -0.064 A 
ATOM     33  C   UNL     1      -2.250   0.031   4.200  0.00  0.00    +0.002 A 
ATOM     34  C   UNL     1      -3.183  -0.033   5.218  0.00  0.00    +0.000 A 
ATOM     35  C   UNL     1      -3.981  -1.154   5.355  0.00  0.00    +0.000 A 
ATOM     36  C   UNL     1      -3.849  -2.208   4.470  0.00  0.00    +0.000 A 
ATOM     37  C   UNL     1      -2.920  -2.142   3.449  0.00  0.00    +0.002 A 
ENDBRANCH  31  32
ENDBRANCH  29  31
ENDBRANCH  27  29
ENDBRANCH  24  27
ENDBRANCH  23  24
ENDBRANCH  22  23
ENDBRANCH   6  22
TORSDOF 10
