REMARK  Name = ZINC06625756
REMARK  5 active torsions:
REMARK  status: ('A' for Active; 'I' for Inactive)
REMARK    1  A    between atoms: C_1  and  C_2
REMARK    2  A    between atoms: C_5  and  S_9
REMARK    3  A    between atoms: C_6  and  C_8
REMARK    4  A    between atoms: S_9  and  N_12
REMARK    5  A    between atoms: C_18  and  C_20
REMARK                            x       y       z     vdW  Elec       q    Type
REMARK                         _______ _______ _______ _____ _____    ______ ____
ROOT
ATOM      1  N   UNL     1       1.673  -6.370   1.033  0.00  0.00    -0.174 NA
ATOM      2  C   UNL     1       2.804  -6.576   0.119  0.00  0.00    +0.128 C 
ATOM      3  C   UNL     1       3.755  -5.378   0.238  0.00  0.00    +0.125 C 
ATOM      4  N   UNL     1       4.029  -5.137   1.662  0.00  0.00    -0.295 N 
ATOM      5  C   UNL     1       2.897  -4.931   2.576  0.00  0.00    +0.125 C 
ATOM      6  C   UNL     1       1.947  -6.123   2.456  0.00  0.00    +0.128 C 
ATOM      7  C   UNL     1       5.296  -5.105   2.121  0.00  0.00    +0.253 C 
ATOM      8  O   UNL     1       5.511  -4.907   3.302  0.00  0.00    -0.269 OA
ENDROOT
BRANCH   7   9
ATOM      9  C   UNL     1       6.415  -5.308   1.196  0.00  0.00    +0.075 A 
ATOM     10  C   UNL     1       7.677  -5.814   1.452  0.00  0.00    +0.024 A 
ATOM     11  C   UNL     1       8.548  -5.897   0.377  0.00  0.00    -0.036 A 
ATOM     12  C   UNL     1       8.075  -5.471  -0.830  0.00  0.00    -0.006 A 
ATOM     13  S   UNL     1       6.504  -4.976  -0.553  0.00  0.00    -0.088 S 
ATOM     14  C   UNL     1       8.819  -5.458  -2.132  0.00  0.00    +0.043 C 
ATOM     15  C   UNL     1      10.314  -5.644  -1.839  0.00  0.00    +0.005 C 
ATOM     16  C   UNL     1      10.485  -6.821  -0.875  0.00  0.00    +0.005 C 
ATOM     17  C   UNL     1       9.970  -6.437   0.512  0.00  0.00    +0.036 C 
ENDBRANCH   7   9
BRANCH   1  18
ATOM     18  S   UNL     1       0.116  -6.409   0.469  0.00  0.00    +0.061 S 
ATOM     19  O   UNL     1      -0.716  -6.668   1.592  0.00  0.00    -0.153 OA
ATOM     20  O   UNL     1       0.122  -7.241  -0.682  0.00  0.00    -0.153 OA
BRANCH  18  25
ATOM     21  C   UNL     1      -1.237  -0.845  -1.430  0.00  0.00    +0.044 C 
ATOM     22  C   UNL     1      -0.899  -2.234  -0.956  0.00  0.00    -0.050 A 
ATOM     23  C   UNL     1      -0.692  -3.247  -1.874  0.00  0.00    +0.005 A 
ATOM     24  C   UNL     1      -0.382  -4.522  -1.439  0.00  0.00    +0.029 A 
ATOM     25  C   UNL     1      -0.278  -4.784  -0.085  0.00  0.00    +0.108 A 
ATOM     26  C   UNL     1      -0.484  -3.772   0.833  0.00  0.00    -0.024 A 
ATOM     27  C   UNL     1      -0.790  -2.495   0.397  0.00  0.00    +0.008 A 
ATOM     28  C   UNL     1      -0.372  -4.058   2.308  0.00  0.00    +0.046 C 
ENDBRANCH  18  25
ENDBRANCH   1  18
TORSDOF 3
