REMARK  Name = ZINC04944269
REMARK  4 active torsions:
REMARK  status: ('A' for Active; 'I' for Inactive)
REMARK    1  A    between atoms: C_2  and  C_3
REMARK    2  A    between atoms: C_3  and  S_4
REMARK    3  A    between atoms: S_4  and  C_5
REMARK    4  A    between atoms: C_17  and  C_19
REMARK                            x       y       z     vdW  Elec       q    Type
REMARK                         _______ _______ _______ _____ _____    ______ ____
ROOT
ATOM      1  C   UNL     1      -3.108  -2.318  -0.687  0.00  0.00    +0.171 A 
ATOM      2  N   UNL     1      -3.377  -2.992  -1.840  0.00  0.00    -0.302 N 
ATOM      3  H   UNL     1      -2.749  -2.958  -2.579  0.00  0.00    +0.171 HD
ATOM      4  C   UNL     1      -4.517  -3.707  -1.956  0.00  0.00    +0.258 A 
ATOM      5  O   UNL     1      -4.769  -4.315  -2.983  0.00  0.00    -0.267 OA
ATOM      6  C   UNL     1      -5.402  -3.736  -0.874  0.00  0.00    +0.065 A 
ATOM      7  C   UNL     1      -5.083  -3.035   0.277  0.00  0.00    +0.137 A 
ATOM      8  N   UNL     1      -3.938  -2.348   0.337  0.00  0.00    -0.208 NA
ATOM      9  N   UNL     1      -5.948  -3.051   1.358  0.00  0.00    -0.270 N 
ATOM     10  C   UNL     1      -6.893  -4.003   1.466  0.00  0.00    +0.219 C 
ATOM     11  O   UNL     1      -7.651  -3.989   2.413  0.00  0.00    -0.275 OA
ATOM     12  C   UNL     1      -7.023  -5.084   0.427  0.00  0.00    +0.109 C 
ATOM     13  C   UNL     1      -6.684  -4.519  -0.954  0.00  0.00    +0.069 C 
ATOM     14  H   UNL     1      -5.871  -2.371   2.045  0.00  0.00    +0.156 HD
ENDROOT
BRANCH  13  15
ATOM     15  C   UNL     1      -7.798  -3.613  -1.412  0.00  0.00    -0.003 A 
ATOM     16  C   UNL     1      -9.083  -4.108  -1.542  0.00  0.00    +0.046 A 
ATOM     17  C   UNL     1     -10.105  -3.276  -1.963  0.00  0.00    +0.020 A 
ATOM     18  C   UNL     1      -9.842  -1.950  -2.254  0.00  0.00    +0.003 A 
ATOM     19  C   UNL     1      -8.558  -1.455  -2.123  0.00  0.00    +0.020 A 
ATOM     20  C   UNL     1      -7.537  -2.284  -1.696  0.00  0.00    +0.046 A 
ATOM     21 CL   UNL     1      -5.926  -1.661  -1.525  0.00  0.00    -0.083 Cl
ATOM     22 CL   UNL     1      -9.413  -5.773  -1.179  0.00  0.00    -0.083 Cl
ENDBRANCH  13  15
BRANCH   1  23
ATOM     23  S   UNL     1      -1.615  -1.393  -0.558  0.00  0.00    -0.084 S 
BRANCH  23  24
ATOM     24  C   UNL     1      -1.676  -0.689   1.113  0.00  0.00    +0.104 C 
BRANCH  24  26
ATOM     25  C   UNL     1      -0.542   1.431   1.535  0.00  0.00    +0.005 C 
ATOM     26  C   UNL     1      -0.440   0.137   1.356  0.00  0.00    -0.023 C 
ENDBRANCH  24  26
ENDBRANCH  23  24
ENDBRANCH   1  23
TORSDOF 4
