REMARK  Name = ZINC38734979
REMARK  5 active torsions:
REMARK  status: ('A' for Active; 'I' for Inactive)
REMARK    1  A    between atoms: C_4  and  C_10
REMARK    2  A    between atoms: N_13  and  S_16
REMARK    3  A    between atoms: S_16  and  C_19
REMARK    4  A    between atoms: C_22  and  S_25
REMARK    5  A    between atoms: S_25  and  N_28
REMARK                            x       y       z     vdW  Elec       q    Type
REMARK                         _______ _______ _______ _____ _____    ______ ____
ROOT
ATOM      1  S   UNL     1       5.653   6.842   1.260  0.00  0.00    +0.061 S 
ATOM      2  O   UNL     1       7.025   7.059   0.959  0.00  0.00    -0.153 OA
ATOM      3  O   UNL     1       4.691   7.888   1.226  0.00  0.00    -0.153 OA
ENDROOT
BRANCH   1   7
ATOM      4  C   UNL     1       4.185   3.110  -0.022  0.00  0.00    -0.043 C 
ATOM      5  C   UNL     1       3.304   4.100  -0.105  0.00  0.00    -0.006 C 
ATOM      6  C   UNL     1       3.695   5.551  -0.130  0.00  0.00    +0.137 C 
ATOM      7  N   UNL     1       5.118   5.673   0.217  0.00  0.00    -0.173 NA
ATOM      8  C   UNL     1       6.050   4.714  -0.401  0.00  0.00    +0.114 C 
ATOM      9  C   UNL     1       5.669   3.310   0.079  0.00  0.00    +0.052 C 
BRANCH   4  13
ATOM     10  C   UNL     1       6.206  -0.914   0.559  0.00  0.00    +0.020 A 
ATOM     11  C   UNL     1       5.797   0.378   0.412  0.00  0.00    +0.013 A 
ATOM     12  C   UNL     1       4.426   0.622   0.168  0.00  0.00    +0.022 A 
ATOM     13  C   UNL     1       3.696   1.788  -0.024  0.00  0.00    -0.015 C 
ATOM     14  C   UNL     1       2.266   1.342  -0.236  0.00  0.00    +0.150 C 
ATOM     15  N   UNL     1       2.281  -0.121  -0.146  0.00  0.00    -0.365 N 
ATOM     16  C   UNL     1       3.509  -0.530   0.084  0.00  0.00    +0.135 A 
ATOM     17  N   UNL     1       4.017  -1.771   0.244  0.00  0.00    -0.238 NA
ATOM     18  C   UNL     1       5.291  -1.963   0.469  0.00  0.00    +0.113 A 
ATOM     19  H   UNL     1       1.506  -0.697  -0.240  0.00  0.00    +0.161 HD
ENDBRANCH   4  13
ENDBRANCH   1   7
BRANCH   1  20
ATOM     20  C   UNL     1       5.596   6.158   2.883  0.00  0.00    +0.106 A 
ATOM     21  C   UNL     1       4.450   6.284   3.646  0.00  0.00    +0.030 A 
ATOM     22  C   UNL     1       4.405   5.747   4.919  0.00  0.00    +0.030 A 
ATOM     23  C   UNL     1       5.506   5.085   5.429  0.00  0.00    +0.106 A 
ATOM     24  C   UNL     1       6.652   4.959   4.666  0.00  0.00    +0.030 A 
ATOM     25  C   UNL     1       6.695   5.492   3.391  0.00  0.00    +0.030 A 
BRANCH  23  26
ATOM     26  S   UNL     1       5.450   4.402   7.052  0.00  0.00    +0.061 S 
ATOM     27  O   UNL     1       6.795   4.309   7.501  0.00  0.00    -0.153 OA
ATOM     28  O   UNL     1       4.458   5.129   7.764  0.00  0.00    -0.153 OA
BRANCH  26  29
ATOM     29  N   UNL     1       4.889   2.850   6.911  0.00  0.00    -0.177 NA
ATOM     30  C   UNL     1       3.478   2.441   6.958  0.00  0.00    +0.109 C 
ATOM     31  C   UNL     1       3.440   0.905   6.811  0.00  0.00    +0.018 C 
ATOM     32  C   UNL     1       4.864   0.479   7.257  0.00  0.00    +0.018 C 
ATOM     33  C   UNL     1       5.722   1.650   6.712  0.00  0.00    +0.109 C 
ENDBRANCH  26  29
ENDBRANCH  23  26
ENDBRANCH   1  20
TORSDOF 5
