REMARK  Name = ZINC44785444
REMARK  7 active torsions:
REMARK  status: ('A' for Active; 'I' for Inactive)
REMARK    1  A    between atoms: C_1  and  C_2
REMARK    2  A    between atoms: C_2  and  C_3
REMARK    3  A    between atoms: C_3  and  C_4
REMARK    4  A    between atoms: C_3  and  C_6
REMARK    5  A    between atoms: C_3  and  C_10
REMARK    6  A    between atoms: C_4  and  C_5
REMARK    7  A    between atoms: N_7  and  O_8
REMARK                            x       y       z     vdW  Elec       q    Type
REMARK                         _______ _______ _______ _____ _____    ______ ____
ROOT
ATOM      1  C   UNL     1       0.798  -0.310   1.400  0.00  0.00    +0.105 C 
ENDROOT
BRANCH   1   2
ATOM      2  C   UNL     1      -0.124   0.046   2.538  0.00  0.00    +0.229 C 
ATOM      3  O   UNL     1       0.231   0.846   3.378  0.00  0.00    -0.275 OA
ATOM      4  N   UNL     1      -1.342  -0.524   2.621  0.00  0.00    -0.300 N 
ATOM      5  C   UNL     1      -1.738  -1.586   1.687  0.00  0.00    +0.108 C 
ATOM      6  C   UNL     1      -2.208  -2.801   2.492  0.00  0.00    +0.023 C 
ATOM      7  C   UNL     1      -3.317  -2.371   3.457  0.00  0.00    -0.005 C 
ATOM      8  C   UNL     1      -3.798  -3.592   4.247  0.00  0.00    +0.004 C 
ATOM      9  C   UNL     1      -2.623  -4.189   5.024  0.00  0.00    +0.000 C 
ATOM     10  C   UNL     1      -2.066  -3.143   5.992  0.00  0.00    +0.000 C 
ATOM     11  C   UNL     1      -1.592  -1.919   5.205  0.00  0.00    +0.005 C 
ATOM     12  C   UNL     1      -2.772  -1.319   4.426  0.00  0.00    +0.010 C 
ATOM     13  C   UNL     1      -2.299  -0.099   3.652  0.00  0.00    +0.111 C 
ENDBRANCH   1   2
BRANCH   1  14
ATOM     14  C   UNL     1       2.004   0.594   1.429  0.00  0.00    +0.147 C 
ATOM     15  N   UNL     1       2.223   1.410   0.452  0.00  0.00    -0.076 NA
ATOM     16  N   UNL     1       2.872   0.550   2.497  0.00  0.00    -0.343 N 
ATOM     17  H   UNL     1       2.749  -0.112   3.195  0.00  0.00    +0.144 HD
ATOM     18  H   UNL     1       3.607   1.181   2.551  0.00  0.00    +0.144 HD
BRANCH  15  19
ATOM     19  O   UNL     1       3.356   2.259   0.479  0.00  0.00    -0.408 OA
ATOM     20  H   UNL     1       3.435   2.834  -0.295  0.00  0.00    +0.328 HD
ENDBRANCH  15  19
ENDBRANCH   1  14
BRANCH   1  22
ATOM     21  C   UNL     1      -0.520   1.280  -0.006  0.00  0.00    +0.005 C 
ATOM     22  C   UNL     1       0.061  -0.134   0.071  0.00  0.00    +0.020 C 
ENDBRANCH   1  22
BRANCH   1  23
ATOM     23  C   UNL     1       1.248  -1.765   1.545  0.00  0.00    +0.020 C 
ATOM     24  C   UNL     1       2.266  -2.095   0.450  0.00  0.00    +0.005 C 
ENDBRANCH   1  23
TORSDOF 5
