REMARK  Name = ZINC49116715
REMARK  5 active torsions:
REMARK  status: ('A' for Active; 'I' for Inactive)
REMARK    1  A    between atoms: C_1  and  C_2
REMARK    2  A    between atoms: C_2  and  C_3
REMARK    3  A    between atoms: C_9  and  N_11
REMARK    4  A    between atoms: C_12  and  C_14
REMARK    5  A    between atoms: C_16  and  N_22
REMARK                            x       y       z     vdW  Elec       q    Type
REMARK                         _______ _______ _______ _____ _____    ______ ____
ROOT
ATOM      1  N   UNL     1      -0.776  -2.430  -1.376  0.00  0.00    -0.308 N 
ATOM      2  C   UNL     1      -1.139  -3.654  -0.946  0.00  0.00    +0.244 C 
ATOM      3  O   UNL     1      -0.299  -4.422  -0.518  0.00  0.00    -0.270 OA
ATOM      4  H   UNL     1      -1.447  -1.817  -1.717  0.00  0.00    +0.149 HD
ENDROOT
BRANCH   2   5
ATOM      5  C   UNL     1      -2.558  -4.064  -0.994  0.00  0.00    +0.040 A 
ATOM      6  C   UNL     1      -2.936  -5.330  -0.543  0.00  0.00    +0.037 A 
ATOM      7  C   UNL     1      -4.268  -5.708  -0.591  0.00  0.00    +0.045 A 
ATOM      8  C   UNL     1      -5.224  -4.828  -1.087  0.00  0.00    +0.080 A 
ATOM      9  C   UNL     1      -4.849  -3.572  -1.534  0.00  0.00    +0.062 A 
ATOM     10  C   UNL     1      -3.525  -3.185  -1.484  0.00  0.00    +0.034 A 
ATOM     11 CL   UNL     1      -6.048  -2.480  -2.152  0.00  0.00    -0.082 Cl
ATOM     12 CL   UNL     1      -6.893  -5.305  -1.146  0.00  0.00    -0.080 Cl
BRANCH   7  13
ATOM     13  N   UNL     1      -4.652  -6.975  -0.141  0.00  0.00    -0.357 N 
ATOM     14  H   UNL     1      -3.985  -7.589   0.205  0.00  0.00    +0.142 HD
ATOM     15  H   UNL     1      -5.584  -7.240  -0.174  0.00  0.00    +0.142 HD
ENDBRANCH   7  13
ENDBRANCH   2   5
BRANCH   1  21
ATOM     16  C   UNL     1       0.718  -0.497  -1.257  0.00  0.00    +0.009 C 
ATOM     17  C   UNL     1       2.187  -0.073  -1.207  0.00  0.00    +0.005 C 
ATOM     18  C   UNL     1       2.904  -0.566  -2.466  0.00  0.00    +0.000 C 
ATOM     19  C   UNL     1       2.816  -2.092  -2.538  0.00  0.00    +0.002 C 
ATOM     20  C   UNL     1       1.347  -2.517  -2.587  0.00  0.00    +0.022 C 
ATOM     21  C   UNL     1       0.630  -2.023  -1.329  0.00  0.00    +0.076 C 
BRANCH  16  23
ATOM     22  C   UNL     1      -0.019   1.526   0.010  0.00  0.00    +0.004 C 
ATOM     23  C   UNL     1       0.002  -0.004   0.002  0.00  0.00    +0.002 C 
ENDBRANCH  16  23
ENDBRANCH   1  21
TORSDOF 4
