REMARK  Name = ZINC27520737
REMARK  9 active torsions:
REMARK  status: ('A' for Active; 'I' for Inactive)
REMARK    1  A    between atoms: C_1  and  N_2
REMARK    2  A    between atoms: C_7  and  C_9
REMARK    3  A    between atoms: N_11  and  N_12
REMARK    4  A    between atoms: C_13  and  C_14
REMARK    5  A    between atoms: C_18  and  O_30
REMARK    6  A    between atoms: C_19  and  O_20
REMARK    7  A    between atoms: O_20  and  C_21
REMARK    8  A    between atoms: C_21  and  C_22
REMARK    9  A    between atoms: O_30  and  C_31
REMARK                            x       y       z     vdW  Elec       q    Type
REMARK                         _______ _______ _______ _____ _____    ______ ____
ROOT
ATOM      1  C   UNL     1       2.125  -0.084   0.074  0.00  0.00    +0.040 A 
ATOM      2  C   UNL     1       2.219   1.298   0.262  0.00  0.00    +0.013 A 
ATOM      3  C   UNL     1       1.074   2.061   0.344  0.00  0.00    +0.004 A 
ATOM      4  C   UNL     1      -0.172   1.466   0.241  0.00  0.00    +0.049 A 
ATOM      5  C   UNL     1      -0.281   0.098   0.054  0.00  0.00    +0.162 A 
ATOM      6  C   UNL     1       0.865  -0.685  -0.030  0.00  0.00    +0.171 A 
ENDROOT
BRANCH   1   8
ATOM      7  N   UNL     1       3.256  -2.197  -0.083  0.00  0.00    -0.188 NA
ATOM      8  C   UNL     1       3.346  -0.905  -0.013  0.00  0.00    +0.142 C 
BRANCH   7  11
ATOM      9  C   UNL     1       4.315  -4.327   0.014  0.00  0.00    +0.219 C 
ATOM     10  O   UNL     1       3.226  -4.858  -0.049  0.00  0.00    -0.276 OA
ATOM     11  N   UNL     1       4.414  -2.984  -0.037  0.00  0.00    -0.208 N 
ATOM     12  H   UNL     1       5.405  -2.505  -0.042  0.00  0.00    +0.177 HD
BRANCH   9  19
ATOM     13  C   UNL     1       4.423  -6.397   1.900  0.00  0.00    -0.095 C 
ATOM     14  N   UNL     1       5.194  -6.500   0.654  0.00  0.00    +0.385 N 
ATOM     15  C   UNL     1       6.384  -7.341   0.839  0.00  0.00    -0.078 C 
ATOM     16  C   UNL     1       7.081  -7.544  -0.508  0.00  0.00    -0.019 C 
ATOM     17  C   UNL     1       7.481  -6.181  -1.081  0.00  0.00    -0.003 C 
ATOM     18  C   UNL     1       6.230  -5.309  -1.219  0.00  0.00    -0.006 C 
ATOM     19  C   UNL     1       5.558  -5.170   0.149  0.00  0.00    +0.021 C 
ATOM     20  H   UNL     1       4.557  -6.983  -0.102  0.00  0.00    -0.081 HD
ENDBRANCH   9  19
ENDBRANCH   7  11
ENDBRANCH   1   8
BRANCH   5  21
ATOM     21  O   UNL     1      -1.508  -0.480  -0.047  0.00  0.00    -0.491 OA
ATOM     22  C   UNL     1      -2.642   0.385   0.049  0.00  0.00    +0.277 C 
ENDBRANCH   5  21
BRANCH   6  23
ATOM     23  O   UNL     1       0.762  -2.028  -0.214  0.00  0.00    -0.483 OA
BRANCH  23  24
ATOM     24  C   UNL     1       0.557  -2.486  -1.552  0.00  0.00    +0.269 C 
BRANCH  24  25
ATOM     25  C   UNL     1       0.446  -3.989  -1.557  0.00  0.00    +0.043 A 
ATOM     26  C   UNL     1       1.506  -4.760  -2.003  0.00  0.00    +0.131 A 
ATOM     27  C   UNL     1       1.405  -6.141  -2.002  0.00  0.00    +0.039 A 
ATOM     28  C   UNL     1       0.243  -6.749  -1.565  0.00  0.00    +0.004 A 
ATOM     29  C   UNL     1      -0.817  -5.979  -1.125  0.00  0.00    +0.020 A 
ATOM     30  C   UNL     1      -0.716  -4.599  -1.121  0.00  0.00    +0.050 A 
ATOM     31 CL   UNL     1      -2.048  -3.632  -0.568  0.00  0.00    -0.083 Cl
ATOM     32  F   UNL     1       2.640  -4.166  -2.435  0.00  0.00    -0.205 F 
ENDBRANCH  24  25
ENDBRANCH  23  24
ENDBRANCH   6  23
TORSDOF 7
