REMARK  Name = ZINC32751597
REMARK  9 active torsions:
REMARK  status: ('A' for Active; 'I' for Inactive)
REMARK    1  A    between atoms: C_1  and  C_2
REMARK    2  A    between atoms: C_5  and  C_7
REMARK    3  A    between atoms: C_11  and  S_18
REMARK    4  A    between atoms: S_18  and  N_21
REMARK    5  A    between atoms: N_21  and  C_22
REMARK    6  A    between atoms: C_25  and  C_28
REMARK    7  A    between atoms: C_28  and  C_29
REMARK    8  A    between atoms: C_28  and  C_30
REMARK    9  A    between atoms: C_28  and  C_31
REMARK                            x       y       z     vdW  Elec       q    Type
REMARK                         _______ _______ _______ _____ _____    ______ ____
ROOT
ATOM      1  C   UNL     1      -3.586   4.413  -0.999  0.00  0.00    +0.028 C 
ATOM      2  C   UNL     1      -3.006   3.184  -1.253  0.00  0.00    +0.047 C 
ATOM      3  C   UNL     1      -1.612   2.916  -1.670  0.00  0.00    +0.010 A 
ATOM      4  C   UNL     1      -0.517   3.736  -1.923  0.00  0.00    +0.039 A 
ATOM      5  C   UNL     1       0.684   3.175  -2.306  0.00  0.00    +0.109 A 
ATOM      6  C   UNL     1       0.799   1.801  -2.437  0.00  0.00    +0.030 A 
ATOM      7  C   UNL     1      -0.281   0.979  -2.188  0.00  0.00    +0.026 A 
ATOM      8  C   UNL     1      -1.502   1.525  -1.807  0.00  0.00    +0.042 A 
ATOM      9  N   UNL     1      -2.725   0.939  -1.507  0.00  0.00    -0.281 N 
ATOM     10  C   UNL     1      -3.645   1.864  -1.183  0.00  0.00    +0.249 C 
ATOM     11  O   UNL     1      -4.803   1.645  -0.874  0.00  0.00    -0.270 OA
ATOM     12  H   UNL     1      -2.838  -0.154  -1.554  0.00  0.00    +0.155 HD
ENDROOT
BRANCH   1  17
ATOM     13  C   UNL     1      -1.219   9.410  -1.256  0.00  0.00    +0.051 C 
ATOM     14  C   UNL     1      -1.642   7.978  -1.050  0.00  0.00    -0.013 A 
ATOM     15  C   UNL     1      -0.971   6.983  -0.409  0.00  0.00    +0.011 A 
ATOM     16  C   UNL     1      -1.534   5.736  -0.332  0.00  0.00    +0.016 A 
ATOM     17  C   UNL     1      -2.783   5.569  -0.927  0.00  0.00    +0.013 A 
ATOM     18  S   UNL     1      -3.098   7.200  -1.580  0.00  0.00    -0.094 S 
ENDBRANCH   1  17
BRANCH   5  19
ATOM     19  S   UNL     1       2.075   4.208  -2.628  0.00  0.00    +0.072 S 
ATOM     20  O   UNL     1       1.809   5.455  -1.999  0.00  0.00    -0.150 OA
ATOM     21  O   UNL     1       3.231   3.437  -2.332  0.00  0.00    -0.150 OA
BRANCH  19  22
ATOM     22  N   UNL     1       2.103   4.498  -4.258  0.00  0.00    -0.216 N 
ATOM     23  H   UNL     1       1.979   5.523  -4.637  0.00  0.00    +0.174 HD
BRANCH  22  24
ATOM     24  C   UNL     1       2.285   3.440  -5.152  0.00  0.00    +0.048 A 
ATOM     25  C   UNL     1       3.273   2.493  -4.918  0.00  0.00    +0.025 A 
ATOM     26  C   UNL     1       3.447   1.445  -5.801  0.00  0.00    +0.006 A 
ATOM     27  C   UNL     1       2.645   1.345  -6.923  0.00  0.00    -0.042 A 
ATOM     28  C   UNL     1       1.664   2.289  -7.162  0.00  0.00    +0.006 A 
ATOM     29  C   UNL     1       1.481   3.336  -6.280  0.00  0.00    +0.025 A 
BRANCH  27  30
ATOM     30  C   UNL     1       2.842   0.204  -7.888  0.00  0.00    -0.013 C 
ATOM     31  C   UNL     1       3.191   0.760  -9.270  0.00  0.00    +0.015 C 
ATOM     32  C   UNL     1       3.981  -0.690  -7.396  0.00  0.00    +0.015 C 
ATOM     33  C   UNL     1       1.553  -0.615  -7.979  0.00  0.00    +0.015 C 
ENDBRANCH  27  30
ENDBRANCH  22  24
ENDBRANCH  19  22
ENDBRANCH   5  19
TORSDOF 5
