REMARK  Name = ZINC28747967
REMARK  5 active torsions:
REMARK  status: ('A' for Active; 'I' for Inactive)
REMARK    1  A    between atoms: C_5  and  C_7
REMARK    2  A    between atoms: N_11  and  C_19
REMARK    3  A    between atoms: C_13  and  C_14
REMARK    4  A    between atoms: C_13  and  C_16
REMARK    5  A    between atoms: C_19  and  C_20
REMARK                            x       y       z     vdW  Elec       q    Type
REMARK                         _______ _______ _______ _____ _____    ______ ____
ROOT
ATOM      1  C   UNL     1      -4.429  -0.111   5.833  0.00  0.00    +0.030 C 
ATOM      2  C   UNL     1      -3.696   0.802   5.145  0.00  0.00    +0.079 A 
ATOM      3  C   UNL     1      -3.855   1.278   3.757  0.00  0.00    +0.266 A 
ATOM      4  O   UNL     1      -4.740   0.855   3.036  0.00  0.00    -0.266 OA
ATOM      5  N   UNL     1      -2.989   2.182   3.332  0.00  0.00    -0.298 N 
ATOM      6  C   UNL     1      -2.001   2.653   4.160  0.00  0.00    +0.112 A 
ATOM      7  C   UNL     1      -1.014   3.601   3.881  0.00  0.00    +0.158 C 
ATOM      8  S   UNL     1      -2.283   1.758   5.678  0.00  0.00    -0.064 S 
ENDROOT
BRANCH   1  13
ATOM      9  C   UNL     1      -3.340   0.498   9.368  0.00  0.00    +0.001 A 
ATOM     10  C   UNL     1      -3.769  -0.665   9.985  0.00  0.00    +0.001 A 
ATOM     11  C   UNL     1      -4.411  -1.649   9.254  0.00  0.00    +0.020 A 
ATOM     12  C   UNL     1      -4.630  -1.477   7.902  0.00  0.00    +0.048 A 
ATOM     13  C   UNL     1      -4.200  -0.303   7.271  0.00  0.00    -0.005 A 
ATOM     14  C   UNL     1      -3.547   0.684   8.018  0.00  0.00    +0.009 A 
ATOM     15 CL   UNL     1      -5.437  -2.712   6.987  0.00  0.00    -0.083 Cl
ENDBRANCH   1  13
BRANCH   7  16
ATOM     16  C   UNL     1       0.009   3.874   4.846  0.00  0.00    +0.113 C 
ATOM     17  N   UNL     1       0.820   4.090   5.611  0.00  0.00    -0.190 NA
ENDBRANCH   7  16
BRANCH   7  18
ATOM     18  C   UNL     1      -1.025   4.301   2.632  0.00  0.00    +0.113 C 
ATOM     19  N   UNL     1      -1.034   4.856   1.641  0.00  0.00    -0.190 NA
ENDBRANCH   7  18
BRANCH   5  20
ATOM     20  C   UNL     1      -3.089   2.692   1.962  0.00  0.00    +0.157 C 
BRANCH  20  21
ATOM     21  C   UNL     1      -3.857   4.016   1.965  0.00  0.00    +0.138 C 
ATOM     22  C   UNL     1      -3.974   4.573   0.529  0.00  0.00    +0.035 C 
ATOM     23  C   UNL     1      -5.386   5.199   0.484  0.00  0.00    +0.031 C 
ATOM     24  C   UNL     1      -5.954   4.946   1.898  0.00  0.00    +0.160 C 
ATOM     25  O   UNL     1      -5.222   3.804   2.394  0.00  0.00    -0.375 OA
ENDBRANCH  20  21
ENDBRANCH   5  20
TORSDOF 5
