REMARK  Name = ZINC40042504
REMARK  6 active torsions:
REMARK  status: ('A' for Active; 'I' for Inactive)
REMARK    1  A    between atoms: C_1  and  C_2
REMARK    2  A    between atoms: C_2  and  C_3
REMARK    3  A    between atoms: N_16  and  C_26
REMARK    4  A    between atoms: C_17  and  C_19
REMARK    5  A    between atoms: C_23  and  O_25
REMARK    6  A    between atoms: C_26  and  C_27
REMARK                            x       y       z     vdW  Elec       q    Type
REMARK                         _______ _______ _______ _____ _____    ______ ____
ROOT
ATOM      1  C   UNL     1       0.707  -0.490  -1.238  0.00  0.00    -0.047 A 
ATOM      2  C   UNL     1      -0.016  -0.719  -2.400  0.00  0.00    +0.007 A 
ATOM      3  C   UNL     1       0.609  -1.166  -3.543  0.00  0.00    +0.047 A 
ATOM      4  C   UNL     1       1.985  -1.393  -3.544  0.00  0.00    +0.139 A 
ATOM      5  C   UNL     1       2.707  -1.153  -2.364  0.00  0.00    +0.065 A 
ATOM      6  C   UNL     1       2.058  -0.699  -1.216  0.00  0.00    +0.019 A 
ATOM      7  C   UNL     1       4.175  -1.377  -2.359  0.00  0.00    +0.199 A 
ATOM      8  O   UNL     1       4.850  -1.357  -1.345  0.00  0.00    -0.287 OA
ATOM      9  C   UNL     1       4.734  -1.627  -3.692  0.00  0.00    +0.072 A 
ATOM     10  C   UNL     1       3.921  -1.838  -4.769  0.00  0.00    +0.199 A 
ATOM     11  O   UNL     1       2.576  -1.839  -4.675  0.00  0.00    -0.450 OA
ATOM     12  C   UNL     1       4.769  -2.048  -5.955  0.00  0.00    +0.284 C 
ATOM     13  O   UNL     1       4.356  -2.259  -7.078  0.00  0.00    -0.267 OA
ATOM     14  N   UNL     1       6.072  -1.972  -5.613  0.00  0.00    -0.276 N 
ATOM     15  C   UNL     1       6.148  -1.704  -4.167  0.00  0.00    +0.145 C 
ENDROOT
BRANCH  15  16
ATOM     16  C   UNL     1       6.852  -0.395  -3.918  0.00  0.00    -0.019 A 
ATOM     17  C   UNL     1       6.637   0.678  -4.763  0.00  0.00    +0.006 A 
ATOM     18  C   UNL     1       7.282   1.879  -4.537  0.00  0.00    +0.004 A 
ATOM     19  C   UNL     1       8.143   2.011  -3.465  0.00  0.00    +0.045 A 
ATOM     20  C   UNL     1       8.361   0.937  -2.615  0.00  0.00    +0.117 A 
ATOM     21  C   UNL     1       7.708  -0.266  -2.841  0.00  0.00    +0.051 A 
BRANCH  20  22
ATOM     22  O   UNL     1       9.208   1.064  -1.560  0.00  0.00    -0.507 OA
ATOM     23  H   UNL     1       8.781   1.366  -0.747  0.00  0.00    +0.292 HD
ENDBRANCH  20  22
ENDBRANCH  15  16
BRANCH   1  25
ATOM     24  C   UNL     1      -0.019   1.526   0.010  0.00  0.00    +0.009 C 
ATOM     25  C   UNL     1       0.002  -0.004   0.002  0.00  0.00    +0.032 C 
ENDBRANCH   1  25
BRANCH  14  26
ATOM     26  C   UNL     1       7.211  -2.129  -6.520  0.00  0.00    +0.183 C 
BRANCH  26  27
ATOM     27  C   UNL     1       7.588  -0.785  -7.090  0.00  0.00    +0.122 A 
ATOM     28  C   UNL     1       8.475   0.074  -6.557  0.00  0.00    +0.046 A 
ATOM     29  C   UNL     1       8.520   1.199  -7.412  0.00  0.00    +0.041 A 
ATOM     30  C   UNL     1       7.657   0.960  -8.416  0.00  0.00    +0.195 A 
ATOM     31  O   UNL     1       7.100  -0.246  -8.219  0.00  0.00    -0.466 OA
ENDBRANCH  26  27
ENDBRANCH  14  26
TORSDOF 5
