REMARK  Name = ZINC12079905
REMARK  7 active torsions:
REMARK  status: ('A' for Active; 'I' for Inactive)
REMARK    1  A    between atoms: C_1  and  C_2
REMARK    2  A    between atoms: C_3  and  C_21
REMARK    3  A    between atoms: N_7  and  C_8
REMARK    4  A    between atoms: C_8  and  C_9
REMARK    5  A    between atoms: C_14  and  C_15
REMARK    6  A    between atoms: N_24  and  C_26
REMARK    7  A    between atoms: C_26  and  C_27
REMARK                            x       y       z     vdW  Elec       q    Type
REMARK                         _______ _______ _______ _____ _____    ______ ____
ROOT
ATOM      1  C   UNL     1      -1.005   5.999   4.014  0.00  0.00    +0.067 C 
ATOM      2  C   UNL     1      -1.666   5.705   5.336  0.00  0.00    +0.057 A 
ATOM      3  C   UNL     1      -1.828   4.418   5.770  0.00  0.00    +0.063 A 
ATOM      4  S   UNL     1      -2.632   4.697   7.342  0.00  0.00    -0.051 S 
ATOM      5  C   UNL     1      -2.679   6.431   7.267  0.00  0.00    +0.159 A 
ATOM      6  N   UNL     1      -2.106   6.679   6.104  0.00  0.00    -0.229 NA
ATOM      7  N   UNL     1      -3.188   7.327   8.193  0.00  0.00    -0.319 N 
ATOM      8  H   UNL     1      -3.585   7.000   9.016  0.00  0.00    +0.148 HD
ENDROOT
BRANCH   3   9
ATOM      9  C   UNL     1      -1.440   3.147   5.122  0.00  0.00    +0.101 A 
ATOM     10  C   UNL     1      -1.641   1.852   5.645  0.00  0.00    +0.050 A 
ATOM     11  C   UNL     1      -1.149   0.965   4.753  0.00  0.00    +0.109 A 
ATOM     12  N   UNL     1      -0.654   1.657   3.705  0.00  0.00    -0.267 N 
ATOM     13  N   UNL     1      -0.840   3.023   3.955  0.00  0.00    -0.171 NA
BRANCH  12  14
ATOM     14  C   UNL     1      -0.025   1.080   2.514  0.00  0.00    +0.191 C 
BRANCH  14  15
ATOM     15  C   UNL     1      -0.743   1.587   1.262  0.00  0.00    +0.232 C 
ATOM     16  C   UNL     1      -0.013   1.086   0.008  0.00  0.00    +0.275 C 
ATOM     17  O   UNL     1      -0.716   1.565  -1.143  0.00  0.00    -0.485 OA
ATOM     18  C   UNL     1      -2.070   1.427  -1.134  0.00  0.00    +0.162 A 
ATOM     19  C   UNL     1      -2.773   1.528  -2.326  0.00  0.00    +0.049 A 
ATOM     20  C   UNL     1      -4.148   1.393  -2.332  0.00  0.00    +0.004 A 
ATOM     21  C   UNL     1      -4.827   1.158  -1.151  0.00  0.00    +0.004 A 
ATOM     22  C   UNL     1      -4.133   1.056   0.040  0.00  0.00    +0.049 A 
ATOM     23  C   UNL     1      -2.753   1.189   0.053  0.00  0.00    +0.163 A 
ATOM     24  O   UNL     1      -2.082   1.079   1.232  0.00  0.00    -0.480 OA
ENDBRANCH  14  15
ENDBRANCH  12  14
ENDBRANCH   3   9
BRANCH   7  25
ATOM     25  C   UNL     1      -3.126   8.767   7.930  0.00  0.00    +0.142 C 
BRANCH  25  26
ATOM     26  C   UNL     1      -3.742   9.515   9.084  0.00  0.00    +0.015 A 
ATOM     27  C   UNL     1      -4.992  10.027   9.124  0.00  0.00    +0.110 A 
ATOM     28  N   UNL     1      -5.161  10.618  10.326  0.00  0.00    -0.284 N 
ATOM     29  H   UNL     1      -5.989  11.083  10.640  0.00  0.00    +0.188 HD
ATOM     30  N   UNL     1      -3.976  10.468  11.057  0.00  0.00    -0.174 NA
ATOM     31  C   UNL     1      -3.120   9.799  10.315  0.00  0.00    +0.097 A 
BRANCH  31  32
ATOM     32  C   UNL     1      -1.740   9.415  10.705  0.00  0.00    +0.002 A 
ATOM     33  C   UNL     1      -1.203   8.204  10.274  0.00  0.00    +0.010 A 
ATOM     34  C   UNL     1       0.083   7.855  10.634  0.00  0.00    +0.001 A 
ATOM     35  C   UNL     1       0.833   8.699  11.433  0.00  0.00    +0.000 A 
ATOM     36  C   UNL     1       0.303   9.900  11.869  0.00  0.00    +0.001 A 
ATOM     37  C   UNL     1      -0.980  10.262  11.509  0.00  0.00    +0.010 A 
ENDBRANCH  31  32
ENDBRANCH  25  26
ENDBRANCH   7  25
TORSDOF 6
