REMARK  Name = ZINC15972119
REMARK  9 active torsions:
REMARK  status: ('A' for Active; 'I' for Inactive)
REMARK    1  A    between atoms: C_1  and  C_2
REMARK    2  A    between atoms: C_2  and  C_4
REMARK    3  A    between atoms: C_2  and  O_34
REMARK    4  A    between atoms: C_7  and  C_21
REMARK    5  A    between atoms: N_23  and  C_24
REMARK    6  A    between atoms: C_26  and  O_32
REMARK    7  A    between atoms: C_29  and  O_30
REMARK    8  A    between atoms: O_30  and  C_31
REMARK    9  A    between atoms: O_32  and  C_33
REMARK                            x       y       z     vdW  Elec       q    Type
REMARK                         _______ _______ _______ _____ _____    ______ ____
ROOT
ATOM      1  C   UNL     1       0.775  -0.543   1.203  0.00  0.00    +0.084 C 
ATOM      2  C   UNL     1       0.747  -2.091   1.259  0.00  0.00    +0.036 C 
ATOM      3  C   UNL     1       0.929  -2.386   2.768  0.00  0.00    +0.110 C 
ATOM      4  C   UNL     1       0.488  -1.100   3.476  0.00  0.00    +0.135 C 
ATOM      5  N   UNL     1       0.064  -0.137   2.444  0.00  0.00    -0.294 NA
ATOM      6  C   UNL     1       1.603  -0.536   4.315  0.00  0.00    +0.005 A 
ATOM      7  C   UNL     1       2.872  -0.088   4.024  0.00  0.00    +0.027 A 
ATOM      8  C   UNL     1       3.689   0.385   5.037  0.00  0.00    +0.041 A 
ATOM      9  C   UNL     1       3.226   0.405   6.341  0.00  0.00    +0.022 A 
ATOM     10  C   UNL     1       1.955  -0.042   6.636  0.00  0.00    +0.025 A 
ATOM     11  C   UNL     1       1.127  -0.519   5.622  0.00  0.00    +0.039 A 
ATOM     12  N   UNL     1      -0.177  -1.016   5.668  0.00  0.00    -0.283 N 
ATOM     13  C   UNL     1      -0.626  -1.377   4.451  0.00  0.00    +0.243 C 
ATOM     14  O   UNL     1      -1.717  -1.839   4.191  0.00  0.00    -0.273 OA
ATOM     15 CL   UNL     1       5.290   0.949   4.672  0.00  0.00    -0.084 Cl
ATOM     16  H   UNL     1       0.304   0.807   2.706  0.00  0.00    +0.124 HD
ATOM     17  H   UNL     1      -0.699  -1.092   6.482  0.00  0.00    +0.155 HD
ENDROOT
BRANCH   3  18
ATOM     18  C   UNL     1       0.057  -3.542   3.185  0.00  0.00    +0.223 C 
ATOM     19  O   UNL     1      -1.025  -3.706   2.661  0.00  0.00    -0.275 OA
ATOM     20  N   UNL     1       0.478  -4.394   4.140  0.00  0.00    -0.282 N 
ATOM     21  H   UNL     1       1.303  -4.217   4.619  0.00  0.00    +0.155 HD
BRANCH  20  22
ATOM     22  C   UNL     1      -0.275  -5.537   4.442  0.00  0.00    +0.079 A 
ATOM     23  C   UNL     1      -0.979  -6.189   3.441  0.00  0.00    +0.072 A 
ATOM     24  C   UNL     1      -1.723  -7.319   3.743  0.00  0.00    +0.122 A 
ATOM     25  C   UNL     1      -1.764  -7.797   5.044  0.00  0.00    +0.049 A 
ATOM     26  C   UNL     1      -1.063  -7.148   6.044  0.00  0.00    +0.051 A 
ATOM     27  C   UNL     1      -0.313  -6.022   5.747  0.00  0.00    +0.141 A 
BRANCH  27  28
ATOM     28  O   UNL     1       0.381  -5.388   6.730  0.00  0.00    -0.493 OA
ATOM     29  C   UNL     1       0.296  -5.941   8.045  0.00  0.00    +0.277 C 
ENDBRANCH  27  28
BRANCH  24  30
ATOM     30  O   UNL     1      -2.414  -7.959   2.762  0.00  0.00    -0.495 OA
ATOM     31  C   UNL     1      -3.160  -9.117   3.144  0.00  0.00    +0.277 C 
ENDBRANCH  24  30
ENDBRANCH  20  22
ENDBRANCH   3  18
BRANCH   1  33
ATOM     32  C   UNL     1       0.029   1.496  -0.035  0.00  0.00    +0.039 C 
ATOM     33  C   UNL     1       0.033  -0.034  -0.035  0.00  0.00    +0.128 C 
BRANCH  33  34
ATOM     34  O   UNL     1       0.690  -0.509  -1.212  0.00  0.00    -0.391 OA
ATOM     35  H   UNL     1       1.609  -0.221  -1.293  0.00  0.00    +0.210 HD
ENDBRANCH  33  34
ENDBRANCH   1  33
TORSDOF 6
