REMARK  Name = ZINC34791765
REMARK  12 active torsions:
REMARK  status: ('A' for Active; 'I' for Inactive)
REMARK    1  A    between atoms: C_1  and  C_2
REMARK    2  A    between atoms: C_2  and  N_3
REMARK    3  A    between atoms: C_6  and  C_11
REMARK    4  A    between atoms: C_14  and  C_18
REMARK    5  A    between atoms: C_16  and  C_17
REMARK    6  A    between atoms: N_21  and  C_23
REMARK    7  A    between atoms: C_23  and  C_25
REMARK    8  A    between atoms: C_23  and  C_32
REMARK    9  A    between atoms: C_25  and  C_26
REMARK   10  A    between atoms: N_34  and  C_35
REMARK   11  A    between atoms: C_35  and  C_36
REMARK   12  A    between atoms: C_35  and  C_37
REMARK                            x       y       z     vdW  Elec       q    Type
REMARK                         _______ _______ _______ _____ _____    ______ ____
ROOT
ATOM      1  N   UNL     1      -1.043  -0.928  -0.795  0.00  0.00    -0.257 N 
ATOM      2  C   UNL     1      -1.461  -1.006   0.502  0.00  0.00    +0.042 C 
ATOM      3  C   UNL     1      -2.736  -1.318   0.808  0.00  0.00    +0.058 C 
ATOM      4  C   UNL     1      -3.692  -1.580  -0.338  0.00  0.00    +0.142 C 
ATOM      5  N   UNL     1      -3.144  -1.471  -1.701  0.00  0.00    -0.288 N 
ATOM      6  C   UNL     1      -1.845  -1.144  -1.846  0.00  0.00    +0.307 C 
ATOM      7  O   UNL     1      -1.385  -1.048  -2.967  0.00  0.00    -0.252 OA
ATOM      8  C   UNL     1      -2.915  -1.335   2.207  0.00  0.00    +0.247 C 
ATOM      9  O   UNL     1      -3.969  -1.587   2.763  0.00  0.00    -0.270 OA
ATOM     10  N   UNL     1      -1.770  -1.037   2.847  0.00  0.00    -0.280 N 
ATOM     11  C   UNL     1      -0.745  -0.801   1.819  0.00  0.00    +0.160 C 
ATOM     12  H   UNL     1      -3.707  -1.627  -2.476  0.00  0.00    +0.151 HD
ENDROOT
BRANCH   4  13
ATOM     13  C   UNL     1      -4.248  -2.971  -0.172  0.00  0.00    -0.020 A 
ATOM     14  C   UNL     1      -3.607  -3.877   0.652  0.00  0.00    +0.006 A 
ATOM     15  C   UNL     1      -4.116  -5.153   0.805  0.00  0.00    +0.004 A 
ATOM     16  C   UNL     1      -5.267  -5.523   0.134  0.00  0.00    -0.050 A 
ATOM     17  C   UNL     1      -5.909  -4.616  -0.689  0.00  0.00    +0.007 A 
ATOM     18  C   UNL     1      -5.401  -3.339  -0.838  0.00  0.00    -0.045 A 
ATOM     19  C   UNL     1      -6.104  -2.349  -1.731  0.00  0.00    +0.044 C 
ATOM     20  C   UNL     1      -5.822  -6.914   0.300  0.00  0.00    +0.044 C 
ENDBRANCH   4  13
BRANCH   1  22
ATOM     21  C   UNL     1       0.496   0.937  -1.164  0.00  0.00    +0.025 C 
ATOM     22  C   UNL     1       0.357  -0.583  -1.052  0.00  0.00    +0.111 C 
ENDBRANCH   1  22
BRANCH  10  23
ATOM     23  C   UNL     1      -1.580  -0.960   4.297  0.00  0.00    +0.167 C 
BRANCH  23  24
ATOM     24  C   UNL     1      -1.899  -2.296   4.917  0.00  0.00    +0.234 C 
ATOM     25  O   UNL     1      -2.251  -3.221   4.216  0.00  0.00    -0.274 OA
ATOM     26  N   UNL     1      -1.794  -2.462   6.251  0.00  0.00    -0.311 N 
ATOM     27  H   UNL     1      -1.512  -1.722   6.811  0.00  0.00    +0.149 HD
BRANCH  26  28
ATOM     28  C   UNL     1      -2.105  -3.761   6.853  0.00  0.00    +0.067 C 
ATOM     29  C   UNL     1      -0.869  -4.661   6.791  0.00  0.00    +0.027 C 
ATOM     30  C   UNL     1      -2.516  -3.561   8.313  0.00  0.00    +0.027 C 
ENDBRANCH  26  28
ENDBRANCH  23  24
BRANCH  23  31
ATOM     31  C   UNL     1      -2.510   0.107   4.878  0.00  0.00    +0.067 C 
BRANCH  31  32
ATOM     32  C   UNL     1      -2.111   1.462   4.351  0.00  0.00    -0.045 A 
ATOM     33  C   UNL     1      -1.181   2.223   5.035  0.00  0.00    +0.004 A 
ATOM     34  C   UNL     1      -0.815   3.465   4.552  0.00  0.00    +0.000 A 
ATOM     35  C   UNL     1      -1.379   3.946   3.385  0.00  0.00    +0.000 A 
ATOM     36  C   UNL     1      -2.308   3.185   2.701  0.00  0.00    +0.000 A 
ATOM     37  C   UNL     1      -2.671   1.941   3.182  0.00  0.00    +0.004 A 
ENDBRANCH  31  32
ENDBRANCH  23  31
ENDBRANCH  10  23
TORSDOF 7
