REMARK  Name = ZINC21582664
REMARK  8 active torsions:
REMARK  status: ('A' for Active; 'I' for Inactive)
REMARK    1  A    between atoms: C_1  and  C_2
REMARK    2  A    between atoms: C_2  and  C_3
REMARK    3  A    between atoms: C_3  and  C_4
REMARK    4  A    between atoms: C_4  and  N_5
REMARK    5  A    between atoms: C_9  and  S_27
REMARK    6  A    between atoms: C_13  and  C_14
REMARK    7  A    between atoms: C_14  and  N_15
REMARK    8  A    between atoms: S_27  and  N_30
REMARK                            x       y       z     vdW  Elec       q    Type
REMARK                         _______ _______ _______ _____ _____    ______ ____
ROOT
ATOM      1  N   UNL     1      -5.375   2.050  -4.355  0.00  0.00    -0.329 N 
ATOM      2  C   UNL     1      -6.751   2.023  -4.242  0.00  0.00    +0.069 A 
ATOM      3  C   UNL     1      -7.736   1.129  -4.639  0.00  0.00    +0.030 A 
ATOM      4  C   UNL     1      -9.059   1.408  -4.371  0.00  0.00    +0.030 A 
ATOM      5  C   UNL     1      -9.412   2.575  -3.709  0.00  0.00    +0.107 A 
ATOM      6  C   UNL     1      -8.456   3.466  -3.311  0.00  0.00    +0.058 A 
ATOM      7  C   UNL     1      -7.108   3.204  -3.571  0.00  0.00    +0.091 A 
ATOM      8  N   UNL     1      -5.957   3.875  -3.310  0.00  0.00    -0.234 NA
ATOM      9  C   UNL     1      -4.943   3.197  -3.766  0.00  0.00    +0.094 A 
ENDROOT
BRANCH   5  10
ATOM     10  S   UNL     1     -11.109   2.911  -3.377  0.00  0.00    +0.056 S 
ATOM     11  O   UNL     1     -11.224   4.320  -3.233  0.00  0.00    -0.153 OA
ATOM     12  O   UNL     1     -11.862   2.180  -4.335  0.00  0.00    -0.153 OA
BRANCH  10  13
ATOM     13  N   UNL     1     -11.459   2.254  -1.898  0.00  0.00    -0.204 NA
ATOM     14  H   UNL     1     -12.514   2.443  -1.653  0.00  0.00    +0.144 HD
ATOM     15  H   UNL     1     -10.817   2.713  -1.132  0.00  0.00    +0.144 HD
ENDBRANCH  10  13
ENDBRANCH   5  10
BRANCH   1  16
ATOM     16  C   UNL     1      -4.535   1.030  -4.989  0.00  0.00    +0.123 C 
BRANCH  16  17
ATOM     17  C   UNL     1      -4.239  -0.083  -3.983  0.00  0.00    +0.021 C 
BRANCH  17  19
ATOM     18  C   UNL     1      -3.163  -2.317  -3.670  0.00  0.00    +0.004 C 
ATOM     19  C   UNL     1      -3.460  -1.203  -4.676  0.00  0.00    -0.002 C 
ENDBRANCH  17  19
ENDBRANCH  16  17
ENDBRANCH   1  16
BRANCH   9  20
ATOM     20  C   UNL     1      -3.502   3.625  -3.661  0.00  0.00    -0.003 C 
BRANCH  20  21
ATOM     21  N   UNL     1      -3.184   4.546  -4.760  0.00  0.00    +0.385 N 
ATOM     22  C   UNL     1      -3.272   3.867  -6.059  0.00  0.00    -0.078 C 
ATOM     23  C   UNL     1      -2.799   4.812  -7.166  0.00  0.00    -0.015 C 
ATOM     24  C   UNL     1      -3.671   6.070  -7.161  0.00  0.00    -0.011 C 
ATOM     25  C   UNL     1      -3.182   7.041  -8.234  0.00  0.00    +0.004 C 
ATOM     26  C   UNL     1      -1.734   7.442  -7.945  0.00  0.00    +0.000 C 
ATOM     27  C   UNL     1      -1.660   8.116  -6.573  0.00  0.00    +0.000 C 
ATOM     28  C   UNL     1      -2.140   7.138  -5.499  0.00  0.00    +0.002 C 
ATOM     29  C   UNL     1      -3.588   6.734  -5.784  0.00  0.00    -0.025 C 
ATOM     30  C   UNL     1      -4.048   5.733  -4.719  0.00  0.00    -0.075 C 
ATOM     31  H   UNL     1      -2.145   4.885  -4.631  0.00  0.00    -0.081 HD
ENDBRANCH  20  21
ENDBRANCH   9  20
TORSDOF 7
