REMARK  Name = ZINC36053246
REMARK  13 active torsions:
REMARK  status: ('A' for Active; 'I' for Inactive)
REMARK    1  A    between atoms: C_1  and  C_2
REMARK    2  A    between atoms: C_3  and  C_32
REMARK    3  A    between atoms: C_4  and  C_23
REMARK    4  A    between atoms: C_7  and  C_12
REMARK    5  A    between atoms: C_13  and  N_15
REMARK    6  A    between atoms: N_15  and  C_16
REMARK    7  A    between atoms: C_16  and  C_17
REMARK    8  A    between atoms: C_26  and  C_29
REMARK    9  A    between atoms: C_29  and  C_30
REMARK   10  A    between atoms: C_29  and  C_31
REMARK   11  A    between atoms: C_32  and  O_34
REMARK   12  A    between atoms: O_34  and  C_35
REMARK   13  A    between atoms: C_35  and  C_36
REMARK                            x       y       z     vdW  Elec       q    Type
REMARK                         _______ _______ _______ _____ _____    ______ ____
ROOT
ATOM      1  C   UNL     1      -0.013   1.548   0.225  0.00  0.00    +0.066 C 
ATOM      2  C   UNL     1      -0.011   0.042   0.164  0.00  0.00    +0.053 C 
ATOM      3  C   UNL     1      -1.210  -0.645   0.148  0.00  0.00    +0.082 C 
ATOM      4  C   UNL     1      -1.155  -2.155   0.086  0.00  0.00    +0.150 C 
ATOM      5  N   UNL     1       0.192  -2.783   0.047  0.00  0.00    -0.267 N 
ATOM      6  C   UNL     1       0.479  -4.133  -0.011  0.00  0.00    +0.048 C 
ATOM      7  C   UNL     1       1.780  -4.496  -0.038  0.00  0.00    +0.072 C 
ATOM      8  S   UNL     1       2.605  -2.918   0.018  0.00  0.00    -0.060 S 
ATOM      9  C   UNL     1       1.254  -1.924   0.072  0.00  0.00    +0.166 C 
ATOM     10  N   UNL     1       1.138  -0.613   0.121  0.00  0.00    -0.230 NA
ENDROOT
BRANCH   4  11
ATOM     11  C   UNL     1      -1.907  -2.597  -1.143  0.00  0.00    -0.022 A 
ATOM     12  C   UNL     1      -1.346  -2.427  -2.395  0.00  0.00    +0.006 A 
ATOM     13  C   UNL     1      -2.036  -2.832  -3.522  0.00  0.00    +0.004 A 
ATOM     14  C   UNL     1      -3.287  -3.406  -3.398  0.00  0.00    -0.045 A 
ATOM     15  C   UNL     1      -3.848  -3.577  -2.146  0.00  0.00    +0.004 A 
ATOM     16  C   UNL     1      -3.156  -3.176  -1.018  0.00  0.00    +0.006 A 
BRANCH  14  17
ATOM     17  C   UNL     1      -4.039  -3.847  -4.627  0.00  0.00    +0.013 C 
ATOM     18  C   UNL     1      -4.312  -5.350  -4.547  0.00  0.00    +0.012 C 
ATOM     19  C   UNL     1      -5.367  -3.091  -4.711  0.00  0.00    +0.012 C 
ENDBRANCH  14  17
ENDBRANCH   4  11
BRANCH   6  20
ATOM     20  C   UNL     1      -0.593  -5.138  -0.041  0.00  0.00    +0.091 C 
ATOM     21  C   UNL     1      -0.291  -6.447   0.050  0.00  0.00    +0.239 C 
ATOM     22  O   UNL     1       0.984  -6.833   0.302  0.00  0.00    -0.271 OA
BRANCH  21  23
ATOM     23  N   UNL     1      -1.283  -7.400  -0.115  0.00  0.00    -0.308 N 
ATOM     24  H   UNL     1      -2.207  -7.124  -0.222  0.00  0.00    +0.149 HD
BRANCH  23  25
ATOM     25  C   UNL     1      -0.937  -8.823  -0.129  0.00  0.00    +0.141 C 
BRANCH  25  26
ATOM     26  C   UNL     1      -2.166  -9.636  -0.443  0.00  0.00    -0.012 A 
ATOM     27  C   UNL     1      -2.993 -10.082   0.578  0.00  0.00    +0.008 A 
ATOM     28  C   UNL     1      -4.112 -10.827   0.241  0.00  0.00    +0.020 A 
ATOM     29  C   UNL     1      -4.366 -11.098  -1.090  0.00  0.00    +0.111 A 
ATOM     30  N   UNL     1      -3.558 -10.658  -2.034  0.00  0.00    -0.263 NA
ATOM     31  C   UNL     1      -2.487  -9.942  -1.752  0.00  0.00    +0.115 A 
ENDBRANCH  25  26
ENDBRANCH  23  25
ENDBRANCH  21  23
ENDBRANCH   6  20
BRANCH   3  32
ATOM     32  C   UNL     1      -2.433   0.034   0.188  0.00  0.00    +0.339 C 
ATOM     33  O   UNL     1      -2.453   1.251   0.238  0.00  0.00    -0.245 OA
BRANCH  32  34
ATOM     34  O   UNL     1      -3.592  -0.661   0.171  0.00  0.00    -0.457 OA
BRANCH  34  35
ATOM     35  C   UNL     1      -4.803   0.096   0.214  0.00  0.00    +0.259 C 
BRANCH  35  36
ATOM     36  C   UNL     1      -5.983  -0.841   0.188  0.00  0.00    +0.006 C 
ATOM     37  C   UNL     1      -6.987  -0.654   1.008  0.00  0.00    +0.007 C 
ENDBRANCH  35  36
ENDBRANCH  34  35
ENDBRANCH  32  34
ENDBRANCH   3  32
TORSDOF 10
