REMARK  Name = ZINC14274129
REMARK  8 active torsions:
REMARK  status: ('A' for Active; 'I' for Inactive)
REMARK    1  A    between atoms: C_1  and  C_2
REMARK    2  A    between atoms: N_4  and  S_5
REMARK    3  A    between atoms: S_5  and  C_8
REMARK    4  A    between atoms: C_11  and  N_14
REMARK    5  A    between atoms: N_14  and  C_15
REMARK    6  A    between atoms: C_15  and  N_17
REMARK    7  A    between atoms: C_18  and  C_20
REMARK    8  A    between atoms: C_23  and  C_25
REMARK                            x       y       z     vdW  Elec       q    Type
REMARK                         _______ _______ _______ _____ _____    ______ ____
ROOT
ATOM      1  C   UNL     1      -2.806   4.216   5.426  0.00  0.00    +0.141 C 
ATOM      2  S   UNL     1      -1.668   5.293   4.737  0.00  0.00    -0.018 S 
ENDROOT
BRANCH   1   3
ATOM      3  N   UNL     1      -3.430   4.540   6.575  0.00  0.00    -0.261 N 
ATOM      4  C   UNL     1      -3.159   5.712   7.182  0.00  0.00    +0.285 C 
ATOM      5  O   UNL     1      -2.350   6.478   6.692  0.00  0.00    -0.266 OA
ATOM      6  H   UNL     1      -4.075   3.929   6.966  0.00  0.00    +0.157 HD
BRANCH   4   7
ATOM      7  C   UNL     1      -3.837   6.064   8.430  0.00  0.00    +0.190 A 
ATOM      8  C   UNL     1      -3.650   7.223   9.155  0.00  0.00    +0.055 A 
ATOM      9  C   UNL     1      -4.496   7.145  10.265  0.00  0.00    +0.051 A 
ATOM     10  C   UNL     1      -5.155   5.951  10.185  0.00  0.00    +0.137 A 
ATOM     11  O   UNL     1      -4.750   5.309   9.077  0.00  0.00    -0.450 OA
BRANCH  10  12
ATOM     12  C   UNL     1      -6.147   5.450  11.156  0.00  0.00    +0.036 A 
ATOM     13  C   UNL     1      -5.853   5.446  12.522  0.00  0.00    +0.014 A 
ATOM     14  C   UNL     1      -6.786   4.981  13.424  0.00  0.00    +0.021 A 
ATOM     15  C   UNL     1      -8.010   4.509  12.979  0.00  0.00    +0.042 A 
ATOM     16  C   UNL     1      -8.307   4.505  11.627  0.00  0.00    +0.040 A 
ATOM     17  C   UNL     1      -7.384   4.972  10.713  0.00  0.00    +0.053 A 
ATOM     18 CL   UNL     1      -7.757   4.966   9.018  0.00  0.00    -0.083 Cl
ATOM     19 CL   UNL     1      -9.176   3.920  14.122  0.00  0.00    -0.083 Cl
ENDBRANCH  10  12
ENDBRANCH   4   7
ENDBRANCH   1   3
BRANCH   1  20
ATOM     20  N   UNL     1      -3.077   3.043   4.819  0.00  0.00    -0.297 N 
ATOM     21  H   UNL     1      -3.779   2.469   5.165  0.00  0.00    +0.154 HD
BRANCH  20  25
ATOM     22  C   UNL     1      -0.903   1.883   1.461  0.00  0.00    +0.109 A 
ATOM     23  C   UNL     1      -2.272   1.694   1.495  0.00  0.00    +0.030 A 
ATOM     24  C   UNL     1      -2.995   2.073   2.609  0.00  0.00    +0.025 A 
ATOM     25  C   UNL     1      -2.347   2.654   3.691  0.00  0.00    +0.033 A 
ATOM     26  C   UNL     1      -0.972   2.847   3.651  0.00  0.00    +0.025 A 
ATOM     27  C   UNL     1      -0.255   2.462   2.536  0.00  0.00    +0.030 A 
BRANCH  22  28
ATOM     28  S   UNL     1       0.017   1.392   0.040  0.00  0.00    +0.074 S 
ATOM     29  O   UNL     1       1.200   2.179   0.030  0.00  0.00    -0.150 OA
ATOM     30  O   UNL     1      -0.896   1.376  -1.049  0.00  0.00    -0.150 OA
BRANCH  28  34
ATOM     31  C   UNL     1       0.003  -2.582   0.581  0.00  0.00    +0.111 C 
ATOM     32  C   UNL     1      -0.430  -1.155   0.361  0.00  0.00    +0.229 C 
ATOM     33  O   UNL     1      -1.608  -0.888   0.254  0.00  0.00    -0.275 OA
ATOM     34  N   UNL     1       0.492  -0.175   0.282  0.00  0.00    -0.186 N 
ATOM     35  H   UNL     1       1.435  -0.388   0.367  0.00  0.00    +0.177 HD
ENDBRANCH  28  34
ENDBRANCH  22  28
ENDBRANCH  20  25
ENDBRANCH   1  20
TORSDOF 7
