REMARK  Name = ZINC29073036
REMARK  8 active torsions:
REMARK  status: ('A' for Active; 'I' for Inactive)
REMARK    1  A    between atoms: C_1  and  C_2
REMARK    2  A    between atoms: C_3  and  C_16
REMARK    3  A    between atoms: C_4  and  C_15
REMARK    4  A    between atoms: N_5  and  C_7
REMARK    5  A    between atoms: C_16  and  N_17
REMARK    6  A    between atoms: N_17  and  C_18
REMARK    7  A    between atoms: C_19  and  C_21
REMARK    8  A    between atoms: C_21  and  C_22
REMARK                            x       y       z     vdW  Elec       q    Type
REMARK                         _______ _______ _______ _____ _____    ______ ____
ROOT
ATOM      1  N   UNL     1       4.892  -1.415  -4.179  0.00  0.00    -0.300 N 
ATOM      2  C   UNL     1       3.723  -1.536  -5.054  0.00  0.00    +0.132 C 
ATOM      3  C   UNL     1       4.779  -1.678  -2.862  0.00  0.00    +0.217 C 
ATOM      4  O   UNL     1       5.747  -1.578  -2.138  0.00  0.00    -0.276 OA
ENDROOT
BRANCH   1   5
ATOM      5  C   UNL     1       6.184  -1.008  -4.736  0.00  0.00    +0.146 C 
BRANCH   5   8
ATOM      6  C   UNL     1       6.160  -1.926  -7.769  0.00  0.00    +0.068 C 
ATOM      7  C   UNL     1       6.879  -2.619  -6.641  0.00  0.00    +0.065 A 
ATOM      8  C   UNL     1       6.889  -2.214  -5.303  0.00  0.00    +0.013 A 
ATOM      9  C   UNL     1       7.648  -3.092  -4.607  0.00  0.00    +0.041 A 
ATOM     10  N   UNL     1       8.095  -4.025  -5.473  0.00  0.00    -0.263 N 
ATOM     11  N   UNL     1       7.602  -3.705  -6.745  0.00  0.00    -0.176 NA
ATOM     12  C   UNL     1       7.939  -3.040  -3.130  0.00  0.00    +0.065 C 
BRANCH  10  13
ATOM     13  C   UNL     1       8.950  -5.168  -5.143  0.00  0.00    +0.130 C 
ATOM     14  C   UNL     1      10.249  -5.099  -5.964  0.00  0.00    +0.051 C 
ATOM     15  C   UNL     1      11.006  -6.446  -5.868  0.00  0.00    +0.168 C 
ATOM     16  S   UNL     1       9.648  -7.654  -5.589  0.00  0.00    -0.029 S 
ATOM     17  O   UNL     1       9.824  -8.263  -4.318  0.00  0.00    -0.174 OA
ATOM     18  O   UNL     1       9.511  -8.471  -6.744  0.00  0.00    -0.174 OA
ATOM     19  C   UNL     1       8.220  -6.493  -5.505  0.00  0.00    +0.192 C 
ENDBRANCH  10  13
ENDBRANCH   5   8
ENDBRANCH   1   5
BRANCH   3  20
ATOM     20  C   UNL     1       3.449  -2.096  -2.289  0.00  0.00    +0.119 C 
BRANCH  20  21
ATOM     21  C   UNL     1       3.594  -2.332  -0.784  0.00  0.00    +0.146 C 
ATOM     22  C   UNL     1       2.293  -2.844  -0.223  0.00  0.00    +0.231 C 
ATOM     23  O   UNL     1       2.169  -4.038  -0.050  0.00  0.00    -0.274 OA
ATOM     24  N   UNL     1       1.275  -2.050   0.093  0.00  0.00    -0.284 N 
ATOM     25  C   UNL     1       1.268  -0.658   0.070  0.00  0.00    +0.048 A 
ATOM     26  C   UNL     1       0.053   0.018   0.095  0.00  0.00    +0.044 A 
ATOM     27  C   UNL     1       0.022   1.399   0.081  0.00  0.00    +0.043 A 
ATOM     28  C   UNL     1       1.199   2.126   0.042  0.00  0.00    +0.021 A 
ATOM     29  C   UNL     1       2.415   1.466   0.022  0.00  0.00    +0.018 A 
ATOM     30  C   UNL     1       2.450   0.082   0.042  0.00  0.00    +0.030 A 
ATOM     31  S   UNL     1       4.000  -0.764   0.045  0.00  0.00    -0.110 S 
ATOM     32 CL   UNL     1      -1.503   2.228   0.104  0.00  0.00    -0.083 Cl
ATOM     33  H   UNL     1       0.316  -2.485   0.410  0.00  0.00    +0.155 HD
ENDBRANCH  20  21
ENDBRANCH   3  20
TORSDOF 5
