REMARK  Name = ZINC39521732
REMARK  6 active torsions:
REMARK  status: ('A' for Active; 'I' for Inactive)
REMARK    1  A    between atoms: C_1  and  O_2
REMARK    2  A    between atoms: O_2  and  C_3
REMARK    3  A    between atoms: N_9  and  O_10
REMARK    4  A    between atoms: O_10  and  C_11
REMARK    5  A    between atoms: C_15  and  C_18
REMARK    6  A    between atoms: C_18  and  C_19
REMARK                            x       y       z     vdW  Elec       q    Type
REMARK                         _______ _______ _______ _____ _____    ______ ____
ROOT
ATOM      1  C   UNL     1       0.372  -0.674  -1.199  0.00  0.00    +0.213 C 
ATOM      2  C   UNL     1       0.437  -2.203  -1.157  0.00  0.00    +0.050 C 
ATOM      3  C   UNL     1       1.176  -2.711  -2.398  0.00  0.00    +0.006 C 
ATOM      4  C   UNL     1       0.454  -2.211  -3.653  0.00  0.00    +0.025 C 
ATOM      5  C   UNL     1       0.388  -0.682  -3.623  0.00  0.00    +0.050 C 
ATOM      6  N   UNL     1      -0.327  -0.246  -2.417  0.00  0.00    -0.154 NA
ATOM      7  C   UNL     1      -0.351  -0.181  -4.865  0.00  0.00    +0.025 C 
ATOM      8  C   UNL     1      -0.415   1.348  -4.839  0.00  0.00    +0.002 C 
ATOM      9  C   UNL     1       1.005   1.917  -4.827  0.00  0.00    +0.004 C 
ATOM     10  C   UNL     1       1.744   1.417  -3.584  0.00  0.00    -0.005 C 
ATOM     11  C   UNL     1       1.808  -0.111  -3.609  0.00  0.00    +0.028 C 
ENDROOT
BRANCH   1  13
ATOM     12  C   UNL     1      -0.108   1.186   0.234  0.00  0.00    +0.196 C 
ATOM     13  O   UNL     1      -0.333  -0.196  -0.051  0.00  0.00    -0.363 OA
ENDBRANCH   1  13
BRANCH   6  14
ATOM     14  O   UNL     1      -0.530   1.203  -2.423  0.00  0.00    -0.297 OA
ATOM     15  C   UNL     1      -1.886   1.602  -2.212  0.00  0.00    +0.221 C 
ENDBRANCH   6  14
BRANCH  10  16
ATOM     16  C   UNL     1       3.163   1.987  -3.571  0.00  0.00    +0.038 C 
BRANCH  16  17
ATOM     17  C   UNL     1       3.102   3.486  -3.422  0.00  0.00    -0.047 A 
ATOM     18  C   UNL     1       3.032   4.289  -4.545  0.00  0.00    +0.003 A 
ATOM     19  C   UNL     1       2.976   5.664  -4.408  0.00  0.00    +0.000 A 
ATOM     20  C   UNL     1       2.989   6.235  -3.149  0.00  0.00    +0.000 A 
ATOM     21  C   UNL     1       3.057   5.431  -2.027  0.00  0.00    +0.000 A 
ATOM     22  C   UNL     1       3.110   4.056  -2.163  0.00  0.00    +0.003 A 
ENDBRANCH  16  17
ENDBRANCH  10  16
TORSDOF 4
