REMARK  Name = ZINC01447396
REMARK  2 active torsions:
REMARK  status: ('A' for Active; 'I' for Inactive)
REMARK    1  A    between atoms: C_7  and  C_11
REMARK    2  A    between atoms: N_17  and  C_18
REMARK                            x       y       z     vdW  Elec       q    Type
REMARK                         _______ _______ _______ _____ _____    ______ ____
ROOT
ATOM      1  C   UNL     1       0.699  -3.252  -0.021  0.00  0.00    +0.030 C 
ATOM      2  C   UNL     1       1.200  -4.512  -0.135  0.00  0.00    +0.078 C 
ATOM      3  C   UNL     1       2.560  -4.944  -0.164  0.00  0.00    +0.256 C 
ATOM      4  O   UNL     1       3.472  -4.141  -0.081  0.00  0.00    -0.269 OA
ATOM      5  N   UNL     1       2.805  -6.238  -0.283  0.00  0.00    -0.260 N 
ATOM      6  C   UNL     1       1.760  -7.135  -0.376  0.00  0.00    +0.166 C 
ATOM      7  N   UNL     1       1.805  -8.443  -0.498  0.00  0.00    -0.226 NA
ATOM      8  S   UNL     1       0.331  -6.067  -0.280  0.00  0.00    -0.049 S 
ATOM      9  H   UNL     1       3.720  -6.557  -0.306  0.00  0.00    +0.157 HD
ENDROOT
BRANCH   1  16
ATOM     10  C   UNL     1       0.823   0.819   2.285  0.00  0.00    +0.001 A 
ATOM     11  C   UNL     1       1.885   1.618   1.885  0.00  0.00    +0.002 A 
ATOM     12  C   UNL     1       2.759   1.188   0.911  0.00  0.00    +0.026 A 
ATOM     13  C   UNL     1       2.581  -0.059   0.320  0.00  0.00    +0.047 A 
ATOM     14  C   UNL     1       1.506  -0.866   0.726  0.00  0.00    +0.007 A 
ATOM     15  C   UNL     1       0.630  -0.418   1.711  0.00  0.00    +0.010 A 
ATOM     16  C   UNL     1       1.598  -2.099  -0.079  0.00  0.00    +0.001 A 
ATOM     17  C   UNL     1       2.689  -1.952  -0.889  0.00  0.00    +0.091 A 
ATOM     18  N   UNL     1       3.272  -0.747  -0.656  0.00  0.00    -0.360 N 
ATOM     19  H   UNL     1       4.063  -0.418  -1.111  0.00  0.00    +0.165 HD
ENDBRANCH   1  16
BRANCH   7  20
ATOM     20  C   UNL     1       0.643  -9.164  -0.575  0.00  0.00    +0.067 A 
ATOM     21  C   UNL     1      -0.413  -8.887   0.296  0.00  0.00    +0.029 A 
ATOM     22  C   UNL     1      -1.581  -9.616   0.213  0.00  0.00    +0.017 A 
ATOM     23  C   UNL     1      -1.707 -10.621  -0.731  0.00  0.00    +0.018 A 
ATOM     24  C   UNL     1      -0.664 -10.901  -1.597  0.00  0.00    +0.017 A 
ATOM     25  C   UNL     1       0.507 -10.175  -1.528  0.00  0.00    +0.029 A 
ATOM     26 BR   UNL     1      -3.311 -11.616  -0.837  0.00  0.00    -0.050 Br
ENDBRANCH   7  20
TORSDOF 2
