REMARK  Name = ZINC22109222
REMARK  11 active torsions:
REMARK  status: ('A' for Active; 'I' for Inactive)
REMARK    1  A    between atoms: C_1  and  N_2
REMARK    2  A    between atoms: C_3  and  S_7
REMARK    3  A    between atoms: S_7  and  C_8
REMARK    4  A    between atoms: C_8  and  C_9
REMARK    5  A    between atoms: C_9  and  C_10
REMARK    6  A    between atoms: C_10  and  N_11
REMARK    7  A    between atoms: N_11  and  C_12
REMARK    8  A    between atoms: C_12  and  C_13
REMARK    9  A    between atoms: C_18  and  O_19
REMARK   10  A    between atoms: O_19  and  C_20
REMARK   11  A    between atoms: C_20  and  C_21
REMARK                            x       y       z     vdW  Elec       q    Type
REMARK                         _______ _______ _______ _____ _____    ______ ____
ROOT
ATOM      1  C   UNL     1      -3.377   3.243   2.842  0.00  0.00    -0.022 A 
ATOM      2  C   UNL     1      -4.569   3.915   3.031  0.00  0.00    +0.020 A 
ATOM      3  C   UNL     1      -5.309   4.331   1.939  0.00  0.00    +0.018 A 
ATOM      4  C   UNL     1      -4.854   4.081   0.656  0.00  0.00    +0.019 A 
ATOM      5  C   UNL     1      -3.660   3.414   0.464  0.00  0.00    +0.047 A 
ATOM      6  C   UNL     1      -2.917   2.995   1.558  0.00  0.00    +0.122 A 
ATOM      7 BR   UNL     1      -6.944   5.245   2.199  0.00  0.00    -0.050 Br
ENDROOT
BRANCH   1   8
ATOM      8  C   UNL     1      -2.575   2.783   4.032  0.00  0.00    -0.043 C 
BRANCH   8   9
ATOM      9  N   UNL     1      -1.481   3.731   4.281  0.00  0.00    +0.382 N 
ATOM     10  H   UNL     1      -1.913   4.724   4.474  0.00  0.00    -0.085 HD
ATOM     11  H   UNL     1      -0.843   3.776   3.387  0.00  0.00    -0.085 HD
BRANCH   9  12
ATOM     12  C   UNL     1      -0.675   3.314   5.437  0.00  0.00    -0.081 C 
BRANCH  12  13
ATOM     13  C   UNL     1       0.451   4.324   5.665  0.00  0.00    -0.008 C 
BRANCH  13  14
ATOM     14  C   UNL     1       1.290   3.890   6.868  0.00  0.00    +0.075 C 
BRANCH  14  15
ATOM     15  S   UNL     1       2.623   5.085   7.137  0.00  0.00    -0.085 S 
BRANCH  15  18
ATOM     16  C   UNL     1       5.260   6.044   8.874  0.00  0.00    +0.177 C 
ATOM     17  N   UNL     1       4.495   4.835   9.188  0.00  0.00    -0.223 N 
ATOM     18  C   UNL     1       3.405   4.360   8.540  0.00  0.00    +0.209 A 
ATOM     19  N   UNL     1       3.045   3.252   9.150  0.00  0.00    -0.102 NA
ATOM     20  N   UNL     1       3.829   3.006  10.136  0.00  0.00    -0.022 NA
ATOM     21  N   UNL     1       4.733   3.920  10.229  0.00  0.00    -0.043 NA
ENDBRANCH  15  18
ENDBRANCH  14  15
ENDBRANCH  13  14
ENDBRANCH  12  13
ENDBRANCH   9  12
ENDBRANCH   8   9
ENDBRANCH   1   8
BRANCH   6  22
ATOM     22  O   UNL     1      -1.741   2.339   1.370  0.00  0.00    -0.487 OA
BRANCH  22  23
ATOM     23  C   UNL     1      -1.332   2.114   0.020  0.00  0.00    +0.264 C 
BRANCH  23  24
ATOM     24  C   UNL     1      -0.017   1.378   0.010  0.00  0.00    -0.010 A 
ATOM     25  C   UNL     1       1.171   2.086   0.002  0.00  0.00    +0.008 A 
ATOM     26  C   UNL     1       2.377   1.412  -0.013  0.00  0.00    +0.020 A 
ATOM     27  C   UNL     1       2.397   0.029  -0.021  0.00  0.00    +0.041 A 
ATOM     28  C   UNL     1       1.208  -0.679  -0.013  0.00  0.00    +0.020 A 
ATOM     29  C   UNL     1       0.002  -0.004   0.002  0.00  0.00    +0.008 A 
ATOM     30 CL   UNL     1       3.912  -0.818  -0.039  0.00  0.00    -0.084 Cl
ENDBRANCH  23  24
ENDBRANCH  22  23
ENDBRANCH   6  22
TORSDOF 10
