REMARK  Name = ZINC00648988
REMARK  13 active torsions:
REMARK  status: ('A' for Active; 'I' for Inactive)
REMARK    1  A    between atoms: C_1  and  C_2
REMARK    2  A    between atoms: C_2  and  O_3
REMARK    3  A    between atoms: O_3  and  C_4
REMARK    4  A    between atoms: C_4  and  C_6
REMARK    5  A    between atoms: C_7  and  C_38
REMARK    6  A    between atoms: C_11  and  C_13
REMARK    7  A    between atoms: C_18  and  O_19
REMARK    8  A    between atoms: O_19  and  C_20
REMARK    9  A    between atoms: C_25  and  C_28
REMARK   10  A    between atoms: C_31  and  O_36
REMARK   11  A    between atoms: C_32  and  O_34
REMARK   12  A    between atoms: O_34  and  C_35
REMARK   13  A    between atoms: O_36  and  C_37
REMARK                            x       y       z     vdW  Elec       q    Type
REMARK                         _______ _______ _______ _____ _____    ______ ____
ROOT
ATOM      1  C   UNL     1       1.599  -2.369   2.355  0.00  0.00    +0.065 C 
ATOM      2  C   UNL     1       1.490  -3.684   2.609  0.00  0.00    +0.016 C 
ATOM      3  N   UNL     1       1.998  -4.210   3.764  0.00  0.00    -0.321 N 
ATOM      4  C   UNL     1       2.258  -3.406   4.842  0.00  0.00    +0.016 C 
ATOM      5  C   UNL     1       2.403  -2.074   4.682  0.00  0.00    +0.024 C 
ATOM      6  C   UNL     1       2.288  -1.444   3.315  0.00  0.00    +0.096 C 
ATOM      7  C   UNL     1       2.674  -1.237   5.780  0.00  0.00    +0.162 C 
ATOM      8  O   UNL     1       2.783  -0.040   5.604  0.00  0.00    -0.292 OA
ATOM      9  C   UNL     1       2.831  -1.798   7.167  0.00  0.00    +0.088 C 
ATOM     10  C   UNL     1       3.347  -3.237   7.067  0.00  0.00    +0.032 C 
ATOM     11  C   UNL     1       2.374  -4.043   6.204  0.00  0.00    +0.059 C 
ATOM     12  C   UNL     1       0.805  -4.585   1.615  0.00  0.00    +0.061 C 
ATOM     13  H   UNL     1       2.175  -5.162   3.822  0.00  0.00    +0.152 HD
ENDROOT
BRANCH   6  14
ATOM     14  C   UNL     1       3.665  -1.126   2.794  0.00  0.00    +0.007 A 
ATOM     15  C   UNL     1       4.577  -2.143   2.584  0.00  0.00    +0.023 A 
ATOM     16  C   UNL     1       5.841  -1.852   2.105  0.00  0.00    +0.018 A 
ATOM     17  C   UNL     1       6.197  -0.542   1.836  0.00  0.00    +0.019 A 
ATOM     18  C   UNL     1       5.288   0.477   2.044  0.00  0.00    +0.047 A 
ATOM     19  C   UNL     1       4.018   0.187   2.519  0.00  0.00    +0.124 A 
ATOM     20 BR   UNL     1       7.087  -3.246   1.819  0.00  0.00    -0.050 Br
BRANCH  19  21
ATOM     21  O   UNL     1       3.121   1.188   2.720  0.00  0.00    -0.495 OA
ATOM     22  C   UNL     1       3.552   2.516   2.416  0.00  0.00    +0.277 C 
ENDBRANCH  19  21
ENDBRANCH   6  14
BRANCH  10  23
ATOM     23  C   UNL     1       3.429  -3.842   8.445  0.00  0.00    -0.040 A 
ATOM     24  C   UNL     1       2.289  -3.956   9.218  0.00  0.00    +0.008 A 
ATOM     25  C   UNL     1       2.359  -4.510  10.482  0.00  0.00    +0.049 A 
ATOM     26  C   UNL     1       3.574  -4.953  10.978  0.00  0.00    +0.161 A 
ATOM     27  C   UNL     1       4.723  -4.839  10.200  0.00  0.00    +0.162 A 
ATOM     28  C   UNL     1       4.644  -4.287   8.931  0.00  0.00    +0.053 A 
BRANCH  27  29
ATOM     29  O   UNL     1       5.918  -5.273  10.682  0.00  0.00    -0.491 OA
ATOM     30  C   UNL     1       7.054  -5.124   9.828  0.00  0.00    +0.277 C 
ENDBRANCH  27  29
BRANCH  26  31
ATOM     31  O   UNL     1       3.645  -5.498  12.222  0.00  0.00    -0.491 OA
ATOM     32  C   UNL     1       2.427  -5.583  12.963  0.00  0.00    +0.277 C 
ENDBRANCH  26  31
ENDBRANCH  10  23
BRANCH   1  33
ATOM     33  C   UNL     1       1.058  -1.847   1.157  0.00  0.00    +0.338 C 
ATOM     34  O   UNL     1       0.029  -1.198   1.185  0.00  0.00    -0.245 OA
BRANCH  33  35
ATOM     35  O   UNL     1       1.683  -2.069  -0.018  0.00  0.00    -0.462 OA
BRANCH  35  37
ATOM     36  C   UNL     1       1.927  -1.867  -2.414  0.00  0.00    +0.048 C 
ATOM     37  C   UNL     1       1.082  -1.513  -1.189  0.00  0.00    +0.229 C 
ENDBRANCH  35  37
ENDBRANCH  33  35
ENDBRANCH   1  33
TORSDOF 8
