REMARK  Name = ZINC67036735
REMARK  11 active torsions:
REMARK  status: ('A' for Active; 'I' for Inactive)
REMARK    1  A    between atoms: C_1  and  C_2
REMARK    2  A    between atoms: C_2  and  C_4
REMARK    3  A    between atoms: C_2  and  N_14
REMARK    4  A    between atoms: C_7  and  C_10
REMARK    5  A    between atoms: C_10  and  C_11
REMARK    6  A    between atoms: C_10  and  C_12
REMARK    7  A    between atoms: C_10  and  C_13
REMARK    8  A    between atoms: C_15  and  C_17
REMARK    9  A    between atoms: C_20  and  C_22
REMARK   10  A    between atoms: C_22  and  N_23
REMARK   11  A    between atoms: C_24  and  C_26
REMARK                            x       y       z     vdW  Elec       q    Type
REMARK                         _______ _______ _______ _____ _____    ______ ____
ROOT
ATOM      1  N   UNL     1       0.711  -0.489   1.189  0.00  0.00    -0.304 N 
ATOM      2  C   UNL     1       2.054  -0.600   1.174  0.00  0.00    +0.251 C 
ATOM      3  O   UNL     1       2.678  -0.296   0.174  0.00  0.00    -0.270 OA
ATOM      4  H   UNL     1       0.213  -0.731   1.986  0.00  0.00    +0.150 HD
ENDROOT
BRANCH   2   5
ATOM      5  C   UNL     1       2.763  -1.085   2.361  0.00  0.00    +0.074 A 
ATOM      6  C   UNL     1       4.124  -1.266   2.554  0.00  0.00    +0.021 A 
ATOM      7  C   UNL     1       4.495  -1.741   3.789  0.00  0.00    +0.013 A 
ATOM      8  C   UNL     1       3.535  -1.995   4.712  0.00  0.00    +0.008 A 
ATOM      9  S   UNL     1       2.100  -1.591   3.937  0.00  0.00    -0.087 S 
BRANCH   8  10
ATOM     10  C   UNL     1       3.714  -2.515   6.115  0.00  0.00    +0.146 C 
BRANCH  10  11
ATOM     11  N   UNL     1       3.878  -1.388   7.037  0.00  0.00    -0.311 N 
ATOM     12  C   UNL     1       4.055  -1.615   8.353  0.00  0.00    +0.210 C 
ATOM     13  O   UNL     1       4.078  -2.751   8.775  0.00  0.00    -0.276 OA
ATOM     14  C   UNL     1       4.223  -0.455   9.301  0.00  0.00    +0.109 C 
ATOM     15  H   UNL     1       3.859  -0.479   6.699  0.00  0.00    +0.149 HD
ENDBRANCH  10  11
ENDBRANCH   8  10
ENDBRANCH   2   5
BRANCH   1  17
ATOM     16  C   UNL     1      -0.019   1.526   0.010  0.00  0.00    +0.033 C 
ATOM     17  C   UNL     1       0.002  -0.004   0.002  0.00  0.00    +0.100 C 
BRANCH  17  18
ATOM     18  C   UNL     1      -1.412  -0.526   0.013  0.00  0.00    -0.027 A 
ATOM     19  C   UNL     1      -2.123  -0.571   1.197  0.00  0.00    +0.006 A 
ATOM     20  C   UNL     1      -3.420  -1.049   1.207  0.00  0.00    +0.004 A 
ATOM     21  C   UNL     1      -4.006  -1.482   0.032  0.00  0.00    -0.042 A 
ATOM     22  C   UNL     1      -3.295  -1.436  -1.153  0.00  0.00    +0.004 A 
ATOM     23  C   UNL     1      -2.000  -0.954  -1.163  0.00  0.00    +0.006 A 
BRANCH  21  24
ATOM     24  C   UNL     1      -5.419  -2.005   0.043  0.00  0.00    -0.013 C 
ATOM     25  C   UNL     1      -6.363  -0.911   0.546  0.00  0.00    +0.015 C 
ATOM     26  C   UNL     1      -5.822  -2.414  -1.375  0.00  0.00    +0.015 C 
ATOM     27  C   UNL     1      -5.507  -3.220   0.969  0.00  0.00    +0.015 C 
ENDBRANCH  21  24
ENDBRANCH  17  18
ENDBRANCH   1  17
TORSDOF 6
