REMARK  Name = ZINC62976191
REMARK  3 active torsions:
REMARK  status: ('A' for Active; 'I' for Inactive)
REMARK    1  A    between atoms: C_5  and  N_8
REMARK    2  A    between atoms: C_6  and  N_7
REMARK    3  A    between atoms: C_11  and  N_14
REMARK                            x       y       z     vdW  Elec       q    Type
REMARK                         _______ _______ _______ _____ _____    ______ ____
ROOT
ATOM      1  C   UNL     1      -0.017   1.382   0.010  0.00  0.00    +0.027 A 
ATOM      2  C   UNL     1       1.171   2.091   0.002  0.00  0.00    +0.043 A 
ATOM      3  C   UNL     1       2.381   1.420  -0.013  0.00  0.00    +0.160 A 
ATOM      4  C   UNL     1       2.409   0.034  -0.021  0.00  0.00    +0.181 A 
ATOM      5  C   UNL     1       1.220  -0.682  -0.013  0.00  0.00    +0.089 A 
ATOM      6  C   UNL     1       0.002  -0.004   0.002  0.00  0.00    +0.049 A 
ATOM      7  F   UNL     1       3.591  -0.618  -0.036  0.00  0.00    -0.200 F 
ATOM      8  F   UNL     1       3.539   2.118  -0.021  0.00  0.00    -0.202 F 
ENDROOT
BRANCH   5   9
ATOM      9  N   UNL     1       1.244  -2.084  -0.021  0.00  0.00    -0.325 N 
ATOM     10  C   UNL     1       1.254  -2.933  -1.221  0.00  0.00    +0.107 C 
ATOM     11  C   UNL     1       1.309  -4.400  -0.743  0.00  0.00    +0.039 C 
ATOM     12  C   UNL     1       1.899  -4.277   0.687  0.00  0.00    +0.075 C 
ATOM     13  C   UNL     1       1.271  -2.950   1.172  0.00  0.00    +0.124 C 
BRANCH  12  14
ATOM     14  N   UNL     1       1.474  -5.403   1.530  0.00  0.00    -0.294 NA
ATOM     15  C   UNL     1       1.932  -5.226   2.915  0.00  0.00    +0.113 C 
ATOM     16  C   UNL     1       1.418  -6.388   3.769  0.00  0.00    +0.175 C 
ATOM     17  O   UNL     1       1.867  -7.623   3.205  0.00  0.00    -0.377 OA
ATOM     18  C   UNL     1       1.438  -7.829   1.856  0.00  0.00    +0.175 C 
ATOM     19  C   UNL     1       1.952  -6.681   0.982  0.00  0.00    +0.113 C 
ENDBRANCH  12  14
ENDBRANCH   5   9
BRANCH   6  20
ATOM     20  N   UNL     1      -1.201  -0.723   0.010  0.00  0.00    -0.356 N 
ATOM     21  H   UNL     1      -2.048  -0.250   0.020  0.00  0.00    +0.142 HD
ATOM     22  H   UNL     1      -1.187  -1.692   0.004  0.00  0.00    +0.142 HD
ENDBRANCH   6  20
TORSDOF 3
