REMARK  Name = ZINC27530547
REMARK  10 active torsions:
REMARK  status: ('A' for Active; 'I' for Inactive)
REMARK    1  A    between atoms: C_1  and  C_2
REMARK    2  A    between atoms: C_2  and  O_3
REMARK    3  A    between atoms: O_3  and  C_4
REMARK    4  A    between atoms: C_7  and  C_10
REMARK    5  A    between atoms: N_14  and  C_18
REMARK    6  A    between atoms: C_18  and  C_19
REMARK    7  A    between atoms: N_21  and  C_22
REMARK    8  A    between atoms: C_23  and  C_35
REMARK    9  A    between atoms: N_24  and  C_34
REMARK   10  A    between atoms: N_25  and  C_28
REMARK                            x       y       z     vdW  Elec       q    Type
REMARK                         _______ _______ _______ _____ _____    ______ ____
ROOT
ATOM      1  C   UNL     1       7.508  -0.304   0.284  0.00  0.00    +0.211 C 
ENDROOT
BRANCH   1   6
ATOM      2  C   UNL     1       4.054   3.257   0.266  0.00  0.00    +0.028 C 
ATOM      3  C   UNL     1       5.302   2.726   0.300  0.00  0.00    +0.077 C 
ATOM      4  C   UNL     1       5.724   1.311   0.266  0.00  0.00    +0.259 C 
ATOM      5  O   UNL     1       4.915   0.404   0.198  0.00  0.00    -0.269 OA
ATOM      6  N   UNL     1       7.025   1.079   0.314  0.00  0.00    -0.246 N 
ATOM      7  C   UNL     1       7.918   2.087   0.390  0.00  0.00    +0.121 C 
ATOM      8  S   UNL     1       9.626   1.992   0.460  0.00  0.00    -0.027 S 
ATOM      9  S   UNL     1       6.888   3.546   0.391  0.00  0.00    -0.061 S 
BRANCH   2  13
ATOM     10  C   UNL     1       0.662   0.727   0.538  0.00  0.00    +0.121 A 
ATOM     11  C   UNL     1       0.631   1.840  -0.294  0.00  0.00    +0.046 A 
ATOM     12  C   UNL     1       1.727   2.668  -0.382  0.00  0.00    +0.011 A 
ATOM     13  C   UNL     1       2.880   2.381   0.360  0.00  0.00    -0.024 A 
ATOM     14  C   UNL     1       2.908   1.255   1.192  0.00  0.00    +0.011 A 
ATOM     15  C   UNL     1       1.804   0.437   1.277  0.00  0.00    +0.046 A 
BRANCH  10  16
ATOM     16  O   UNL     1      -0.423  -0.084   0.626  0.00  0.00    -0.492 OA
BRANCH  16  18
ATOM     17  C   UNL     1      -2.679  -0.750   0.069  0.00  0.00    +0.048 C 
ATOM     18  C   UNL     1      -1.563   0.272  -0.159  0.00  0.00    +0.225 C 
ENDBRANCH  16  18
ENDBRANCH  10  16
ENDBRANCH   2  13
ENDBRANCH   1   6
BRANCH   1  19
ATOM     19  C   UNL     1       7.734  -0.726  -1.145  0.00  0.00    +0.235 C 
ATOM     20  O   UNL     1       7.514   0.052  -2.050  0.00  0.00    -0.274 OA
ATOM     21  N   UNL     1       8.181  -1.968  -1.418  0.00  0.00    -0.278 N 
ATOM     22  H   UNL     1       8.298  -2.701  -0.606  0.00  0.00    +0.155 HD
BRANCH  21  23
ATOM     23  C   UNL     1       8.499  -2.327  -2.743  0.00  0.00    +0.121 A 
ATOM     24  C   UNL     1       9.688  -2.794  -3.184  0.00  0.00    +0.059 A 
ATOM     25  N   UNL     1       9.595  -3.025  -4.531  0.00  0.00    -0.282 N 
ATOM     26  N   UNL     1       8.306  -2.696  -4.965  0.00  0.00    -0.216 N 
ATOM     27  C   UNL     1       7.601  -2.269  -3.897  0.00  0.00    +0.293 A 
ATOM     28  O   UNL     1       6.439  -1.903  -3.894  0.00  0.00    -0.264 OA
ATOM     29  C   UNL     1      10.672  -3.536  -5.382  0.00  0.00    +0.171 C 
ATOM     30  C   UNL     1      10.912  -3.023  -2.336  0.00  0.00    +0.067 C 
BRANCH  26  31
ATOM     31  C   UNL     1       7.830  -2.797  -6.276  0.00  0.00    +0.067 A 
ATOM     32  C   UNL     1       8.571  -2.274  -7.328  0.00  0.00    +0.028 A 
ATOM     33  C   UNL     1       8.101  -2.381  -8.622  0.00  0.00    +0.002 A 
ATOM     34  C   UNL     1       6.888  -2.997  -8.870  0.00  0.00    +0.000 A 
ATOM     35  C   UNL     1       6.145  -3.513  -7.825  0.00  0.00    +0.002 A 
ATOM     36  C   UNL     1       6.612  -3.415  -6.529  0.00  0.00    +0.028 A 
ENDBRANCH  26  31
ENDBRANCH  21  23
ENDBRANCH   1  19
TORSDOF 7
