REMARK  Name = ZINC14550829
REMARK  7 active torsions:
REMARK  status: ('A' for Active; 'I' for Inactive)
REMARK    1  A    between atoms: C_1  and  C_2
REMARK    2  A    between atoms: C_2  and  C_3
REMARK    3  A    between atoms: C_2  and  N_4
REMARK    4  A    between atoms: N_4  and  S_5
REMARK    5  A    between atoms: S_5  and  C_8
REMARK    6  A    between atoms: C_21  and  C_24
REMARK    7  A    between atoms: C_27  and  N_30
REMARK                            x       y       z     vdW  Elec       q    Type
REMARK                         _______ _______ _______ _____ _____    ______ ____
ROOT
ATOM      1  C   UNL     1       3.603   1.503  -0.936  0.00  0.00    +0.106 A 
ATOM      2  C   UNL     1       4.020   2.512  -0.088  0.00  0.00    +0.030 A 
ATOM      3  C   UNL     1       3.125   3.070   0.803  0.00  0.00    +0.025 A 
ATOM      4  C   UNL     1       1.812   2.618   0.845  0.00  0.00    +0.031 A 
ATOM      5  C   UNL     1       1.390   1.606  -0.003  0.00  0.00    -0.018 A 
ATOM      6  C   UNL     1       2.299   1.053  -0.894  0.00  0.00    +0.034 A 
ATOM      7  C   UNL     1      -0.013   1.086   0.008  0.00  0.00    +0.049 C 
ATOM      8  C   UNL     1      -0.796   1.587  -1.182  0.00  0.00    -0.023 C 
ATOM      9  C   UNL     1      -2.026   1.832  -0.864  0.00  0.00    -0.030 C 
ATOM     10  C   UNL     1      -2.259   1.522   0.602  0.00  0.00    +0.033 C 
ATOM     11  C   UNL     1      -0.830   1.584   1.216  0.00  0.00    +0.029 C 
ATOM     12  C   UNL     1      -0.521   3.043   1.504  0.00  0.00    +0.105 C 
ATOM     13  N   UNL     1       0.916   3.196   1.752  0.00  0.00    -0.336 N 
ATOM     14  H   UNL     1       1.238   3.684   2.525  0.00  0.00    +0.147 HD
ENDROOT
BRANCH  12  15
ATOM     15  C   UNL     1      -0.918   3.875   0.311  0.00  0.00    -0.027 A 
ATOM     16  C   UNL     1      -0.086   3.944  -0.791  0.00  0.00    +0.008 A 
ATOM     17  C   UNL     1      -0.453   4.702  -1.887  0.00  0.00    +0.033 A 
ATOM     18  C   UNL     1      -1.646   5.400  -1.877  0.00  0.00    +0.126 A 
ATOM     19  C   UNL     1      -2.475   5.335  -0.773  0.00  0.00    +0.033 A 
ATOM     20  C   UNL     1      -2.111   4.572   0.321  0.00  0.00    +0.008 A 
BRANCH  18  21
ATOM     21  N   UNL     1      -2.036   6.216  -3.049  0.00  0.00    +0.056 N 
ATOM     22  O   UNL     1      -3.088   6.830  -3.040  0.00  0.00    -0.126 OA
ATOM     23  O   UNL     1      -1.306   6.273  -4.022  0.00  0.00    -0.126 OA
ENDBRANCH  18  21
ENDBRANCH  12  15
BRANCH   1  24
ATOM     24  S   UNL     1       4.741   0.788  -2.075  0.00  0.00    +0.059 S 
ATOM     25  O   UNL     1       6.040   1.006  -1.542  0.00  0.00    -0.153 OA
ATOM     26  O   UNL     1       4.250  -0.511  -2.379  0.00  0.00    -0.153 OA
BRANCH  24  27
ATOM     27  N   UNL     1       4.650   1.667  -3.475  0.00  0.00    -0.187 NA
ATOM     28  H   UNL     1       4.323   1.252  -4.288  0.00  0.00    +0.148 HD
BRANCH  27  30
ATOM     29  C   UNL     1       5.712   3.403  -4.832  0.00  0.00    +0.025 C 
ATOM     30  C   UNL     1       5.065   3.072  -3.486  0.00  0.00    +0.070 C 
ATOM     31  C   UNL     1       3.841   3.966  -3.275  0.00  0.00    +0.025 C 
ENDBRANCH  27  30
ENDBRANCH  24  27
ENDBRANCH   1  24
TORSDOF 5
