REMARK  Name = ZINC59587378
REMARK  8 active torsions:
REMARK  status: ('A' for Active; 'I' for Inactive)
REMARK    1  A    between atoms: C_4  and  C_7
REMARK    2  A    between atoms: C_7  and  N_8
REMARK    3  A    between atoms: C_11  and  N_14
REMARK    4  A    between atoms: N_14  and  C_15
REMARK    5  A    between atoms: C_15  and  C_16
REMARK    6  A    between atoms: C_21  and  O_22
REMARK    7  A    between atoms: O_22  and  C_23
REMARK    8  A    between atoms: C_23  and  C_24
REMARK                            x       y       z     vdW  Elec       q    Type
REMARK                         _______ _______ _______ _____ _____    ______ ____
ROOT
ATOM      1  C   UNL     1       6.454  -3.838   5.070  0.00  0.00    +0.120 C 
ENDROOT
BRANCH   1   2
ATOM      2  C   UNL     1       6.872  -3.931   6.515  0.00  0.00    +0.009 A 
ATOM      3  C   UNL     1       8.049  -3.340   6.934  0.00  0.00    +0.023 A 
ATOM      4  C   UNL     1       8.432  -3.425   8.260  0.00  0.00    +0.018 A 
ATOM      5  C   UNL     1       7.639  -4.101   9.170  0.00  0.00    +0.019 A 
ATOM      6  C   UNL     1       6.462  -4.692   8.755  0.00  0.00    +0.047 A 
ATOM      7  C   UNL     1       6.072  -4.604   7.427  0.00  0.00    +0.125 A 
ATOM      8 BR   UNL     1      10.044  -2.616   8.830  0.00  0.00    -0.050 Br
BRANCH   7   9
ATOM      9  O   UNL     1       4.912  -5.181   7.018  0.00  0.00    -0.487 OA
BRANCH   9  10
ATOM     10  C   UNL     1       4.139  -5.858   8.011  0.00  0.00    +0.264 C 
BRANCH  10  11
ATOM     11  C   UNL     1       2.897  -6.431   7.377  0.00  0.00    -0.010 A 
ATOM     12  C   UNL     1       1.741  -5.675   7.316  0.00  0.00    +0.008 A 
ATOM     13  C   UNL     1       0.602  -6.199   6.735  0.00  0.00    +0.020 A 
ATOM     14  C   UNL     1       0.619  -7.481   6.215  0.00  0.00    +0.041 A 
ATOM     15  C   UNL     1       1.776  -8.237   6.276  0.00  0.00    +0.020 A 
ATOM     16  C   UNL     1       2.916  -7.709   6.852  0.00  0.00    +0.008 A 
ATOM     17 CL   UNL     1      -0.812  -8.140   5.485  0.00  0.00    -0.084 Cl
ENDBRANCH  10  11
ENDBRANCH   9  10
ENDBRANCH   7   9
ENDBRANCH   1   2
BRANCH   1  18
ATOM     18  N   UNL     1       5.450  -2.777   4.917  0.00  0.00    -0.309 NA
ATOM     19  H   UNL     1       5.800  -1.896   5.264  0.00  0.00    +0.123 HD
BRANCH  18  23
ATOM     20  N   UNL     1       4.153  -0.953   1.342  0.00  0.00    +0.382 N 
ATOM     21  C   UNL     1       3.203  -1.854   2.005  0.00  0.00    -0.077 C 
ATOM     22  C   UNL     1       3.614  -2.050   3.466  0.00  0.00    -0.000 C 
ATOM     23  C   UNL     1       5.019  -2.657   3.518  0.00  0.00    +0.050 C 
ATOM     24  C   UNL     1       5.987  -1.746   2.760  0.00  0.00    -0.000 C 
ATOM     25  C   UNL     1       5.489  -1.562   1.325  0.00  0.00    -0.077 C 
ATOM     26  H   UNL     1       4.190  -0.078   1.843  0.00  0.00    -0.081 HD
BRANCH  20  27
ATOM     27  C   UNL     1       3.711  -0.707  -0.038  0.00  0.00    -0.043 C 
BRANCH  27  31
ATOM     28  C   UNL     1      -0.017   1.378   0.010  0.00  0.00    +0.000 A 
ATOM     29  C   UNL     1       1.171   2.086   0.002  0.00  0.00    +0.000 A 
ATOM     30  C   UNL     1       2.377   1.411  -0.013  0.00  0.00    +0.002 A 
ATOM     31  C   UNL     1       2.396   0.029  -0.020  0.00  0.00    -0.064 A 
ATOM     32  C   UNL     1       1.208  -0.679  -0.012  0.00  0.00    +0.002 A 
ATOM     33  C   UNL     1       0.002  -0.004   0.002  0.00  0.00    +0.000 A 
ENDBRANCH  27  31
ENDBRANCH  20  27
ENDBRANCH  18  23
ENDBRANCH   1  18
TORSDOF 8
