REMARK  Name = ZINC58156683
REMARK  8 active torsions:
REMARK  status: ('A' for Active; 'I' for Inactive)
REMARK    1  A    between atoms: C_1  and  C_2
REMARK    2  A    between atoms: C_2  and  O_3
REMARK    3  A    between atoms: O_3  and  C_4
REMARK    4  A    between atoms: C_7  and  C_10
REMARK    5  A    between atoms: N_17  and  C_18
REMARK    6  A    between atoms: C_23  and  S_24
REMARK    7  A    between atoms: S_24  and  C_25
REMARK    8  A    between atoms: C_25  and  C_26
REMARK                            x       y       z     vdW  Elec       q    Type
REMARK                         _______ _______ _______ _____ _____    ______ ____
ROOT
ATOM      1  C   UNL     1       1.146  -6.036   1.775  0.00  0.00    +0.108 C 
ATOM      2  C   UNL     1       0.091  -6.532   2.786  0.00  0.00    +0.029 C 
ATOM      3  C   UNL     1       0.853  -7.632   3.571  0.00  0.00    +0.021 C 
ATOM      4  C   UNL     1       2.284  -7.043   3.623  0.00  0.00    +0.110 C 
ATOM      5  N   UNL     1       2.468  -6.382   2.317  0.00  0.00    -0.278 N 
ATOM      6  C   UNL     1       3.651  -6.136   1.720  0.00  0.00    +0.307 C 
ATOM      7  O   UNL     1       3.682  -5.583   0.638  0.00  0.00    -0.252 OA
ATOM      8  N   UNL     1       4.799  -6.504   2.323  0.00  0.00    -0.268 N 
ATOM      9  H   UNL     1       4.778  -6.886   3.214  0.00  0.00    +0.156 HD
ENDROOT
BRANCH   1  13
ATOM     10  C   UNL     1       0.831  -1.800   1.306  0.00  0.00    +0.121 A 
ATOM     11  C   UNL     1       0.280  -2.647   0.355  0.00  0.00    +0.046 A 
ATOM     12  C   UNL     1       0.383  -4.016   0.509  0.00  0.00    +0.009 A 
ATOM     13  C   UNL     1       1.035  -4.542   1.609  0.00  0.00    -0.027 A 
ATOM     14  C   UNL     1       1.584  -3.700   2.558  0.00  0.00    +0.009 A 
ATOM     15  C   UNL     1       1.489  -2.330   2.406  0.00  0.00    +0.046 A 
BRANCH  10  16
ATOM     16  O   UNL     1       0.730  -0.453   1.157  0.00  0.00    -0.492 OA
BRANCH  16  18
ATOM     17  C   UNL     1       0.029   1.552   0.004  0.00  0.00    +0.048 C 
ATOM     18  C   UNL     1       0.039   0.022   0.000  0.00  0.00    +0.225 C 
ENDBRANCH  16  18
ENDBRANCH  10  16
ENDBRANCH   1  13
BRANCH   8  19
ATOM     19  C   UNL     1       6.023  -6.335   1.662  0.00  0.00    +0.048 A 
ATOM     20  C   UNL     1       6.216  -5.246   0.825  0.00  0.00    +0.024 A 
ATOM     21  C   UNL     1       7.425  -5.081   0.173  0.00  0.00    +0.002 A 
ATOM     22  C   UNL     1       8.443  -5.999   0.353  0.00  0.00    +0.001 A 
ATOM     23  C   UNL     1       8.260  -7.087   1.186  0.00  0.00    +0.016 A 
ATOM     24  C   UNL     1       7.053  -7.257   1.848  0.00  0.00    +0.030 A 
BRANCH  24  25
ATOM     25  S   UNL     1       6.819  -8.639   2.917  0.00  0.00    -0.114 S 
BRANCH  25  26
ATOM     26  C   UNL     1       8.397  -9.528   2.836  0.00  0.00    +0.169 C 
BRANCH  26  27
ATOM     27  C   UNL     1       8.332 -10.749   3.717  0.00  0.00    +0.221 C 
ATOM     28  O   UNL     1       7.319 -10.995   4.338  0.00  0.00    -0.275 OA
ATOM     29  N   UNL     1       9.398 -11.568   3.815  0.00  0.00    -0.329 N 
ATOM     30  H   UNL     1      10.207 -11.371   3.318  0.00  0.00    +0.145 HD
ATOM     31  H   UNL     1       9.355 -12.354   4.382  0.00  0.00    +0.145 HD
ENDBRANCH  26  27
ENDBRANCH  25  26
ENDBRANCH  24  25
ENDBRANCH   8  19
TORSDOF 7
