REMARK  Name = ZINC27102820
REMARK  8 active torsions:
REMARK  status: ('A' for Active; 'I' for Inactive)
REMARK    1  A    between atoms: C_1  and  C_2
REMARK    2  A    between atoms: C_3  and  C_28
REMARK    3  A    between atoms: C_9  and  O_13
REMARK    4  A    between atoms: O_13  and  C_14
REMARK    5  A    between atoms: C_14  and  C_15
REMARK    6  A    between atoms: N_17  and  C_18
REMARK    7  A    between atoms: C_18  and  C_20
REMARK    8  A    between atoms: C_18  and  C_21
REMARK                            x       y       z     vdW  Elec       q    Type
REMARK                         _______ _______ _______ _____ _____    ______ ____
ROOT
ATOM      1  C   UNL     1       3.043   3.034  -2.245  0.00  0.00    +0.087 C 
ATOM      2  C   UNL     1       3.994   2.947  -1.079  0.00  0.00    +0.114 A 
ATOM      3  C   UNL     1       3.660   2.164  -0.021  0.00  0.00    +0.067 A 
ATOM      4  C   UNL     1       4.586   2.084   1.121  0.00  0.00    +0.200 A 
ATOM      5  O   UNL     1       4.337   1.402   2.100  0.00  0.00    -0.286 OA
ATOM      6  C   UNL     1       5.832   2.866   1.021  0.00  0.00    +0.065 A 
ATOM      7  C   UNL     1       6.778   2.855   2.047  0.00  0.00    +0.019 A 
ATOM      8  C   UNL     1       7.919   3.596   1.924  0.00  0.00    +0.046 A 
ATOM      9  C   UNL     1       8.141   4.361   0.781  0.00  0.00    +0.125 A 
ATOM     10  C   UNL     1       7.212   4.382  -0.245  0.00  0.00    +0.092 A 
ATOM     11  C   UNL     1       6.047   3.634  -0.136  0.00  0.00    +0.142 A 
ATOM     12  O   UNL     1       5.132   3.644  -1.126  0.00  0.00    -0.459 OA
ENDROOT
BRANCH   3  13
ATOM     13  C   UNL     1       2.384   1.407  -0.013  0.00  0.00    -0.011 A 
ATOM     14  C   UNL     1       1.167   2.088   0.002  0.00  0.00    +0.009 A 
ATOM     15  C   UNL     1      -0.017   1.379   0.010  0.00  0.00    +0.001 A 
ATOM     16  C   UNL     1       0.002  -0.004   0.002  0.00  0.00    +0.000 A 
ATOM     17  C   UNL     1       1.206  -0.685  -0.013  0.00  0.00    +0.001 A 
ATOM     18  C   UNL     1       2.397   0.014  -0.021  0.00  0.00    +0.009 A 
ENDBRANCH   3  13
BRANCH   9  19
ATOM     19  O   UNL     1       9.280   5.093   0.672  0.00  0.00    -0.483 OA
BRANCH  19  20
ATOM     20  C   UNL     1      10.199   5.028   1.765  0.00  0.00    +0.324 C 
BRANCH  20  21
ATOM     21  C   UNL     1      11.393   5.897   1.468  0.00  0.00    +0.251 C 
ATOM     22  O   UNL     1      11.452   6.511   0.423  0.00  0.00    -0.272 OA
ATOM     23  N   UNL     1      12.397   5.993   2.362  0.00  0.00    -0.306 N 
ATOM     24  H   UNL     1      12.344   5.436   3.310  0.00  0.00    +0.149 HD
BRANCH  23  25
ATOM     25  C   UNL     1      13.558   6.837   2.073  0.00  0.00    +0.100 C 
ATOM     26  C   UNL     1      13.254   8.280   2.482  0.00  0.00    +0.033 C 
BRANCH  25  27
ATOM     27  C   UNL     1      14.749   6.337   2.849  0.00  0.00    -0.027 A 
ATOM     28  C   UNL     1      14.592   5.904   4.153  0.00  0.00    +0.006 A 
ATOM     29  C   UNL     1      15.683   5.440   4.863  0.00  0.00    +0.015 A 
ATOM     30  C   UNL     1      16.934   5.418   4.273  0.00  0.00    +0.018 A 
ATOM     31  C   UNL     1      17.092   5.856   2.971  0.00  0.00    +0.015 A 
ATOM     32  C   UNL     1      15.999   6.315   2.259  0.00  0.00    +0.006 A 
ATOM     33 BR   UNL     1      18.429   4.791   5.247  0.00  0.00    -0.050 Br
ENDBRANCH  25  27
ENDBRANCH  23  25
ENDBRANCH  20  21
ENDBRANCH  19  20
ENDBRANCH   9  19
TORSDOF 6
