REMARK  Name = ZINC36328936
REMARK  6 active torsions:
REMARK  status: ('A' for Active; 'I' for Inactive)
REMARK    1  A    between atoms: C_1  and  N_2
REMARK    2  A    between atoms: N_2  and  C_3
REMARK    3  A    between atoms: N_2  and  S_10
REMARK    4  A    between atoms: S_10  and  C_13
REMARK    5  A    between atoms: C_16  and  N_19
REMARK    6  A    between atoms: N_19  and  N_20
REMARK                            x       y       z     vdW  Elec       q    Type
REMARK                         _______ _______ _______ _____ _____    ______ ____
ROOT
ATOM      1  S   UNL     1      -0.000  -0.824  -1.437  0.00  0.00    +0.061 S 
ATOM      2  O   UNL     1      -0.531  -2.115  -1.167  0.00  0.00    -0.153 OA
ATOM      3  O   UNL     1      -0.572   0.049  -2.401  0.00  0.00    -0.153 OA
ENDROOT
BRANCH   1   4
ATOM      4  C   UNL     1       1.682  -1.059  -1.905  0.00  0.00    +0.106 A 
ATOM      5  C   UNL     1       2.322  -0.108  -2.677  0.00  0.00    +0.030 A 
ATOM      6  C   UNL     1       3.641  -0.289  -3.046  0.00  0.00    +0.026 A 
ATOM      7  C   UNL     1       4.324  -1.429  -2.641  0.00  0.00    +0.041 A 
ATOM      8  C   UNL     1       3.677  -2.383  -1.865  0.00  0.00    +0.026 A 
ATOM      9  C   UNL     1       2.360  -2.192  -1.495  0.00  0.00    +0.030 A 
BRANCH   7  10
ATOM     10  N   UNL     1       5.657  -1.615  -3.013  0.00  0.00    -0.283 N 
ATOM     11  H   UNL     1       6.107  -0.949  -3.555  0.00  0.00    +0.166 HD
BRANCH  10  12
ATOM     12  N   UNL     1       6.327  -2.737  -2.613  0.00  0.00    -0.257 NA
ATOM     13  H   UNL     1       5.841  -3.571  -2.905  0.00  0.00    +0.140 HD
ATOM     14  H   UNL     1       7.276  -2.732  -2.956  0.00  0.00    +0.140 HD
ENDBRANCH  10  12
ENDBRANCH   7  10
ENDBRANCH   1   4
BRANCH   1  16
ATOM     15  C   UNL     1      -0.018   1.461   0.010  0.00  0.00    +0.132 C 
ATOM     16  N   UNL     1       0.002  -0.004   0.002  0.00  0.00    -0.177 NA
BRANCH  16  17
ATOM     17  C   UNL     1       0.024  -0.743   1.267  0.00  0.00    +0.080 C 
ATOM     18  C   UNL     1       1.242  -0.352   2.059  0.00  0.00    +0.020 C 
ATOM     19  C   UNL     1       1.809  -1.523   2.884  0.00  0.00    +0.002 C 
ATOM     20  C   UNL     1       0.711  -2.365   3.562  0.00  0.00    +0.000 C 
ATOM     21  C   UNL     1      -0.384  -1.516   4.150  0.00  0.00    +0.000 C 
ATOM     22  C   UNL     1      -1.519  -1.392   3.112  0.00  0.00    +0.002 C 
ATOM     23  C   UNL     1      -1.231  -0.395   2.092  0.00  0.00    +0.020 C 
ENDBRANCH  16  17
ENDBRANCH   1  16
TORSDOF 5
