REMARK  Name = ZINC37349392
REMARK  6 active torsions:
REMARK  status: ('A' for Active; 'I' for Inactive)
REMARK    1  A    between atoms: C_1  and  C_2
REMARK    2  A    between atoms: C_6  and  C_7
REMARK    3  A    between atoms: C_8  and  C_14
REMARK    4  A    between atoms: C_9  and  N_13
REMARK    5  A    between atoms: C_19  and  O_20
REMARK    6  A    between atoms: O_20  and  C_21
REMARK                            x       y       z     vdW  Elec       q    Type
REMARK                         _______ _______ _______ _____ _____    ______ ____
ROOT
ATOM      1  C   UNL     1       0.030  -0.203   2.565  0.00  0.00    +0.109 A 
ATOM      2  C   UNL     1       0.057  -0.997   3.740  0.00  0.00    +0.053 A 
ATOM      3  C   UNL     1       0.055  -0.133   4.818  0.00  0.00    +0.120 A 
ATOM      4  N   UNL     1       0.027   1.132   4.325  0.00  0.00    -0.263 N 
ATOM      5  H   UNL     1       0.019   1.947   4.852  0.00  0.00    +0.190 HD
ATOM      6  N   UNL     1       0.017   1.062   2.927  0.00  0.00    -0.171 NA
ENDROOT
BRANCH   2   7
ATOM      7  C   UNL     1       0.084  -2.478   3.801  0.00  0.00    +0.031 A 
ATOM      8  C   UNL     1       1.301  -3.155   3.821  0.00  0.00    +0.032 A 
ATOM      9  C   UNL     1       1.320  -4.536   3.878  0.00  0.00    +0.042 A 
ATOM     10  C   UNL     1       0.133  -5.247   3.915  0.00  0.00    +0.023 A 
ATOM     11  C   UNL     1      -1.080  -4.583   3.895  0.00  0.00    +0.047 A 
ATOM     12  C   UNL     1      -1.113  -3.200   3.844  0.00  0.00    +0.128 A 
ATOM     13 CL   UNL     1       2.836  -5.380   3.903  0.00  0.00    -0.084 Cl
BRANCH  12  14
ATOM     14  O   UNL     1      -2.305  -2.547   3.830  0.00  0.00    -0.494 OA
ATOM     15  C   UNL     1      -3.486  -3.350   3.876  0.00  0.00    +0.277 C 
ENDBRANCH  12  14
ENDBRANCH   2   7
BRANCH   1  21
ATOM     16  C   UNL     1      -0.018   1.503   0.010  0.00  0.00    +0.045 C 
ATOM     17  C   UNL     1       0.002  -0.004   0.002  0.00  0.00    -0.034 A 
ATOM     18  C   UNL     1       0.006  -0.700  -1.188  0.00  0.00    +0.011 A 
ATOM     19  C   UNL     1       0.025  -2.057  -1.160  0.00  0.00    +0.046 A 
ATOM     20  S   UNL     1       0.037  -2.396   0.593  0.00  0.00    -0.095 S 
ATOM     21  C   UNL     1       0.023  -0.708   1.176  0.00  0.00    +0.043 A 
ENDBRANCH   1  21
BRANCH   3  22
ATOM     22  N   UNL     1       0.077  -0.491   6.160  0.00  0.00    -0.343 N 
ATOM     23  H   UNL     1       0.096  -1.428   6.412  0.00  0.00    +0.144 HD
ATOM     24  H   UNL     1       0.073   0.195   6.846  0.00  0.00    +0.144 HD
ENDBRANCH   3  22
TORSDOF 4
