REMARK  Name = ZINC66141175
REMARK  6 active torsions:
REMARK  status: ('A' for Active; 'I' for Inactive)
REMARK    1  A    between atoms: C_7  and  C_9
REMARK    2  A    between atoms: C_9  and  C_10
REMARK    3  A    between atoms: C_10  and  C_11
REMARK    4  A    between atoms: C_11  and  N_12
REMARK    5  A    between atoms: N_15  and  C_16
REMARK    6  A    between atoms: C_21  and  C_24
REMARK                            x       y       z     vdW  Elec       q    Type
REMARK                         _______ _______ _______ _____ _____    ______ ____
ROOT
ATOM      1  N   UNL     1       3.877  -6.475   2.570  0.00  0.00    -0.299 N 
ATOM      2  C   UNL     1       4.131  -7.725   3.005  0.00  0.00    +0.300 C 
ATOM      3  O   UNL     1       3.544  -8.162   3.976  0.00  0.00    -0.253 OA
ATOM      4  N   UNL     1       5.037  -8.490   2.364  0.00  0.00    -0.297 N 
ATOM      5  H   UNL     1       4.345  -6.126   1.796  0.00  0.00    +0.150 HD
ATOM      6  H   UNL     1       5.505  -8.141   1.590  0.00  0.00    +0.151 HD
ENDROOT
BRANCH   4   7
ATOM      7  C   UNL     1       5.314  -9.849   2.837  0.00  0.00    +0.075 C 
ATOM      8  C   UNL     1       6.362  -9.798   3.950  0.00  0.00    +0.022 C 
ATOM      9  C   UNL     1       7.650  -9.174   3.409  0.00  0.00    +0.002 C 
ATOM     10  C   UNL     1       8.179 -10.020   2.249  0.00  0.00    +0.012 C 
ATOM     11  C   UNL     1       7.130 -10.071   1.136  0.00  0.00    +0.095 C 
ATOM     12  C   UNL     1       5.842 -10.695   1.677  0.00  0.00    +0.034 C 
BRANCH  11  13
ATOM     13  C   UNL     1       7.659 -10.917  -0.024  0.00  0.00    +0.393 C 
ATOM     14  F   UNL     1       7.923 -12.214   0.428  0.00  0.00    -0.170 F 
ATOM     15  F   UNL     1       6.700 -10.963  -1.042  0.00  0.00    -0.170 F 
ATOM     16  F   UNL     1       8.837 -10.346  -0.518  0.00  0.00    -0.170 F 
ENDBRANCH  11  13
ENDBRANCH   4   7
BRANCH   1  17
ATOM     17  C   UNL     1       2.892  -5.643   3.267  0.00  0.00    +0.106 C 
BRANCH  17  18
ATOM     18  C   UNL     1       2.794  -4.282   2.575  0.00  0.00    +0.025 C 
BRANCH  18  19
ATOM     19  C   UNL     1       1.766  -3.413   3.303  0.00  0.00    +0.064 C 
BRANCH  19  26
ATOM     20  C   UNL     1      -0.019   1.526   0.010  0.00  0.00    +0.006 C 
ATOM     21  C   UNL     1       1.412   2.073  -0.000  0.00  0.00    +0.006 C 
ATOM     22  C   UNL     1       2.065   1.781   1.361  0.00  0.00    +0.044 C 
ATOM     23  C   UNL     1       1.800   0.355   1.706  0.00  0.00    +0.013 A 
ATOM     24  C   UNL     1       0.898  -0.486   1.134  0.00  0.00    +0.052 A 
ATOM     25  N   UNL     1       0.879  -1.712   1.644  0.00  0.00    -0.249 NA
ATOM     26  C   UNL     1       1.670  -2.072   2.622  0.00  0.00    +0.079 A 
ATOM     27  S   UNL     1       2.554  -0.672   2.937  0.00  0.00    -0.077 S 
ATOM     28  C   UNL     1       0.002  -0.004   0.002  0.00  0.00    +0.056 C 
ENDBRANCH  19  26
ENDBRANCH  18  19
ENDBRANCH  17  18
ENDBRANCH   1  17
TORSDOF 6
