REMARK  Name = ZINC37167483
REMARK  8 active torsions:
REMARK  status: ('A' for Active; 'I' for Inactive)
REMARK    1  A    between atoms: C_1  and  C_2
REMARK    2  A    between atoms: C_3  and  C_8
REMARK    3  A    between atoms: N_6  and  C_7
REMARK    4  A    between atoms: C_8  and  C_10
REMARK    5  A    between atoms: C_8  and  N_11
REMARK    6  A    between atoms: N_11  and  C_12
REMARK    7  A    between atoms: C_12  and  C_14
REMARK    8  A    between atoms: C_12  and  C_15
REMARK                            x       y       z     vdW  Elec       q    Type
REMARK                         _______ _______ _______ _____ _____    ______ ____
ROOT
ATOM      1  N   UNL     1      -0.602  -1.366  -3.293  0.00  0.00    +0.388 N 
ATOM      2  H   UNL     1      -0.191  -2.280  -3.172  0.00  0.00    -0.084 HD
ATOM      3  H   UNL     1      -1.567  -1.390  -3.001  0.00  0.00    -0.084 HD
ENDROOT
BRANCH   1   4
ATOM      4  C   UNL     1       0.132  -0.388  -2.480  0.00  0.00    -0.040 C 
ATOM      5  C   UNL     1       1.622  -0.456  -2.821  0.00  0.00    -0.009 C 
BRANCH   4   8
ATOM      6  C   UNL     1       0.350   1.647  -0.114  0.00  0.00    +0.065 C 
ATOM      7  C   UNL     1       0.031   0.179   0.004  0.00  0.00    +0.037 A 
ATOM      8  C   UNL     1      -0.063  -0.702  -1.019  0.00  0.00    -0.021 A 
ATOM      9  C   UNL     1      -0.375  -1.954  -0.481  0.00  0.00    +0.136 A 
ATOM     10  N   UNL     1      -0.464  -1.831   0.818  0.00  0.00    -0.179 NA
ATOM     11  N   UNL     1      -0.207  -0.494   1.149  0.00  0.00    -0.271 N 
ATOM     12  C   UNL     1      -0.201   0.074   2.500  0.00  0.00    +0.172 C 
ENDBRANCH   4   8
ENDBRANCH   1   4
BRANCH   1  13
ATOM     13  C   UNL     1      -0.528  -0.980  -4.709  0.00  0.00    -0.043 C 
ATOM     14  C   UNL     1      -1.167  -2.072  -5.569  0.00  0.00    -0.009 C 
BRANCH  13  15
ATOM     15  C   UNL     1      -1.266   0.318  -4.915  0.00  0.00    -0.062 A 
ATOM     16  C   UNL     1      -2.457   0.548  -4.252  0.00  0.00    +0.003 A 
ATOM     17  C   UNL     1      -3.134   1.738  -4.440  0.00  0.00    +0.015 A 
ATOM     18  C   UNL     1      -2.619   2.699  -5.291  0.00  0.00    +0.018 A 
ATOM     19  C   UNL     1      -1.428   2.468  -5.954  0.00  0.00    +0.015 A 
ATOM     20  C   UNL     1      -0.749   1.280  -5.761  0.00  0.00    +0.003 A 
ATOM     21 BR   UNL     1      -3.546   4.327  -5.549  0.00  0.00    -0.050 Br
ENDBRANCH  13  15
ENDBRANCH   1  13
TORSDOF 4
