REMARK  Name = ZINC38688966
REMARK  10 active torsions:
REMARK  status: ('A' for Active; 'I' for Inactive)
REMARK    1  A    between atoms: C_1  and  C_2
REMARK    2  A    between atoms: C_7  and  C_31
REMARK    3  A    between atoms: C_9  and  N_12
REMARK    4  A    between atoms: C_13  and  C_15
REMARK    5  A    between atoms: C_15  and  N_16
REMARK    6  A    between atoms: N_19  and  C_22
REMARK    7  A    between atoms: C_22  and  C_23
REMARK    8  A    between atoms: C_24  and  C_25
REMARK    9  A    between atoms: C_31  and  O_33
REMARK   10  A    between atoms: O_33  and  C_34
REMARK                            x       y       z     vdW  Elec       q    Type
REMARK                         _______ _______ _______ _____ _____    ______ ____
ROOT
ATOM      1  N   UNL     1       0.322  -2.654   3.616  0.00  0.00    -0.285 N 
ATOM      2  C   UNL     1       0.160  -1.379   4.021  0.00  0.00    +0.231 C 
ATOM      3  O   UNL     1      -0.169  -0.527   3.224  0.00  0.00    -0.274 OA
ATOM      4  H   UNL     1       0.503  -3.350   4.267  0.00  0.00    +0.155 HD
ENDROOT
BRANCH   1  12
ATOM      5  C   UNL     1       0.292  -7.990   2.103  0.00  0.00    +0.044 C 
ATOM      6  C   UNL     1       0.227  -6.615   1.489  0.00  0.00    -0.050 A 
ATOM      7  C   UNL     1       0.126  -6.493   0.100  0.00  0.00    +0.005 A 
ATOM      8  C   UNL     1       0.064  -5.285  -0.509  0.00  0.00    +0.026 A 
ATOM      9  C   UNL     1       0.102  -4.098   0.269  0.00  0.00    +0.045 A 
ATOM     10  N   UNL     1       0.059  -2.827  -0.076  0.00  0.00    -0.367 N 
ATOM     11  C   UNL     1       0.134  -2.000   1.132  0.00  0.00    +0.234 C 
ATOM     12  C   UNL     1       0.231  -2.965   2.293  0.00  0.00    +0.053 C 
ATOM     13  C   UNL     1       0.209  -4.231   1.732  0.00  0.00    +0.018 A 
ATOM     14  C   UNL     1       0.264  -5.527   2.297  0.00  0.00    +0.015 A 
ATOM     15  H   UNL     1      -0.011  -2.493  -0.984  0.00  0.00    +0.161 HD
BRANCH  11  16
ATOM     16  C   UNL     1       1.355  -1.119   1.084  0.00  0.00    +0.335 C 
ATOM     17  O   UNL     1       2.310  -1.447   0.419  0.00  0.00    -0.248 OA
BRANCH  16  18
ATOM     18  O   UNL     1       1.383   0.028   1.779  0.00  0.00    -0.466 OA
ATOM     19  C   UNL     1       2.574   0.814   1.687  0.00  0.00    +0.280 C 
ENDBRANCH  16  18
ENDBRANCH  11  16
ENDBRANCH   1  12
BRANCH   2  20
ATOM     20  C   UNL     1       0.390  -1.012   5.464  0.00  0.00    +0.180 C 
BRANCH  20  21
ATOM     21  N   UNL     1       0.151   0.426   5.648  0.00  0.00    -0.298 NA
ATOM     22  C   UNL     1      -1.264   0.757   5.429  0.00  0.00    +0.066 C 
ATOM     23  C   UNL     1      -1.459   2.269   5.570  0.00  0.00    -0.063 C 
ATOM     24  N   UNL     1      -1.042   2.693   6.913  0.00  0.00    +0.384 N 
ATOM     25  C   UNL     1       0.380   2.378   7.108  0.00  0.00    -0.063 C 
ATOM     26  C   UNL     1       0.590   0.868   6.979  0.00  0.00    +0.066 C 
ATOM     27  H   UNL     1      -1.592   2.207   7.605  0.00  0.00    -0.081 HD
BRANCH  24  28
ATOM     28  C   UNL     1      -1.246   4.141   7.054  0.00  0.00    -0.051 C 
BRANCH  28  29
ATOM     29  C   UNL     1      -0.934   4.556   8.469  0.00  0.00    -0.045 C 
ATOM     30  C   UNL     1      -0.046   5.513   8.698  0.00  0.00    +0.002 C 
BRANCH  30  31
ATOM     31  C   UNL     1       0.260   5.921  10.086  0.00  0.00    -0.025 A 
ATOM     32  C   UNL     1      -0.380   5.296  11.157  0.00  0.00    +0.008 A 
ATOM     33  C   UNL     1      -0.090   5.681  12.450  0.00  0.00    +0.001 A 
ATOM     34  C   UNL     1       0.833   6.684  12.685  0.00  0.00    +0.000 A 
ATOM     35  C   UNL     1       1.470   7.308  11.628  0.00  0.00    +0.001 A 
ATOM     36  C   UNL     1       1.194   6.928  10.330  0.00  0.00    +0.008 A 
ENDBRANCH  30  31
ENDBRANCH  28  29
ENDBRANCH  24  28
ENDBRANCH  20  21
ENDBRANCH   2  20
TORSDOF 8
