REMARK  Name = ZINC35500895
REMARK  7 active torsions:
REMARK  status: ('A' for Active; 'I' for Inactive)
REMARK    1  A    between atoms: C_1  and  C_2
REMARK    2  A    between atoms: C_2  and  C_3
REMARK    3  A    between atoms: C_3  and  C_5
REMARK    4  A    between atoms: C_3  and  C_6
REMARK    5  A    between atoms: C_6  and  C_8
REMARK    6  A    between atoms: C_6  and  N_20
REMARK    7  A    between atoms: N_20  and  C_21
REMARK                            x       y       z     vdW  Elec       q    Type
REMARK                         _______ _______ _______ _____ _____    ______ ____
ROOT
ATOM      1  C   UNL     1       1.277  -2.528   2.581  0.00  0.00    -0.044 A 
ATOM      2  C   UNL     1       2.602  -2.927   2.597  0.00  0.00    +0.052 A 
ATOM      3  C   UNL     1       3.169  -3.377   3.776  0.00  0.00    +0.162 A 
ATOM      4  C   UNL     1       2.411  -3.428   4.938  0.00  0.00    +0.163 A 
ATOM      5  C   UNL     1       1.086  -3.029   4.919  0.00  0.00    +0.065 A 
ATOM      6  C   UNL     1       0.523  -2.574   3.739  0.00  0.00    +0.023 A 
ATOM      7 BR   UNL     1      -1.285  -2.019   3.709  0.00  0.00    -0.050 Br
ATOM      8  O   UNL     1       2.981  -3.872   6.096  0.00  0.00    -0.488 OA
ATOM      9  C   UNL     1       3.322  -5.259   6.132  0.00  0.00    +0.232 C 
ATOM     10  C   UNL     1       4.685  -5.496   5.502  0.00  0.00    +0.082 C 
ATOM     11  C   UNL     1       4.702  -5.166   4.018  0.00  0.00    +0.232 C 
ATOM     12  O   UNL     1       4.476  -3.771   3.806  0.00  0.00    -0.488 OA
ENDROOT
BRANCH   1  13
ATOM     13  C   UNL     1       0.655  -2.037   1.299  0.00  0.00    -0.037 C 
BRANCH  13  14
ATOM     14  N   UNL     1       1.375  -2.612   0.154  0.00  0.00    +0.382 N 
ATOM     15  C   UNL     1       1.192  -4.069   0.142  0.00  0.00    -0.100 C 
ATOM     16  H   UNL     1       1.013  -2.220  -0.702  0.00  0.00    -0.085 HD
ATOM     17  H   UNL     1       2.358  -2.397   0.233  0.00  0.00    -0.085 HD
ENDBRANCH  13  14
BRANCH  13  18
ATOM     18  C   UNL     1       0.742  -0.511   1.242  0.00  0.00    -0.024 C 
ATOM     19  C   UNL     1       2.210  -0.086   1.169  0.00  0.00    +0.006 C 
BRANCH  18  21
ATOM     20  C   UNL     1      -0.019   1.526   0.010  0.00  0.00    +0.004 C 
ATOM     21  C   UNL     1       0.002  -0.004   0.002  0.00  0.00    -0.002 C 
ENDBRANCH  18  21
ENDBRANCH  13  18
ENDBRANCH   1  13
TORSDOF 4
