REMARK  Name = ZINC21737649
REMARK  7 active torsions:
REMARK  status: ('A' for Active; 'I' for Inactive)
REMARK    1  A    between atoms: C_1  and  C_2
REMARK    2  A    between atoms: C_5  and  N_9
REMARK    3  A    between atoms: C_13  and  S_15
REMARK    4  A    between atoms: S_15  and  C_16
REMARK    5  A    between atoms: C_16  and  C_17
REMARK    6  A    between atoms: C_23  and  C_29
REMARK    7  A    between atoms: C_24  and  C_28
REMARK                            x       y       z     vdW  Elec       q    Type
REMARK                         _______ _______ _______ _____ _____    ______ ____
ROOT
ATOM      1  N   UNL     1       0.057  -4.169  -0.022  0.00  0.00    -0.292 N 
ATOM      2  C   UNL     1       0.177  -4.870   1.173  0.00  0.00    +0.187 A 
ATOM      3  N   UNL     1       0.191  -4.415   2.410  0.00  0.00    -0.125 NA
ATOM      4  N   UNL     1       0.321  -5.294   3.461  0.00  0.00    -0.133 NA
ATOM      5  C   UNL     1       0.432  -6.587   3.225  0.00  0.00    +0.160 A 
ATOM      6  S   UNL     1       0.347  -6.628   1.441  0.00  0.00    -0.024 S 
ATOM      7  H   UNL     1      -0.021  -4.649  -0.861  0.00  0.00    +0.154 HD
ENDROOT
BRANCH   1  12
ATOM      8  C   UNL     1       0.030   1.503   0.010  0.00  0.00    +0.045 C 
ATOM      9  C   UNL     1       0.037  -0.004   0.001  0.00  0.00    -0.032 A 
ATOM     10  C   UNL     1       0.648  -0.697   1.030  0.00  0.00    +0.006 A 
ATOM     11  C   UNL     1       0.656  -2.078   1.026  0.00  0.00    +0.023 A 
ATOM     12  C   UNL     1       0.050  -2.772  -0.014  0.00  0.00    +0.034 A 
ATOM     13  C   UNL     1      -0.563  -2.073  -1.047  0.00  0.00    +0.043 A 
ATOM     14  C   UNL     1      -0.573  -0.691  -1.033  0.00  0.00    +0.046 A 
ATOM     15 CL   UNL     1      -1.345   0.183  -2.319  0.00  0.00    -0.083 Cl
ENDBRANCH   1  12
BRANCH   5  16
ATOM     16  S   UNL     1       0.610  -7.919   4.365  0.00  0.00    -0.089 S 
BRANCH  16  17
ATOM     17  C   UNL     1       0.607  -7.110   5.989  0.00  0.00    +0.150 C 
BRANCH  17  18
ATOM     18  C   UNL     1       0.755  -8.151   7.068  0.00  0.00    +0.121 A 
ATOM     19  N   UNL     1       0.772  -7.764   8.370  0.00  0.00    -0.310 N 
ATOM     20  H   UNL     1       0.689  -6.822   8.587  0.00  0.00    +0.170 HD
ATOM     21  C   UNL     1       0.902  -8.661   9.365  0.00  0.00    +0.260 A 
ATOM     22  O   UNL     1       0.915  -8.297  10.528  0.00  0.00    -0.267 OA
ATOM     23  C   UNL     1       1.024 -10.050   9.036  0.00  0.00    +0.075 A 
ATOM     24  C   UNL     1       1.172 -11.195   9.915  0.00  0.00    -0.026 A 
ATOM     25  C   UNL     1       1.269 -12.423   9.380  0.00  0.00    -0.008 A 
ATOM     26  S   UNL     1       1.166 -12.120   7.627  0.00  0.00    -0.073 S 
ATOM     27  C   UNL     1       0.996 -10.354   7.663  0.00  0.00    +0.116 A 
ATOM     28  N   UNL     1       0.859  -9.410   6.736  0.00  0.00    -0.226 NA
ATOM     29  C   UNL     1       1.428 -13.742  10.093  0.00  0.00    +0.052 C 
ATOM     30  C   UNL     1       1.217 -11.008  11.409  0.00  0.00    +0.045 C 
ENDBRANCH  17  18
ENDBRANCH  16  17
ENDBRANCH   5  16
TORSDOF 4
