REMARK  Name = ZINC00218795
REMARK  7 active torsions:
REMARK  status: ('A' for Active; 'I' for Inactive)
REMARK    1  A    between atoms: C_1  and  C_2
REMARK    2  A    between atoms: C_5  and  C_27
REMARK    3  A    between atoms: C_10  and  C_12
REMARK    4  A    between atoms: C_12  and  O_13
REMARK    5  A    between atoms: O_13  and  C_14
REMARK    6  A    between atoms: C_23  and  C_25
REMARK    7  A    between atoms: C_23  and  C_26
REMARK                            x       y       z     vdW  Elec       q    Type
REMARK                         _______ _______ _______ _____ _____    ______ ____
ROOT
ATOM      1  C   UNL     1       3.615   2.157   0.218  0.00  0.00    +0.122 A 
ATOM      2  C   UNL     1       3.541   3.522  -0.036  0.00  0.00    +0.049 A 
ATOM      3  C   UNL     1       2.324   4.130  -0.268  0.00  0.00    +0.050 A 
ATOM      4  C   UNL     1       1.155   3.380  -0.249  0.00  0.00    +0.132 A 
ATOM      5  C   UNL     1       1.228   2.001   0.001  0.00  0.00    +0.063 A 
ATOM      6  C   UNL     1       2.462   1.392   0.237  0.00  0.00    +0.060 A 
ATOM      7  C   UNL     1      -0.014   1.209   0.009  0.00  0.00    +0.171 C 
ATOM      8  O   UNL     1       0.002  -0.004   0.002  0.00  0.00    -0.292 OA
ATOM      9  C   UNL     1      -1.316   1.990   0.019  0.00  0.00    +0.127 C 
ATOM     10  C   UNL     1      -1.136   3.191  -0.915  0.00  0.00    +0.112 C 
ATOM     11  O   UNL     1      -0.038   3.983  -0.464  0.00  0.00    -0.485 OA
ATOM     12  C   UNL     1      -2.411   4.036  -0.914  0.00  0.00    +0.056 C 
ATOM     13  C   UNL     1      -0.856   2.692  -2.334  0.00  0.00    +0.056 C 
ENDROOT
BRANCH   1  14
ATOM     14  O   UNL     1       4.821   1.573   0.448  0.00  0.00    -0.483 OA
BRANCH  14  15
ATOM     15  C   UNL     1       5.970   2.422   0.413  0.00  0.00    +0.324 C 
BRANCH  15  23
ATOM     16  C   UNL     1      11.953   0.961   0.165  0.00  0.00    +0.009 C 
ATOM     17  C   UNL     1      10.632   1.660  -0.162  0.00  0.00    +0.004 C 
ATOM     18  C   UNL     1      10.874   3.164  -0.310  0.00  0.00    +0.009 C 
ATOM     19  C   UNL     1       9.559   3.861  -0.670  0.00  0.00    +0.004 C 
ATOM     20  C   UNL     1       8.546   3.642   0.452  0.00  0.00    +0.111 C 
ATOM     21  N   UNL     1       8.416   2.200   0.705  0.00  0.00    -0.298 N 
ATOM     22  C   UNL     1       9.631   1.418   0.972  0.00  0.00    +0.111 C 
ATOM     23  C   UNL     1       7.207   1.606   0.688  0.00  0.00    +0.253 C 
ATOM     24  O   UNL     1       7.113   0.414   0.893  0.00  0.00    -0.272 OA
ATOM     25  C   UNL     1       9.807   5.359  -0.851  0.00  0.00    +0.009 C 
ENDBRANCH  15  23
ENDBRANCH  14  15
ENDBRANCH   1  14
TORSDOF 3
