REMARK  Name = ZINC04266931
REMARK  17 active torsions:
REMARK  status: ('A' for Active; 'I' for Inactive)
REMARK    1  A    between atoms: C_1  and  C_2
REMARK    2  A    between atoms: C_6  and  C_46
REMARK    3  A    between atoms: C_8  and  O_11
REMARK    4  A    between atoms: O_11  and  C_12
REMARK    5  A    between atoms: C_12  and  C_14
REMARK    6  A    between atoms: C_16  and  C_45
REMARK    7  A    between atoms: C_18  and  C_29
REMARK    8  A    between atoms: N_21  and  N_22
REMARK    9  A    between atoms: C_27  and  C_28
REMARK   10  A    between atoms: C_29  and  O_31
REMARK   11  A    between atoms: O_31  and  C_32
REMARK   12  A    between atoms: C_35  and  C_44
REMARK   13  A    between atoms: C_39  and  C_41
REMARK   14  A    between atoms: C_41  and  C_42
REMARK   15  A    between atoms: C_41  and  C_43
REMARK   16  A    between atoms: C_46  and  C_47
REMARK   17  A    between atoms: C_46  and  C_48
REMARK                            x       y       z     vdW  Elec       q    Type
REMARK                         _______ _______ _______ _____ _____    ______ ____
ROOT
ATOM      1  C   UNL     1      -0.171   0.781   1.477  0.00  0.00    +0.127 C 
ATOM      2  C   UNL     1       0.484   0.405   0.149  0.00  0.00    +0.023 C 
ATOM      3  C   UNL     1       1.613   1.400  -0.153  0.00  0.00    +0.152 C 
ATOM      4  C   UNL     1       2.635   1.272   0.959  0.00  0.00    +0.073 C 
ATOM      5  N   UNL     1       3.909   1.278   0.705  0.00  0.00    -0.183 NA
ATOM      6  C   UNL     1       2.133   1.141   2.336  0.00  0.00    +0.025 C 
ATOM      7  C   UNL     1       0.850   0.912   2.567  0.00  0.00    -0.057 C 
ATOM      8  C   UNL     1       0.393   0.776   3.997  0.00  0.00    +0.040 C 
ATOM      9  C   UNL     1       1.061  -1.009   0.246  0.00  0.00    +0.010 C 
ENDROOT
BRANCH   5  10
ATOM     10  N   UNL     1       4.829   1.042   1.735  0.00  0.00    -0.191 N 
ATOM     11  C   UNL     1       6.151   1.152   1.495  0.00  0.00    +0.317 C 
ATOM     12  O   UNL     1       6.946   1.038   2.408  0.00  0.00    -0.251 OA
ATOM     13  N   UNL     1       6.592   1.388   0.244  0.00  0.00    -0.312 N 
ATOM     14  H   UNL     1       4.515   0.800   2.620  0.00  0.00    +0.179 HD
ATOM     15  H   UNL     1       5.964   1.407  -0.496  0.00  0.00    +0.147 HD
ATOM     16  H   UNL     1       7.536   1.540   0.083  0.00  0.00    +0.147 HD
ENDBRANCH   5  10
BRANCH   1  17
ATOM     17  C   UNL     1      -1.166  -0.285   1.857  0.00  0.00    +0.315 C 
ATOM     18  O   UNL     1      -0.824  -1.210   2.555  0.00  0.00    -0.250 OA
BRANCH  17  19
ATOM     19  O   UNL     1      -2.433  -0.207   1.419  0.00  0.00    -0.461 OA
BRANCH  19  25
ATOM     20  C   UNL     1      -3.903  -3.865   3.018  0.00  0.00    +0.007 C 
ATOM     21  C   UNL     1      -4.256  -3.513   1.572  0.00  0.00    -0.011 C 
ATOM     22  C   UNL     1      -5.680  -2.954   1.516  0.00  0.00    +0.004 C 
ATOM     23  C   UNL     1      -5.768  -1.697   2.384  0.00  0.00    +0.007 C 
ATOM     24  C   UNL     1      -4.787  -0.646   1.860  0.00  0.00    +0.032 C 
ATOM     25  C   UNL     1      -3.364  -1.204   1.916  0.00  0.00    +0.180 C 
ATOM     26  C   UNL     1      -3.275  -2.462   1.048  0.00  0.00    +0.048 C 
BRANCH  24  27
ATOM     27  C   UNL     1      -4.876   0.611   2.728  0.00  0.00    -0.011 C 
ATOM     28  C   UNL     1      -6.291   1.187   2.649  0.00  0.00    +0.007 C 
ATOM     29  C   UNL     1      -4.552   0.253   4.180  0.00  0.00    +0.007 C 
ENDBRANCH  24  27
ENDBRANCH  19  25
ENDBRANCH  17  19
ENDBRANCH   1  17
BRANCH   3  30
ATOM     30  C   UNL     1       2.252   1.066  -1.476  0.00  0.00    +0.317 C 
ATOM     31  O   UNL     1       3.128   0.237  -1.532  0.00  0.00    -0.250 OA
BRANCH  30  32
ATOM     32  O   UNL     1       1.846   1.691  -2.593  0.00  0.00    -0.461 OA
BRANCH  32  33
ATOM     33  C   UNL     1       2.422   1.238  -3.847  0.00  0.00    +0.180 C 
ATOM     34  C   UNL     1       3.631   2.107  -4.197  0.00  0.00    +0.048 C 
ATOM     35  C   UNL     1       3.188   3.565  -4.336  0.00  0.00    -0.011 C 
ATOM     36  C   UNL     1       2.141   3.676  -5.447  0.00  0.00    +0.004 C 
ATOM     37  C   UNL     1       0.932   2.807  -5.097  0.00  0.00    +0.007 C 
ATOM     38  C   UNL     1       1.375   1.349  -4.958  0.00  0.00    +0.032 C 
ATOM     39  C   UNL     1       2.582   4.042  -3.015  0.00  0.00    +0.007 C 
BRANCH  38  40
ATOM     40  C   UNL     1       0.166   0.479  -4.608  0.00  0.00    -0.011 C 
ATOM     41  C   UNL     1      -0.880   0.590  -5.719  0.00  0.00    +0.007 C 
ATOM     42  C   UNL     1       0.609  -0.979  -4.469  0.00  0.00    +0.007 C 
ENDBRANCH  38  40
ENDBRANCH  32  33
ENDBRANCH  30  32
ENDBRANCH   3  30
TORSDOF 9
