REMARK  Name = ZINC12980106
REMARK  14 active torsions:
REMARK  status: ('A' for Active; 'I' for Inactive)
REMARK    1  A    between atoms: C_1  and  O_2
REMARK    2  A    between atoms: O_2  and  C_3
REMARK    3  A    between atoms: C_8  and  C_9
REMARK    4  A    between atoms: C_9  and  C_11
REMARK    5  A    between atoms: C_9  and  N_32
REMARK    6  A    between atoms: C_11  and  N_12
REMARK    7  A    between atoms: C_13  and  C_15
REMARK    8  A    between atoms: C_15  and  C_17
REMARK    9  A    between atoms: C_15  and  N_21
REMARK   10  A    between atoms: C_17  and  C_18
REMARK   11  A    between atoms: C_18  and  S_19
REMARK   12  A    between atoms: S_19  and  C_20
REMARK   13  A    between atoms: N_21  and  S_22
REMARK   14  A    between atoms: S_22  and  C_25
REMARK                            x       y       z     vdW  Elec       q    Type
REMARK                         _______ _______ _______ _____ _____    ______ ____
ROOT
ATOM      1  N   UNL     1       0.745  -4.124   2.096  0.00  0.00    -0.315 N 
ATOM      2  C   UNL     1       1.180  -4.654   3.256  0.00  0.00    +0.232 C 
ATOM      3  O   UNL     1       0.644  -4.350   4.301  0.00  0.00    -0.274 OA
ATOM      4  H   UNL     1       1.174  -4.368   1.261  0.00  0.00    +0.149 HD
ENDROOT
BRANCH   1   5
ATOM      5  C   UNL     1      -0.376  -3.181   2.097  0.00  0.00    +0.093 C 
BRANCH   5   6
ATOM      6  C   UNL     1      -0.748  -2.830   0.655  0.00  0.00    -0.017 C 
BRANCH   6  12
ATOM      7  C   UNL     1      -2.613  -4.403   0.078  0.00  0.00    +0.122 A 
ATOM      8  C   UNL     1      -3.096  -5.532  -0.568  0.00  0.00    +0.046 A 
ATOM      9  C   UNL     1      -2.244  -6.311  -1.325  0.00  0.00    +0.004 A 
ATOM     10  C   UNL     1      -0.909  -5.968  -1.439  0.00  0.00    +0.000 A 
ATOM     11  C   UNL     1      -0.424  -4.844  -0.795  0.00  0.00    +0.005 A 
ATOM     12  C   UNL     1      -1.275  -4.058  -0.042  0.00  0.00    -0.018 A 
BRANCH   7  14
ATOM     13  C   UNL     1      -4.815  -4.050   0.902  0.00  0.00    +0.277 C 
ATOM     14  O   UNL     1      -3.450  -3.634   0.823  0.00  0.00    -0.495 OA
ENDBRANCH   7  14
ENDBRANCH   6  12
BRANCH   6  15
ATOM     15  N   UNL     1       0.443  -2.339  -0.052  0.00  0.00    +0.385 N 
ATOM     16  C   UNL     1       0.073  -1.860  -1.409  0.00  0.00    -0.078 C 
ATOM     17  C   UNL     1       1.234  -0.902  -1.776  0.00  0.00    -0.020 C 
ATOM     18  C   UNL     1       1.551  -0.212  -0.429  0.00  0.00    -0.020 C 
ATOM     19  C   UNL     1       1.006  -1.165   0.650  0.00  0.00    -0.078 C 
ATOM     20  H   UNL     1       1.135  -3.070  -0.117  0.00  0.00    -0.081 HD
ENDBRANCH   6  15
ENDBRANCH   5   6
ENDBRANCH   1   5
BRANCH   2  21
ATOM     21  C   UNL     1       2.333  -5.624   3.256  0.00  0.00    +0.163 C 
BRANCH  21  22
ATOM     22  N   UNL     1       2.612  -6.052   4.629  0.00  0.00    -0.178 NA
ATOM     23  H   UNL     1       2.100  -6.775   5.025  0.00  0.00    +0.149 HD
BRANCH  22  24
ATOM     24  S   UNL     1       3.801  -5.303   5.505  0.00  0.00    +0.062 S 
ATOM     25  O   UNL     1       3.574  -3.905   5.385  0.00  0.00    -0.153 OA
ATOM     26  O   UNL     1       3.855  -5.960   6.763  0.00  0.00    -0.153 OA
BRANCH  24  27
ATOM     27  C   UNL     1       5.331  -5.635   4.697  0.00  0.00    +0.140 A 
ATOM     28  C   UNL     1       6.048  -4.602   4.122  0.00  0.00    +0.031 A 
ATOM     29  C   UNL     1       7.248  -4.863   3.488  0.00  0.00    +0.002 A 
ATOM     30  C   UNL     1       7.734  -6.156   3.429  0.00  0.00    +0.003 A 
ATOM     31  C   UNL     1       7.019  -7.190   4.003  0.00  0.00    +0.040 A 
ATOM     32  C   UNL     1       5.819  -6.929   4.643  0.00  0.00    +0.150 A 
ATOM     33  F   UNL     1       5.122  -7.939   5.209  0.00  0.00    -0.203 F 
ENDBRANCH  24  27
ENDBRANCH  22  24
ENDBRANCH  21  22
BRANCH  21  34
ATOM     34  C   UNL     1       1.973  -6.844   2.405  0.00  0.00    +0.040 C 
BRANCH  34  35
ATOM     35  C   UNL     1       3.182  -7.778   2.316  0.00  0.00    +0.071 C 
BRANCH  35  36
ATOM     36  S   UNL     1       2.806  -9.146   1.185  0.00  0.00    -0.164 S 
ATOM     37  C   UNL     1       4.318 -10.148   1.190  0.00  0.00    +0.084 C 
ENDBRANCH  35  36
ENDBRANCH  34  35
ENDBRANCH  21  34
ENDBRANCH   2  21
TORSDOF 12
