REMARK  Name = ZINC11439576
REMARK  8 active torsions:
REMARK  status: ('A' for Active; 'I' for Inactive)
REMARK    1  A    between atoms: C_5  and  C_7
REMARK    2  A    between atoms: C_7  and  O_9
REMARK    3  A    between atoms: O_9  and  C_10
REMARK    4  A    between atoms: C_10  and  C_11
REMARK    5  A    between atoms: N_13  and  C_14
REMARK    6  A    between atoms: C_14  and  C_15
REMARK    7  A    between atoms: C_18  and  S_21
REMARK    8  A    between atoms: S_21  and  N_24
REMARK                            x       y       z     vdW  Elec       q    Type
REMARK                         _______ _______ _______ _____ _____    ______ ____
ROOT
ATOM      1  C   UNL     1      -0.016   1.344   0.009  0.00  0.00    +0.251 C 
ATOM      2  O   UNL     1      -1.075   1.936   0.018  0.00  0.00    -0.272 OA
ATOM      3  N   UNL     1       0.002  -0.004   0.002  0.00  0.00    -0.308 N 
ATOM      4  H   UNL     1       0.849  -0.478  -0.009  0.00  0.00    +0.149 HD
ENDROOT
BRANCH   1   5
ATOM      5  C   UNL     1       1.278   2.115   0.001  0.00  0.00    +0.328 C 
BRANCH   5   6
ATOM      6  O   UNL     1       0.994   3.538   0.012  0.00  0.00    -0.452 OA
BRANCH   6   7
ATOM      7  C   UNL     1       2.051   4.374   0.006  0.00  0.00    +0.341 C 
ATOM      8  O   UNL     1       3.180   3.925  -0.007  0.00  0.00    -0.245 OA
BRANCH   7  13
ATOM      9  C   UNL     1       0.349   7.720   0.040  0.00  0.00    +0.001 A 
ATOM     10  C   UNL     1       1.437   8.576   0.035  0.00  0.00    +0.001 A 
ATOM     11  C   UNL     1       2.724   8.069   0.019  0.00  0.00    +0.015 A 
ATOM     12  C   UNL     1       2.931   6.704   0.010  0.00  0.00    +0.027 A 
ATOM     13  C   UNL     1       1.838   5.835   0.016  0.00  0.00    +0.072 A 
ATOM     14  C   UNL     1       0.541   6.355   0.025  0.00  0.00    +0.016 A 
ATOM     15  I   UNL     1       4.881   5.938  -0.013  0.00  0.00    -0.043 I 
ENDBRANCH   7  13
ENDBRANCH   6   7
ENDBRANCH   5   6
ENDBRANCH   1   5
BRANCH   3  16
ATOM     16  C   UNL     1      -1.256  -0.754   0.010  0.00  0.00    +0.139 C 
BRANCH  16  17
ATOM     17  C   UNL     1      -0.961  -2.232  -0.001  0.00  0.00    -0.030 A 
ATOM     18  C   UNL     1      -0.843  -2.904  -1.203  0.00  0.00    +0.007 A 
ATOM     19  C   UNL     1      -0.567  -4.258  -1.213  0.00  0.00    +0.029 A 
ATOM     20  C   UNL     1      -0.419  -4.942  -0.021  0.00  0.00    +0.105 A 
ATOM     21  C   UNL     1      -0.543  -4.271   1.181  0.00  0.00    +0.029 A 
ATOM     22  C   UNL     1      -0.814  -2.916   1.191  0.00  0.00    +0.007 A 
BRANCH  20  23
ATOM     23  S   UNL     1      -0.073  -6.670  -0.033  0.00  0.00    +0.056 S 
ATOM     24  O   UNL     1       0.534  -6.953  -1.286  0.00  0.00    -0.153 OA
ATOM     25  O   UNL     1       0.560  -6.966   1.204  0.00  0.00    -0.153 OA
BRANCH  23  26
ATOM     26  N   UNL     1      -1.528  -7.461  -0.022  0.00  0.00    -0.204 NA
ATOM     27  H   UNL     1      -1.610  -8.330  -0.446  0.00  0.00    +0.144 HD
ATOM     28  H   UNL     1      -2.297  -7.056   0.408  0.00  0.00    +0.144 HD
ENDBRANCH  23  26
ENDBRANCH  20  23
ENDBRANCH  16  17
ENDBRANCH   3  16
TORSDOF 8
