REMARK  Name = ZINC01302156
REMARK  10 active torsions:
REMARK  status: ('A' for Active; 'I' for Inactive)
REMARK    1  A    between atoms: C_1  and  C_2
REMARK    2  A    between atoms: C_2  and  C_3
REMARK    3  A    between atoms: C_2  and  C_4
REMARK    4  A    between atoms: C_2  and  C_5
REMARK    5  A    between atoms: C_14  and  N_24
REMARK    6  A    between atoms: C_16  and  S_18
REMARK    7  A    between atoms: S_18  and  C_19
REMARK    8  A    between atoms: C_19  and  C_20
REMARK    9  A    between atoms: C_20  and  O_22
REMARK   10  A    between atoms: O_22  and  C_23
REMARK                            x       y       z     vdW  Elec       q    Type
REMARK                         _______ _______ _______ _____ _____    ______ ____
ROOT
ATOM      1  C   UNL     1      -2.385   0.503   0.969  0.00  0.00    -0.000 C 
ATOM      2  C   UNL     1      -0.949   1.006   1.161  0.00  0.00    +0.009 C 
ATOM      3  C   UNL     1      -0.125   0.701  -0.090  0.00  0.00    +0.037 C 
ATOM      4  C   UNL     1      -0.856   1.251  -1.313  0.00  0.00    -0.025 A 
ATOM      5  C   UNL     1      -2.174   1.542  -1.252  0.00  0.00    -0.004 A 
ATOM      6  S   UNL     1      -2.596   2.142  -2.869  0.00  0.00    -0.073 S 
ATOM      7  C   UNL     1      -1.009   2.002  -3.625  0.00  0.00    +0.115 A 
ATOM      8  C   UNL     1      -0.193   1.488  -2.586  0.00  0.00    +0.051 A 
ATOM      9  C   UNL     1       1.179   1.260  -2.895  0.00  0.00    +0.129 A 
ATOM     10  N   UNL     1       1.554   1.555  -4.138  0.00  0.00    -0.207 NA
ATOM     11  C   UNL     1       0.734   2.035  -5.061  0.00  0.00    +0.191 A 
ATOM     12  N   UNL     1      -0.560   2.271  -4.835  0.00  0.00    -0.214 NA
ATOM     13  C   UNL     1      -3.083   1.390  -0.071  0.00  0.00    +0.046 C 
ENDROOT
BRANCH   1  15
ATOM     14  C   UNL     1      -4.576   0.099   2.101  0.00  0.00    +0.011 C 
ATOM     15  C   UNL     1      -3.138   0.582   2.299  0.00  0.00    -0.035 C 
ATOM     16  C   UNL     1      -2.440  -0.303   3.334  0.00  0.00    +0.011 C 
ATOM     17  C   UNL     1      -3.150   2.030   2.792  0.00  0.00    +0.011 C 
ENDBRANCH   1  15
BRANCH   9  18
ATOM     18  N   UNL     1       2.068   0.760  -1.961  0.00  0.00    -0.343 N 
ATOM     19  H   UNL     1       1.736   0.329  -1.158  0.00  0.00    +0.144 HD
ATOM     20  H   UNL     1       3.023   0.840  -2.109  0.00  0.00    +0.144 HD
ENDBRANCH   9  18
BRANCH  11  21
ATOM     21  S   UNL     1       1.383   2.377  -6.664  0.00  0.00    -0.075 S 
BRANCH  21  22
ATOM     22  C   UNL     1       3.109   1.892  -6.414  0.00  0.00    +0.197 C 
BRANCH  22  23
ATOM     23  C   UNL     1       3.880   2.105  -7.691  0.00  0.00    +0.317 C 
ATOM     24  O   UNL     1       3.320   2.540  -8.670  0.00  0.00    -0.250 OA
BRANCH  23  25
ATOM     25  O   UNL     1       5.189   1.811  -7.742  0.00  0.00    -0.467 OA
ATOM     26  C   UNL     1       5.868   2.042  -9.005  0.00  0.00    +0.280 C 
ENDBRANCH  23  25
ENDBRANCH  22  23
ENDBRANCH  21  22
ENDBRANCH  11  21
TORSDOF 6
