REMARK  Name = ZINC04574611
REMARK  7 active torsions:
REMARK  status: ('A' for Active; 'I' for Inactive)
REMARK    1  A    between atoms: C_1  and  C_2
REMARK    2  A    between atoms: C_3  and  C_27
REMARK    3  A    between atoms: C_4  and  C_20
REMARK    4  A    between atoms: C_9  and  C_11
REMARK    5  A    between atoms: C_14  and  O_17
REMARK    6  A    between atoms: O_17  and  C_18
REMARK    7  A    between atoms: C_23  and  O_26
REMARK                            x       y       z     vdW  Elec       q    Type
REMARK                         _______ _______ _______ _____ _____    ______ ____
ROOT
ATOM      1  C   UNL     1       0.181  -2.730  -0.251  0.00  0.00    +0.061 C 
ATOM      2  C   UNL     1      -1.163  -2.063  -0.106  0.00  0.00    +0.018 C 
ATOM      3  C   UNL     1      -1.208  -0.762   0.216  0.00  0.00    +0.060 C 
ATOM      4  C   UNL     1      -2.496   0.003   0.367  0.00  0.00    +0.177 C 
ATOM      5  N   UNL     1      -3.616  -0.934   0.408  0.00  0.00    -0.220 N 
ATOM      6  C   UNL     1      -3.508  -2.248   0.085  0.00  0.00    +0.219 A 
ATOM      7  N   UNL     1      -4.683  -2.797   0.218  0.00  0.00    -0.193 NA
ATOM      8  C   UNL     1      -5.568  -1.871   0.627  0.00  0.00    +0.183 A 
ATOM      9  N   UNL     1      -4.948  -0.715   0.756  0.00  0.00    -0.147 NA
ATOM     10  N   UNL     1      -2.299  -2.809  -0.303  0.00  0.00    -0.287 N 
ATOM     11  H   UNL     1      -2.258  -3.692  -0.701  0.00  0.00    +0.155 HD
ENDROOT
BRANCH   8  12
ATOM     12  C   UNL     1      -7.008  -2.112   0.891  0.00  0.00    +0.021 A 
ATOM     13  C   UNL     1      -7.824  -1.066   1.319  0.00  0.00    +0.015 A 
ATOM     14  C   UNL     1      -9.163  -1.292   1.558  0.00  0.00    +0.046 A 
ATOM     15  C   UNL     1      -9.697  -2.562   1.383  0.00  0.00    +0.120 A 
ATOM     16  C   UNL     1      -8.885  -3.607   0.963  0.00  0.00    +0.046 A 
ATOM     17  C   UNL     1      -7.546  -3.386   0.717  0.00  0.00    +0.015 A 
BRANCH  15  18
ATOM     18  O   UNL     1     -11.015  -2.782   1.624  0.00  0.00    -0.495 OA
ATOM     19  C   UNL     1     -11.792  -1.662   2.054  0.00  0.00    +0.277 C 
ENDBRANCH  15  18
ENDBRANCH   8  12
BRANCH   4  20
ATOM     20  C   UNL     1      -2.665   0.938  -0.802  0.00  0.00    -0.018 A 
ATOM     21  C   UNL     1      -2.720   0.433  -2.088  0.00  0.00    +0.009 A 
ATOM     22  C   UNL     1      -2.881   1.288  -3.161  0.00  0.00    +0.046 A 
ATOM     23  C   UNL     1      -2.976   2.656  -2.948  0.00  0.00    +0.117 A 
ATOM     24  C   UNL     1      -2.915   3.161  -1.657  0.00  0.00    +0.046 A 
ATOM     25  C   UNL     1      -2.760   2.301  -0.587  0.00  0.00    +0.009 A 
BRANCH  23  26
ATOM     26  O   UNL     1      -3.127   3.500  -4.002  0.00  0.00    -0.507 OA
ATOM     27  H   UNL     1      -2.294   3.815  -4.377  0.00  0.00    +0.292 HD
ENDBRANCH  23  26
ENDBRANCH   4  20
BRANCH   3  28
ATOM     28  C   UNL     1       0.012  -0.074   0.417  0.00  0.00    +0.241 C 
ATOM     29  O   UNL     1       0.428   0.109   1.546  0.00  0.00    -0.271 OA
ATOM     30  N   UNL     1       0.713   0.378  -0.642  0.00  0.00    -0.325 N 
ATOM     31  H   UNL     1       1.549   0.849  -0.504  0.00  0.00    +0.145 HD
ATOM     32  H   UNL     1       0.383   0.228  -1.542  0.00  0.00    +0.145 HD
ENDBRANCH   3  28
TORSDOF 5
