REMARK  Name = ZINC53095933
REMARK  11 active torsions:
REMARK  status: ('A' for Active; 'I' for Inactive)
REMARK    1  A    between atoms: C_1  and  C_2
REMARK    2  A    between atoms: C_2  and  N_3
REMARK    3  A    between atoms: N_3  and  C_4
REMARK    4  A    between atoms: N_3  and  C_6
REMARK    5  A    between atoms: C_4  and  C_5
REMARK    6  A    between atoms: C_6  and  C_8
REMARK    7  A    between atoms: C_6  and  C_24
REMARK    8  A    between atoms: C_8  and  N_9
REMARK    9  A    between atoms: C_10  and  C_12
REMARK   10  A    between atoms: C_12  and  N_13
REMARK   11  A    between atoms: C_17  and  C_19
REMARK                            x       y       z     vdW  Elec       q    Type
REMARK                         _______ _______ _______ _____ _____    ______ ____
ROOT
ATOM      1  N   UNL     1       0.593  -1.354   0.667  0.00  0.00    -0.318 N 
ATOM      2  C   UNL     1       1.542  -1.497   1.614  0.00  0.00    +0.196 C 
ATOM      3  O   UNL     1       1.414  -2.337   2.479  0.00  0.00    -0.278 OA
ATOM      4  H   UNL     1       0.696  -0.681  -0.024  0.00  0.00    +0.149 HD
ENDROOT
BRANCH   1   5
ATOM      5  C   UNL     1      -0.593  -2.213   0.683  0.00  0.00    +0.096 C 
BRANCH   5   6
ATOM      6  C   UNL     1      -1.449  -1.924  -0.552  0.00  0.00    +0.016 C 
BRANCH   6   7
ATOM      7  C   UNL     1      -2.723  -2.726  -0.479  0.00  0.00    +0.093 A 
ATOM      8  C   UNL     1      -2.966  -3.878  -1.129  0.00  0.00    +0.043 A 
ATOM      9  C   UNL     1      -4.274  -4.280  -0.774  0.00  0.00    +0.041 A 
ATOM     10  C   UNL     1      -4.752  -3.350   0.071  0.00  0.00    +0.195 A 
ATOM     11  O   UNL     1      -3.806  -2.414   0.251  0.00  0.00    -0.469 OA
ENDBRANCH   6   7
BRANCH   6  12
ATOM     12  N   UNL     1      -1.773  -0.492  -0.598  0.00  0.00    +0.387 N 
ATOM     13  H   UNL     1      -0.926   0.040  -0.730  0.00  0.00    -0.081 HD
BRANCH  12  15
ATOM     14  C   UNL     1      -1.975  -0.506  -3.039  0.00  0.00    -0.017 C 
ATOM     15  C   UNL     1      -2.692  -0.234  -1.715  0.00  0.00    -0.081 C 
ENDBRANCH  12  15
BRANCH  12  16
ATOM     16  C   UNL     1      -2.412  -0.093   0.663  0.00  0.00    -0.081 C 
ATOM     17  C   UNL     1      -2.608   1.424   0.678  0.00  0.00    -0.017 C 
ENDBRANCH  12  16
ENDBRANCH   6  12
ENDBRANCH   5   6
ENDBRANCH   1   5
BRANCH   2  18
ATOM     18  C   UNL     1       2.762  -0.613   1.597  0.00  0.00    +0.019 C 
BRANCH  18  19
ATOM     19  N   UNL     1       3.637  -0.965   2.724  0.00  0.00    +0.390 N 
ATOM     20  C   UNL     1       2.975  -0.610   3.998  0.00  0.00    -0.077 C 
ATOM     21  C   UNL     1       4.123  -0.124   4.918  0.00  0.00    -0.020 C 
ATOM     22  C   UNL     1       5.033   0.630   3.912  0.00  0.00    -0.012 C 
ATOM     23  C   UNL     1       4.901  -0.211   2.625  0.00  0.00    -0.030 C 
ATOM     24  H   UNL     1       3.830  -1.955   2.708  0.00  0.00    -0.080 HD
BRANCH  23  25
ATOM     25  C   UNL     1       4.864   0.696   1.422  0.00  0.00    -0.024 A 
ATOM     26  C   UNL     1       5.635   0.667   0.308  0.00  0.00    +0.009 A 
ATOM     27  C   UNL     1       5.421   1.609  -0.681  0.00  0.00    +0.008 A 
ATOM     28  C   UNL     1       4.446   2.534  -0.506  0.00  0.00    +0.045 A 
ATOM     29  S   UNL     1       3.789   2.082   1.091  0.00  0.00    -0.103 S 
ENDBRANCH  23  25
ENDBRANCH  18  19
ENDBRANCH   2  18
TORSDOF 9
