REMARK  Name = ZINC62281411
REMARK  7 active torsions:
REMARK  status: ('A' for Active; 'I' for Inactive)
REMARK    1  A    between atoms: C_3  and  O_25
REMARK    2  A    between atoms: C_6  and  C_7
REMARK    3  A    between atoms: C_8  and  C_9
REMARK    4  A    between atoms: N_15  and  C_18
REMARK    5  A    between atoms: C_18  and  C_19
REMARK    6  A    between atoms: O_25  and  C_26
REMARK    7  A    between atoms: C_26  and  C_27
REMARK                            x       y       z     vdW  Elec       q    Type
REMARK                         _______ _______ _______ _____ _____    ______ ____
ROOT
ATOM      1  C   UNL     1      -2.914  -3.158  -0.390  0.00  0.00    +0.239 C 
ATOM      2  O   UNL     1      -1.920  -2.494  -0.618  0.00  0.00    -0.271 OA
ATOM      3  N   UNL     1      -2.804  -4.483  -0.167  0.00  0.00    -0.300 N 
ATOM      4  C   UNL     1      -1.456  -5.081  -0.087  0.00  0.00    +0.106 C 
ATOM      5  C   UNL     1      -1.376  -6.115   1.051  0.00  0.00    +0.000 C 
ATOM      6  C   UNL     1      -2.141  -5.602   2.251  0.00  0.00    -0.077 C 
ATOM      7  N   UNL     1      -3.509  -6.115   2.205  0.00  0.00    +0.381 N 
ATOM      8  C   UNL     1      -4.419  -5.319   1.476  0.00  0.00    -0.060 C 
ATOM      9  C   UNL     1      -4.011  -5.268  -0.010  0.00  0.00    +0.089 C 
ATOM     10  H   UNL     1      -3.490  -7.036   1.793  0.00  0.00    -0.082 HD
ENDROOT
BRANCH   1  12
ATOM     11  C   UNL     1      -4.331  -1.178  -0.480  0.00  0.00    +0.013 C 
ATOM     12  C   UNL     1      -4.229  -2.518  -0.356  0.00  0.00    +0.068 C 
BRANCH  11  18
ATOM     13  C   UNL     1      -5.760   0.855  -0.574  0.00  0.00    +0.011 A 
ATOM     14  C   UNL     1      -7.000   1.452  -0.542  0.00  0.00    +0.046 A 
ATOM     15  C   UNL     1      -8.144   0.677  -0.383  0.00  0.00    +0.121 A 
ATOM     16  C   UNL     1      -8.042  -0.703  -0.255  0.00  0.00    +0.046 A 
ATOM     17  C   UNL     1      -6.807  -1.310  -0.286  0.00  0.00    +0.011 A 
ATOM     18  C   UNL     1      -5.652  -0.535  -0.446  0.00  0.00    -0.025 A 
BRANCH  15  19
ATOM     19  O   UNL     1      -9.364   1.271  -0.353  0.00  0.00    -0.483 OA
BRANCH  19  20
ATOM     20  C   UNL     1     -10.497   0.417  -0.187  0.00  0.00    +0.324 C 
BRANCH  20  21
ATOM     21  C   UNL     1     -11.755   1.247  -0.176  0.00  0.00    +0.248 C 
ATOM     22  O   UNL     1     -11.688   2.452  -0.299  0.00  0.00    -0.272 OA
ATOM     23  N   UNL     1     -12.955   0.650  -0.031  0.00  0.00    -0.327 N 
ATOM     24  H   UNL     1     -13.009  -0.313   0.067  0.00  0.00    +0.145 HD
ATOM     25  H   UNL     1     -13.764   1.185  -0.024  0.00  0.00    +0.145 HD
ENDBRANCH  20  21
ENDBRANCH  19  20
ENDBRANCH  15  19
ENDBRANCH  11  18
ENDBRANCH   1  12
BRANCH   7  26
ATOM     26  C   UNL     1      -4.003  -6.241   3.583  0.00  0.00    -0.075 C 
BRANCH  26  27
ATOM     27  C   UNL     1      -3.213  -7.330   4.311  0.00  0.00    -0.028 C 
ATOM     28  C   UNL     1      -3.468  -8.681   3.639  0.00  0.00    +0.002 C 
ATOM     29  C   UNL     1      -2.678  -9.770   4.367  0.00  0.00    +0.000 C 
ATOM     30  C   UNL     1      -3.127  -9.835   5.828  0.00  0.00    +0.000 C 
ATOM     31  C   UNL     1      -2.872  -8.485   6.500  0.00  0.00    +0.000 C 
ATOM     32  C   UNL     1      -3.662  -7.395   5.772  0.00  0.00    +0.002 C 
ENDBRANCH  26  27
ENDBRANCH   7  26
TORSDOF 7
