REMARK  Name = ZINC25759091
REMARK  4 active torsions:
REMARK  status: ('A' for Active; 'I' for Inactive)
REMARK    1  A    between atoms: C_1  and  C_2
REMARK    2  A    between atoms: C_7  and  N_8
REMARK    3  A    between atoms: C_11  and  C_21
REMARK    4  A    between atoms: C_14  and  C_17
REMARK                            x       y       z     vdW  Elec       q    Type
REMARK                         _______ _______ _______ _____ _____    ______ ____
ROOT
ATOM      1  C   UNL     1       1.254   3.633   0.208  0.00  0.00    +0.046 C 
ATOM      2  C   UNL     1       1.236   2.127   0.174  0.00  0.00    -0.017 A 
ATOM      3  C   UNL     1       2.392   1.428  -0.114  0.00  0.00    +0.051 A 
ATOM      4  C   UNL     1       2.376   0.041  -0.145  0.00  0.00    +0.130 A 
ATOM      5  C   UNL     1       1.196  -0.641   0.112  0.00  0.00    +0.029 A 
ATOM      6  C   UNL     1       0.042   0.062   0.400  0.00  0.00    +0.043 A 
ATOM      7  C   UNL     1       0.061   1.444   0.432  0.00  0.00    +0.130 A 
ATOM      8  C   UNL     1       1.163  -2.148   0.077  0.00  0.00    +0.207 C 
ATOM      9  O   UNL     1       2.500  -2.653   0.133  0.00  0.00    -0.326 OA
ATOM     10  C   UNL     1       3.380  -2.012  -0.799  0.00  0.00    +0.360 C 
ATOM     11  O   UNL     1       3.520  -0.638  -0.425  0.00  0.00    -0.459 OA
ENDROOT
BRANCH  10  12
ATOM     12  C   UNL     1       4.749  -2.695  -0.765  0.00  0.00    +0.252 C 
ATOM     13 CL   UNL     1       4.565  -4.432  -1.212  0.00  0.00    -0.077 Cl
ATOM     14 CL   UNL     1       5.853  -1.886  -1.939  0.00  0.00    -0.077 Cl
ATOM     15 CL   UNL     1       5.442  -2.571   0.895  0.00  0.00    -0.077 Cl
ENDBRANCH  10  12
BRANCH   8  16
ATOM     16  C   UNL     1       0.370  -2.670   1.277  0.00  0.00    +0.221 C 
ATOM     17 CL   UNL     1      -1.367  -2.222   1.090  0.00  0.00    -0.080 Cl
ATOM     18 CL   UNL     1       0.522  -4.464   1.364  0.00  0.00    -0.080 Cl
ATOM     19 CL   UNL     1       1.019  -1.937   2.791  0.00  0.00    -0.080 Cl
ENDBRANCH   8  16
BRANCH   7  20
ATOM     20  N   UNL     1      -1.178   2.194   0.736  0.00  0.00    +0.057 N 
ATOM     21  O   UNL     1      -2.237   1.602   0.842  0.00  0.00    -0.126 OA
ATOM     22  O   UNL     1      -1.139   3.403   0.879  0.00  0.00    -0.126 OA
ENDBRANCH   7  20
TORSDOF 3
