REMARK  Name = ZINC08644922
REMARK  8 active torsions:
REMARK  status: ('A' for Active; 'I' for Inactive)
REMARK    1  A    between atoms: C_1  and  C_2
REMARK    2  A    between atoms: C_8  and  N_10
REMARK    3  A    between atoms: C_11  and  C_13
REMARK    4  A    between atoms: C_13  and  C_15
REMARK    5  A    between atoms: C_13  and  S_16
REMARK    6  A    between atoms: S_16  and  C_17
REMARK    7  A    between atoms: C_20  and  C_23
REMARK    8  A    between atoms: N_21  and  N_22
REMARK                            x       y       z     vdW  Elec       q    Type
REMARK                         _______ _______ _______ _____ _____    ______ ____
ROOT
ATOM      1  C   UNL     1      -3.198   7.553  -2.019  0.00  0.00    +0.209 A 
ATOM      2  N   UNL     1      -2.107   8.143  -1.585  0.00  0.00    -0.121 NA
ATOM      3  N   UNL     1      -2.307   9.406  -1.458  0.00  0.00    -0.127 NA
ATOM      4  C   UNL     1      -3.539   9.701  -1.804  0.00  0.00    +0.183 A 
ATOM      5  N   UNL     1      -4.146   8.524  -2.179  0.00  0.00    -0.224 N 
ENDROOT
BRANCH   4   6
ATOM      6  C   UNL     1      -4.155  11.044  -1.798  0.00  0.00    +0.039 A 
ATOM      7  C   UNL     1      -5.420  11.233  -1.237  0.00  0.00    +0.014 A 
ATOM      8  C   UNL     1      -5.988  12.489  -1.231  0.00  0.00    +0.021 A 
ATOM      9  C   UNL     1      -5.311  13.562  -1.788  0.00  0.00    +0.042 A 
ATOM     10  C   UNL     1      -4.059  13.382  -2.349  0.00  0.00    +0.040 A 
ATOM     11  C   UNL     1      -3.478  12.129  -2.358  0.00  0.00    +0.053 A 
ATOM     12 CL   UNL     1      -1.908  11.904  -3.064  0.00  0.00    -0.083 Cl
ATOM     13 CL   UNL     1      -6.037  15.139  -1.781  0.00  0.00    -0.083 Cl
ENDBRANCH   4   6
BRANCH   5  14
ATOM     14  N   UNL     1      -5.429   8.361  -2.617  0.00  0.00    -0.295 N 
ATOM     15  H   UNL     1      -6.067   8.269  -1.841  0.00  0.00    +0.163 HD
ATOM     16  H   UNL     1      -5.704   9.119  -3.223  0.00  0.00    +0.163 HD
ENDBRANCH   5  14
BRANCH   1  17
ATOM     17  S   UNL     1      -3.399   5.833  -2.342  0.00  0.00    -0.072 S 
BRANCH  17  18
ATOM     18  C   UNL     1      -1.746   5.237  -1.908  0.00  0.00    +0.137 C 
ATOM     19  C   UNL     1      -0.721   5.823  -2.880  0.00  0.00    +0.029 C 
BRANCH  18  21
ATOM     20  N   UNL     1      -0.821   3.033  -1.269  0.00  0.00    -0.311 N 
ATOM     21  C   UNL     1      -1.717   3.732  -1.994  0.00  0.00    +0.226 C 
ATOM     22  O   UNL     1      -2.499   3.151  -2.716  0.00  0.00    -0.275 OA
ATOM     23  H   UNL     1      -0.196   3.499  -0.692  0.00  0.00    +0.149 HD
BRANCH  20  30
ATOM     24  C   UNL     1      -1.048   1.424   1.128  0.00  0.00    +0.009 C 
ATOM     25  C   UNL     1      -0.193   0.998  -0.067  0.00  0.00    +0.006 C 
ATOM     26  C   UNL     1       1.232   1.527   0.112  0.00  0.00    +0.005 C 
ATOM     27  C   UNL     1       2.087   1.101  -1.083  0.00  0.00    +0.000 C 
ATOM     28  C   UNL     1       1.488   1.674  -2.369  0.00  0.00    +0.002 C 
ATOM     29  C   UNL     1       0.063   1.145  -2.547  0.00  0.00    +0.022 C 
ATOM     30  C   UNL     1      -0.792   1.571  -1.353  0.00  0.00    +0.076 C 
ENDBRANCH  20  30
ENDBRANCH  18  21
ENDBRANCH  17  18
ENDBRANCH   1  17
TORSDOF 6
