REMARK  Name = ZINC02586235
REMARK  4 active torsions:
REMARK  status: ('A' for Active; 'I' for Inactive)
REMARK    1  A    between atoms: C_1  and  C_2
REMARK    2  A    between atoms: C_5  and  C_8
REMARK    3  A    between atoms: C_8  and  C_10
REMARK    4  A    between atoms: C_11  and  N_24
REMARK                            x       y       z     vdW  Elec       q    Type
REMARK                         _______ _______ _______ _____ _____    ______ ____
ROOT
ATOM      1  C   UNL     1       2.411   1.242   0.013  0.00  0.00    +0.083 A 
ATOM      2  C   UNL     1       1.294   2.053   0.063  0.00  0.00    +0.052 A 
ATOM      3  C   UNL     1      -0.016   1.419   0.095  0.00  0.00    +0.030 A 
ATOM      4  C   UNL     1      -1.288   2.028   0.152  0.00  0.00    +0.025 A 
ATOM      5  C   UNL     1      -2.422   1.219   0.170  0.00  0.00    +0.039 A 
ATOM      6  C   UNL     1      -2.298  -0.178   0.136  0.00  0.00    +0.053 A 
ATOM      7  N   UNL     1      -1.098  -0.724   0.091  0.00  0.00    -0.244 NA
ATOM      8  C   UNL     1       0.000   0.003   0.070  0.00  0.00    +0.111 A 
ATOM      9  S   UNL     1       1.729  -0.404   0.008  0.00  0.00    -0.064 S 
ATOM     10  C   UNL     1      -3.507  -1.075   0.143  0.00  0.00    +0.056 C 
ATOM     11  C   UNL     1      -4.719  -0.364   0.738  0.00  0.00    +0.014 C 
ATOM     12  C   UNL     1      -4.959   0.951  -0.014  0.00  0.00    +0.080 C 
ATOM     13  C   UNL     1      -3.757   1.840   0.233  0.00  0.00    +0.165 C 
ATOM     14  O   UNL     1      -3.889   3.021   0.475  0.00  0.00    -0.292 OA
ENDROOT
BRANCH   2  15
ATOM     15  N   UNL     1       1.416   3.432   0.081  0.00  0.00    -0.356 N 
ATOM     16  H   UNL     1       0.623   3.989   0.115  0.00  0.00    +0.142 HD
ATOM     17  H   UNL     1       2.296   3.841   0.059  0.00  0.00    +0.142 HD
ENDBRANCH   2  15
BRANCH   1  18
ATOM     18  C   UNL     1       3.772   1.627  -0.024  0.00  0.00    +0.202 C 
ATOM     19  O   UNL     1       4.069   2.803  -0.137  0.00  0.00    -0.286 OA
BRANCH  18  24
ATOM     20  C   UNL     1       7.902  -2.364   0.354  0.00  0.00    +0.044 C 
ATOM     21  C   UNL     1       6.821  -1.319   0.255  0.00  0.00    -0.050 A 
ATOM     22  C   UNL     1       7.091  -0.103  -0.347  0.00  0.00    +0.004 A 
ATOM     23  C   UNL     1       6.105   0.858  -0.441  0.00  0.00    +0.012 A 
ATOM     24  C   UNL     1       4.833   0.601   0.073  0.00  0.00    +0.023 A 
ATOM     25  C   UNL     1       4.569  -0.626   0.684  0.00  0.00    +0.012 A 
ATOM     26  C   UNL     1       5.561  -1.580   0.765  0.00  0.00    +0.004 A 
ENDBRANCH  18  24
ENDBRANCH   1  18
TORSDOF 3
