REMARK  Name = ZINC00647691
REMARK  9 active torsions:
REMARK  status: ('A' for Active; 'I' for Inactive)
REMARK    1  A    between atoms: C_1  and  C_2
REMARK    2  A    between atoms: C_2  and  O_3
REMARK    3  A    between atoms: O_3  and  C_4
REMARK    4  A    between atoms: C_6  and  C_11
REMARK    5  A    between atoms: C_9  and  O_10
REMARK    6  A    between atoms: C_13  and  C_26
REMARK    7  A    between atoms: C_14  and  N_25
REMARK    8  A    between atoms: C_21  and  C_23
REMARK    9  A    between atoms: C_21  and  C_24
REMARK                            x       y       z     vdW  Elec       q    Type
REMARK                         _______ _______ _______ _____ _____    ______ ____
ROOT
ATOM      1  C   UNL     1       2.543  -2.800  -0.037  0.00  0.00    +0.101 C 
ATOM      2  C   UNL     1       2.627  -3.644  -1.278  0.00  0.00    +0.098 C 
ATOM      3  C   UNL     1       2.399  -4.979  -1.215  0.00  0.00    +0.198 C 
ATOM      4  O   UNL     1       2.090  -5.582  -0.057  0.00  0.00    -0.445 OA
ATOM      5  C   UNL     1       2.413  -4.996   1.111  0.00  0.00    +0.115 C 
ATOM      6  C   UNL     1       2.643  -3.673   1.191  0.00  0.00    +0.046 C 
ATOM      7  C   UNL     1       2.984  -3.061   2.413  0.00  0.00    +0.164 C 
ATOM      8  O   UNL     1       3.164  -1.860   2.449  0.00  0.00    -0.292 OA
ATOM      9  C   UNL     1       3.129  -3.868   3.674  0.00  0.00    +0.086 C 
ATOM     10  C   UNL     1       3.549  -5.295   3.303  0.00  0.00    -0.021 C 
ATOM     11  C   UNL     1       2.509  -5.870   2.340  0.00  0.00    +0.081 C 
ATOM     12  C   UNL     1       4.919  -5.267   2.623  0.00  0.00    +0.012 C 
ATOM     13  C   UNL     1       3.618  -6.156   4.566  0.00  0.00    +0.012 C 
ENDROOT
BRANCH   1  16
ATOM     14  C   UNL     1       0.002  -0.004   0.002  0.00  0.00    +0.162 A 
ATOM     15  C   UNL     1       1.210  -0.682  -0.013  0.00  0.00    +0.054 A 
ATOM     16  C   UNL     1       1.227  -2.064  -0.021  0.00  0.00    -0.031 A 
ATOM     17  C   UNL     1       0.041  -2.773  -0.013  0.00  0.00    +0.008 A 
ATOM     18  C   UNL     1      -1.168  -2.103   0.002  0.00  0.00    +0.049 A 
ATOM     19  C   UNL     1      -1.192  -0.718   0.015  0.00  0.00    +0.158 A 
BRANCH  19  20
ATOM     20  O   UNL     1      -2.381  -0.057   0.036  0.00  0.00    -0.503 OA
ATOM     21  H   UNL     1      -2.737   0.139  -0.842  0.00  0.00    +0.292 HD
ENDBRANCH  19  20
BRANCH  14  22
ATOM     22  O   UNL     1      -0.016   1.356   0.009  0.00  0.00    -0.489 OA
BRANCH  22  24
ATOM     23  C   UNL     1       1.027   3.536   0.011  0.00  0.00    +0.048 C 
ATOM     24  C   UNL     1       1.248   2.022   0.001  0.00  0.00    +0.226 C 
ENDBRANCH  22  24
ENDBRANCH  14  22
ENDBRANCH   1  16
BRANCH   3  25
ATOM     25  N   UNL     1       2.487  -5.729  -2.361  0.00  0.00    -0.328 N 
ATOM     26  H   UNL     1       2.327  -6.686  -2.328  0.00  0.00    +0.145 HD
ATOM     27  H   UNL     1       2.710  -5.304  -3.204  0.00  0.00    +0.145 HD
ENDBRANCH   3  25
BRANCH   2  28
ATOM     28  C   UNL     1       2.948  -3.034  -2.533  0.00  0.00    +0.101 C 
ATOM     29  N   UNL     1       3.203  -2.551  -3.529  0.00  0.00    -0.191 NA
ENDBRANCH   2  28
TORSDOF 6
