REMARK  Name = ZINC39447765
REMARK  8 active torsions:
REMARK  status: ('A' for Active; 'I' for Inactive)
REMARK    1  A    between atoms: C_10  and  C_11
REMARK    2  A    between atoms: C_15  and  C_17
REMARK    3  A    between atoms: C_17  and  N_18
REMARK    4  A    between atoms: N_18  and  C_19
REMARK    5  A    between atoms: C_19  and  C_20
REMARK    6  A    between atoms: C_20  and  C_21
REMARK    7  A    between atoms: C_24  and  S_27
REMARK    8  A    between atoms: S_27  and  N_30
REMARK                            x       y       z     vdW  Elec       q    Type
REMARK                         _______ _______ _______ _____ _____    ______ ____
ROOT
ATOM      1  N   UNL     1       7.913  -1.985  -1.259  0.00  0.00    +0.380 N 
ATOM      2  H   UNL     1       8.634  -1.284  -1.188  0.00  0.00    -0.086 HD
ATOM      3  H   UNL     1       7.949  -2.587  -0.450  0.00  0.00    -0.086 HD
ENDROOT
BRANCH   1   4
ATOM      4  C   UNL     1       6.599  -1.332  -1.326  0.00  0.00    -0.067 C 
BRANCH   4   9
ATOM      5  C   UNL     1       4.981   0.088  -0.045  0.00  0.00    +0.078 C 
ATOM      6  N   UNL     1       5.142   1.385  -0.034  0.00  0.00    -0.153 NA
ATOM      7  N   UNL     1       6.484   1.748  -0.047  0.00  0.00    -0.161 NA
ATOM      8  C   UNL     1       7.274   0.723  -0.067  0.00  0.00    +0.115 C 
ATOM      9  C   UNL     1       6.379  -0.500  -0.061  0.00  0.00    +0.066 C 
BRANCH   5  19
ATOM     10  C   UNL     1      -0.016   1.357   0.009  0.00  0.00    +0.001 A 
ATOM     11  C   UNL     1       1.168   2.091   0.002  0.00  0.00    +0.001 A 
ATOM     12  C   UNL     1       2.379   1.465  -0.013  0.00  0.00    +0.009 A 
ATOM     13  C   UNL     1       2.435   0.067  -0.021  0.00  0.00    -0.009 A 
ATOM     14  C   UNL     1       1.233  -0.682  -0.013  0.00  0.00    -0.017 A 
ATOM     15  C   UNL     1       0.002  -0.004   0.002  0.00  0.00    +0.008 A 
ATOM     16  C   UNL     1       1.294  -2.086  -0.020  0.00  0.00    +0.008 A 
ATOM     17  C   UNL     1       2.494  -2.730  -0.033  0.00  0.00    +0.001 A 
ATOM     18  C   UNL     1       3.696  -2.039  -0.041  0.00  0.00    +0.010 A 
ATOM     19  C   UNL     1       3.712  -0.647  -0.036  0.00  0.00    +0.006 A 
ENDBRANCH   5  19
ENDBRANCH   4   9
ENDBRANCH   1   4
BRANCH   1  20
ATOM     20  C   UNL     1       8.124  -2.784  -2.474  0.00  0.00    -0.078 C 
BRANCH  20  21
ATOM     21  C   UNL     1       9.493  -3.465  -2.404  0.00  0.00    +0.016 C 
BRANCH  21  22
ATOM     22  C   UNL     1       9.710  -4.285  -3.650  0.00  0.00    -0.049 A 
ATOM     23  C   UNL     1       9.306  -5.606  -3.687  0.00  0.00    +0.005 A 
ATOM     24  C   UNL     1       9.505  -6.358  -4.830  0.00  0.00    +0.029 A 
ATOM     25  C   UNL     1      10.108  -5.788  -5.936  0.00  0.00    +0.105 A 
ATOM     26  C   UNL     1      10.511  -4.467  -5.899  0.00  0.00    +0.029 A 
ATOM     27  C   UNL     1      10.308  -3.713  -4.758  0.00  0.00    +0.005 A 
BRANCH  25  28
ATOM     28  S   UNL     1      10.362  -6.747  -7.392  0.00  0.00    +0.056 S 
ATOM     29  O   UNL     1      11.437  -6.140  -8.095  0.00  0.00    -0.153 OA
ATOM     30  O   UNL     1      10.392  -8.107  -6.982  0.00  0.00    -0.153 OA
BRANCH  28  31
ATOM     31  N   UNL     1       9.016  -6.567  -8.339  0.00  0.00    -0.204 NA
ATOM     32  H   UNL     1       9.091  -6.621  -9.304  0.00  0.00    +0.144 HD
ATOM     33  H   UNL     1       8.152  -6.407  -7.928  0.00  0.00    +0.144 HD
ENDBRANCH  28  31
ENDBRANCH  25  28
ENDBRANCH  21  22
ENDBRANCH  20  21
ENDBRANCH   1  20
TORSDOF 8
