REMARK  Name = ZINC41015530
REMARK  3 active torsions:
REMARK  status: ('A' for Active; 'I' for Inactive)
REMARK    1  A    between atoms: C_8  and  N_13
REMARK    2  A    between atoms: N_13  and  C_14
REMARK    3  A    between atoms: C_14  and  C_15
REMARK                            x       y       z     vdW  Elec       q    Type
REMARK                         _______ _______ _______ _____ _____    ______ ____
ROOT
ATOM      1  C   UNL     1       0.101   1.555   0.240  0.00  0.00    +0.019 A 
ATOM      2  C   UNL     1       1.317   2.201   0.159  0.00  0.00    +0.047 A 
ATOM      3  C   UNL     1       2.495   1.468   0.066  0.00  0.00    +0.122 A 
ATOM      4  C   UNL     1       2.443   0.085   0.053  0.00  0.00    -0.019 A 
ATOM      5  C   UNL     1       1.220  -0.559   0.137  0.00  0.00    +0.020 A 
ATOM      6  C   UNL     1       0.051   0.172   0.230  0.00  0.00    +0.018 A 
ATOM      7 BR   UNL     1      -1.614  -0.716   0.343  0.00  0.00    -0.050 Br
ATOM      8  C   UNL     1       3.695  -0.748  -0.059  0.00  0.00    -0.034 C 
ATOM      9  C   UNL     1       4.915   0.106   0.298  0.00  0.00    +0.030 C 
ATOM     10  C   UNL     1       4.820   1.428  -0.473  0.00  0.00    +0.228 C 
ATOM     11  O   UNL     1       3.673   2.140  -0.007  0.00  0.00    -0.492 OA
ENDROOT
BRANCH   8  12
ATOM     12  N   UNL     1       3.609  -1.886   0.866  0.00  0.00    +0.387 N 
ATOM     13  H   UNL     1       3.605  -1.548   1.816  0.00  0.00    -0.084 HD
ATOM     14  H   UNL     1       2.759  -2.400   0.688  0.00  0.00    -0.084 HD
BRANCH  12  15
ATOM     15  C   UNL     1       4.766  -2.769   0.664  0.00  0.00    -0.024 C 
BRANCH  15  16
ATOM     16  C   UNL     1       4.614  -4.000   1.520  0.00  0.00    +0.046 A 
ATOM     17  C   UNL     1       4.079  -5.225   1.108  0.00  0.00    +0.042 A 
ATOM     18  C   UNL     1       4.116  -6.071   2.163  0.00  0.00    +0.105 A 
ATOM     19  N   UNL     1       4.655  -5.406   3.206  0.00  0.00    -0.285 N 
ATOM     20  H   UNL     1       4.805  -5.763   4.095  0.00  0.00    +0.188 HD
ATOM     21  N   UNL     1       4.964  -4.109   2.776  0.00  0.00    -0.181 NA
ENDBRANCH  15  16
ENDBRANCH  12  15
ENDBRANCH   8  12
TORSDOF 3
