REMARK  Name = ZINC12618472
REMARK  5 active torsions:
REMARK  status: ('A' for Active; 'I' for Inactive)
REMARK    1  A    between atoms: C_9  and  C_11
REMARK    2  A    between atoms: C_11  and  N_12
REMARK    3  A    between atoms: C_18  and  C_20
REMARK    4  A    between atoms: C_20  and  C_21
REMARK    5  A    between atoms: C_21  and  N_22
REMARK                            x       y       z     vdW  Elec       q    Type
REMARK                         _______ _______ _______ _____ _____    ______ ____
ROOT
ATOM      1  N   UNL     1       0.025  -0.150  -4.819  0.00  0.00    -0.294 NA
ATOM      2  C   UNL     1      -1.242   0.551  -4.568  0.00  0.00    +0.104 C 
ATOM      3  C   UNL     1      -0.985   1.749  -3.648  0.00  0.00    +0.123 C 
ATOM      4  N   UNL     1      -0.288   1.272  -2.443  0.00  0.00    -0.299 N 
ATOM      5  C   UNL     1       0.919   0.450  -2.616  0.00  0.00    +0.123 C 
ATOM      6  C   UNL     1       0.584  -0.702  -3.577  0.00  0.00    +0.104 C 
ATOM      7  C   UNL     1      -0.742   1.585  -1.213  0.00  0.00    +0.217 C 
ATOM      8  O   UNL     1      -1.736   2.268  -1.088  0.00  0.00    -0.276 OA
ENDROOT
BRANCH   1   9
ATOM      9  C   UNL     1      -0.147  -1.201  -5.831  0.00  0.00    +0.140 C 
BRANCH   9  18
ATOM     10  C   UNL     1       4.949  -2.985  -7.441  0.00  0.00    +0.104 A 
ATOM     11  C   UNL     1       5.707  -2.080  -8.058  0.00  0.00    +0.067 A 
ATOM     12  S   UNL     1       4.638  -0.649  -8.062  0.00  0.00    -0.058 S 
ATOM     13  C   UNL     1       3.253  -1.392  -7.228  0.00  0.00    +0.180 A 
ATOM     14  N   UNL     1       3.685  -2.672  -7.001  0.00  0.00    -0.262 N 
ATOM     15  C   UNL     1       2.813  -3.504  -6.359  0.00  0.00    +0.259 A 
ATOM     16  O   UNL     1       3.132  -4.659  -6.123  0.00  0.00    -0.267 OA
ATOM     17  C   UNL     1       1.560  -3.032  -5.967  0.00  0.00    +0.095 A 
ATOM     18  C   UNL     1       1.204  -1.729  -6.241  0.00  0.00    +0.063 A 
ATOM     19  N   UNL     1       2.076  -0.944  -6.868  0.00  0.00    -0.226 NA
ENDBRANCH   9  18
ENDBRANCH   1   9
BRANCH   7  20
ATOM     20  C   UNL     1      -0.013   1.086   0.008  0.00  0.00    +0.115 C 
BRANCH  20  21
ATOM     21  C   UNL     1      -0.729   1.579   1.267  0.00  0.00    +0.127 C 
BRANCH  21  22
ATOM     22  N   UNL     1      -0.020   1.094   2.454  0.00  0.00    -0.224 N 
ATOM     23  C   UNL     1       0.978   1.762   3.067  0.00  0.00    +0.247 C 
ATOM     24  O   UNL     1       1.442   2.838   2.753  0.00  0.00    -0.273 OA
ATOM     25  C   UNL     1       1.396   0.889   4.227  0.00  0.00    +0.113 C 
ATOM     26  C   UNL     1       1.179   1.619   5.548  0.00  0.00    +0.035 C 
ATOM     27  C   UNL     1       1.581   0.709   6.710  0.00  0.00    +0.003 C 
ATOM     28  C   UNL     1       3.052   0.314   6.563  0.00  0.00    +0.000 C 
ATOM     29  C   UNL     1       3.249  -0.439   5.245  0.00  0.00    +0.003 C 
ATOM     30  C   UNL     1       2.854   0.467   4.077  0.00  0.00    +0.035 C 
ATOM     31  N   UNL     1       0.510  -0.278   4.132  0.00  0.00    -0.285 N 
ATOM     32  C   UNL     1      -0.287  -0.065   3.068  0.00  0.00    +0.309 C 
ATOM     33  O   UNL     1      -1.150  -0.840   2.704  0.00  0.00    -0.252 OA
ATOM     34  H   UNL     1       0.596  -1.095   4.863  0.00  0.00    +0.151 HD
ENDBRANCH  21  22
ENDBRANCH  20  21
ENDBRANCH   7  20
TORSDOF 5
