REMARK  Name = ZINC28056400
REMARK  7 active torsions:
REMARK  status: ('A' for Active; 'I' for Inactive)
REMARK    1  A    between atoms: C_1  and  C_2
REMARK    2  A    between atoms: C_2  and  O_3
REMARK    3  A    between atoms: O_3  and  C_4
REMARK    4  A    between atoms: C_7  and  C_12
REMARK    5  A    between atoms: C_9  and  O_10
REMARK    6  A    between atoms: O_10  and  C_11
REMARK    7  A    between atoms: C_29  and  C_31
REMARK                            x       y       z     vdW  Elec       q    Type
REMARK                         _______ _______ _______ _____ _____    ______ ____
ROOT
ATOM      1  C   UNL     1      -0.013   1.086   0.008  0.00  0.00    +0.234 C 
ATOM      2  C   UNL     1      -0.680   1.659   1.237  0.00  0.00    +0.025 C 
ATOM      3  C   UNL     1      -0.281   2.844   1.703  0.00  0.00    +0.050 C 
ATOM      4  C   UNL     1       0.822   3.543   1.000  0.00  0.00    +0.038 A 
ATOM      5  C   UNL     1       1.068   4.896   1.198  0.00  0.00    +0.013 A 
ATOM      6  C   UNL     1       2.107   5.505   0.521  0.00  0.00    +0.001 A 
ATOM      7  C   UNL     1       2.897   4.775  -0.349  0.00  0.00    +0.004 A 
ATOM      8  C   UNL     1       2.658   3.428  -0.553  0.00  0.00    +0.046 A 
ATOM      9  C   UNL     1       1.623   2.805   0.118  0.00  0.00    +0.131 A 
ATOM     10  O   UNL     1       1.356   1.485  -0.054  0.00  0.00    -0.479 OA
ATOM     11  N   UNL     1      -0.870   3.446   2.821  0.00  0.00    -0.282 N 
ATOM     12  C   UNL     1      -2.062   2.908   3.277  0.00  0.00    +0.240 A 
ATOM     13  N   UNL     1      -2.944   3.365   4.119  0.00  0.00    -0.092 NA
ATOM     14  N   UNL     1      -3.916   2.527   4.245  0.00  0.00    -0.021 NA
ATOM     15  N   UNL     1      -3.716   1.489   3.499  0.00  0.00    -0.042 NA
ATOM     16  N   UNL     1      -2.502   1.697   2.846  0.00  0.00    -0.201 N 
ATOM     17  C   UNL     1      -1.779   0.862   1.897  0.00  0.00    +0.174 C 
ATOM     18  H   UNL     1      -0.386   4.310   3.299  0.00  0.00    +0.155 HD
ENDROOT
BRANCH  17  19
ATOM     19  C   UNL     1      -1.174  -0.311   2.624  0.00  0.00    -0.016 A 
ATOM     20  C   UNL     1      -1.528  -1.600   2.270  0.00  0.00    +0.006 A 
ATOM     21  C   UNL     1      -0.973  -2.678   2.935  0.00  0.00    +0.003 A 
ATOM     22  C   UNL     1      -0.065  -2.468   3.955  0.00  0.00    +0.038 A 
ATOM     23  C   UNL     1       0.290  -1.177   4.311  0.00  0.00    +0.124 A 
ATOM     24  C   UNL     1      -0.262  -0.099   3.640  0.00  0.00    +0.044 A 
ATOM     25  F   UNL     1       1.178  -0.971   5.308  0.00  0.00    -0.205 F 
ENDBRANCH  17  19
BRANCH   1  29
ATOM     26  C   UNL     1      -2.047   2.492  -3.481  0.00  0.00    +0.162 A 
ATOM     27  C   UNL     1      -1.180   3.329  -2.797  0.00  0.00    +0.050 A 
ATOM     28  C   UNL     1      -0.528   2.873  -1.666  0.00  0.00    +0.011 A 
ATOM     29  C   UNL     1      -0.730   1.579  -1.222  0.00  0.00    +0.001 A 
ATOM     30  C   UNL     1      -1.594   0.739  -1.900  0.00  0.00    +0.057 A 
ATOM     31  C   UNL     1      -2.254   1.192  -3.031  0.00  0.00    +0.162 A 
BRANCH  31  32
ATOM     32  O   UNL     1      -3.104   0.366  -3.700  0.00  0.00    -0.491 OA
ATOM     33  C   UNL     1      -3.268  -0.955  -3.181  0.00  0.00    +0.277 C 
ENDBRANCH  31  32
BRANCH  26  34
ATOM     34  O   UNL     1      -2.693   2.941  -4.590  0.00  0.00    -0.489 OA
BRANCH  34  36
ATOM     35  C   UNL     1      -3.242   4.608  -6.251  0.00  0.00    +0.048 C 
ATOM     36  C   UNL     1      -2.431   4.286  -4.994  0.00  0.00    +0.226 C 
ENDBRANCH  34  36
ENDBRANCH  26  34
ENDBRANCH   1  29
TORSDOF 5
