REMARK  Name = ZINC63142136
REMARK  6 active torsions:
REMARK  status: ('A' for Active; 'I' for Inactive)
REMARK    1  A    between atoms: C_1  and  O_2
REMARK    2  A    between atoms: O_2  and  C_3
REMARK    3  A    between atoms: C_3  and  C_5
REMARK    4  A    between atoms: C_8  and  C_11
REMARK    5  A    between atoms: N_30  and  C_33
REMARK    6  A    between atoms: C_33  and  C_34
REMARK                            x       y       z     vdW  Elec       q    Type
REMARK                         _______ _______ _______ _____ _____    ______ ____
ROOT
ATOM      1  C   UNL     1      -1.413  -6.381  -0.019  0.00  0.00    +0.133 C 
ATOM      2  C   UNL     1      -1.833  -6.877  -1.405  0.00  0.00    +0.131 C 
ATOM      3  C   UNL     1      -3.297  -6.496  -1.583  0.00  0.00    -0.034 C 
ATOM      4  C   UNL     1      -3.366  -5.780  -2.699  0.00  0.00    -0.001 A 
ATOM      5  C   UNL     1      -4.509  -5.200  -3.421  0.00  0.00    +0.010 A 
ATOM      6  C   UNL     1      -4.213  -4.501  -4.549  0.00  0.00    +0.001 A 
ATOM      7  C   UNL     1      -2.910  -4.323  -5.024  0.00  0.00    +0.002 A 
ATOM      8  C   UNL     1      -1.800  -4.826  -4.426  0.00  0.00    +0.026 A 
ATOM      9  C   UNL     1      -1.984  -5.584  -3.234  0.00  0.00    +0.043 A 
ATOM     10  N   UNL     1      -1.097  -6.200  -2.475  0.00  0.00    -0.375 N 
ATOM     11  C   UNL     1      -4.354  -6.856  -0.568  0.00  0.00    +0.065 C 
ATOM     12  C   UNL     1      -3.813  -6.415   0.805  0.00  0.00    +0.167 C 
ATOM     13  N   UNL     1      -2.426  -6.849   0.953  0.00  0.00    -0.279 N 
ATOM     14  C   UNL     1      -2.022  -7.661   1.937  0.00  0.00    +0.234 C 
ATOM     15  O   UNL     1      -0.852  -7.979   1.961  0.00  0.00    -0.274 OA
ATOM     16  C   UNL     1      -2.910  -8.204   3.007  0.00  0.00    +0.203 C 
ATOM     17  N   UNL     1      -4.281  -7.742   2.871  0.00  0.00    -0.289 N 
ATOM     18  C   UNL     1      -4.697  -6.941   1.887  0.00  0.00    +0.237 C 
ATOM     19  O   UNL     1      -5.867  -6.619   1.871  0.00  0.00    -0.274 OA
ATOM     20  H   UNL     1      -0.134  -6.205  -2.592  0.00  0.00    +0.160 HD
ENDROOT
BRANCH   1  24
ATOM     21  C   UNL     1      -1.247  -2.108   0.003  0.00  0.00    +0.059 A 
ATOM     22  C   UNL     1      -2.440  -2.762  -0.313  0.00  0.00    +0.015 A 
ATOM     23  C   UNL     1      -2.486  -4.141  -0.318  0.00  0.00    +0.006 A 
ATOM     24  C   UNL     1      -1.354  -4.875  -0.011  0.00  0.00    -0.025 A 
ATOM     25  C   UNL     1      -0.170  -4.234   0.303  0.00  0.00    +0.006 A 
ATOM     26  C   UNL     1      -0.107  -2.856   0.306  0.00  0.00    +0.015 A 
BRANCH  21  27
ATOM     27  C   UNL     1      -1.190  -0.632   0.010  0.00  0.00    +0.339 C 
ATOM     28  O   UNL     1      -0.149  -0.066   0.280  0.00  0.00    -0.245 OA
BRANCH  27  30
ATOM     29  C   UNL     1      -2.164   1.509  -0.256  0.00  0.00    +0.280 C 
ATOM     30  O   UNL     1      -2.291   0.086  -0.283  0.00  0.00    -0.464 OA
ENDBRANCH  27  30
ENDBRANCH  21  27
ENDBRANCH   1  24
BRANCH  17  31
ATOM     31  C   UNL     1      -5.262  -8.181   3.867  0.00  0.00    +0.140 C 
BRANCH  31  32
ATOM     32  C   UNL     1      -5.296  -7.181   5.024  0.00  0.00    +0.136 C 
ATOM     33  C   UNL     1      -6.237  -7.696   6.134  0.00  0.00    +0.035 C 
ATOM     34  C   UNL     1      -6.942  -6.393   6.600  0.00  0.00    +0.031 C 
ATOM     35  C   UNL     1      -7.029  -5.612   5.264  0.00  0.00    +0.160 C 
ATOM     36  O   UNL     1      -5.811  -5.925   4.567  0.00  0.00    -0.375 OA
ENDBRANCH  31  32
ENDBRANCH  17  31
TORSDOF 5
