REMARK  Name = ZINC60159645
REMARK  9 active torsions:
REMARK  status: ('A' for Active; 'I' for Inactive)
REMARK    1  A    between atoms: C_1  and  C_2
REMARK    2  A    between atoms: C_7  and  C_9
REMARK    3  A    between atoms: C_7  and  C_10
REMARK    4  A    between atoms: N_13  and  C_17
REMARK    5  A    between atoms: C_17  and  C_18
REMARK    6  A    between atoms: N_20  and  C_21
REMARK    7  A    between atoms: C_21  and  C_22
REMARK    8  A    between atoms: N_27  and  C_29
REMARK    9  A    between atoms: C_29  and  C_30
REMARK                            x       y       z     vdW  Elec       q    Type
REMARK                         _______ _______ _______ _____ _____    ______ ____
ROOT
ATOM      1  C   UNL     1      -1.431  -5.488  -2.763  0.00  0.00    +0.231 C 
ATOM      2  O   UNL     1      -1.057  -5.765  -1.643  0.00  0.00    -0.274 OA
ATOM      3  N   UNL     1      -1.311  -6.390  -3.757  0.00  0.00    -0.314 N 
ATOM      4  H   UNL     1      -1.611  -6.169  -4.652  0.00  0.00    +0.149 HD
ENDROOT
BRANCH   1   5
ATOM      5  C   UNL     1      -2.031  -4.134  -3.043  0.00  0.00    +0.213 C 
BRANCH   5  17
ATOM      6  C   UNL     1      -0.019   1.528   0.010  0.00  0.00    +0.007 C 
ATOM      7  C   UNL     1       0.002  -0.004   0.002  0.00  0.00    -0.011 C 
ATOM      8  C   UNL     1      -1.435  -0.529   0.021  0.00  0.00    +0.038 C 
ATOM      9  C   UNL     1      -1.427  -2.050  -0.036  0.00  0.00    +0.113 C 
ATOM     10  C   UNL     1      -0.575  -2.676   1.049  0.00  0.00    +0.041 C 
ATOM     11  C   UNL     1       0.782  -2.031   1.270  0.00  0.00    -0.032 C 
ATOM     12  C   UNL     1       0.719  -0.508   1.253  0.00  0.00    +0.009 C 
ATOM     13  C   UNL     1       1.296  -2.464   2.661  0.00  0.00    +0.011 C 
ATOM     14  C   UNL     1       1.795  -2.526   0.234  0.00  0.00    +0.011 C 
ATOM     15  C   UNL     1      -1.044  -2.534  -1.413  0.00  0.00    +0.247 C 
ATOM     16  O   UNL     1      -0.058  -2.253  -2.060  0.00  0.00    -0.273 OA
ATOM     17  N   UNL     1      -2.050  -3.344  -1.810  0.00  0.00    -0.215 N 
ATOM     18  C   UNL     1      -3.063  -3.331  -0.937  0.00  0.00    +0.310 C 
ATOM     19  O   UNL     1      -4.088  -3.969  -1.082  0.00  0.00    -0.252 OA
ATOM     20  N   UNL     1      -2.817  -2.537   0.119  0.00  0.00    -0.285 N 
ATOM     21  H   UNL     1      -3.418  -2.318   0.845  0.00  0.00    +0.151 HD
ENDBRANCH   5  17
ENDBRANCH   1   5
BRANCH   3  22
ATOM     22  C   UNL     1      -0.728  -7.706  -3.484  0.00  0.00    +0.106 C 
BRANCH  22  23
ATOM     23  C   UNL     1      -0.708  -8.532  -4.772  0.00  0.00    -0.011 C 
ATOM     24  C   UNL     1      -2.145  -8.813  -5.222  0.00  0.00    +0.001 C 
ATOM     25  C   UNL     1      -2.114  -9.705  -6.466  0.00  0.00    -0.018 C 
ATOM     26  C   UNL     1      -1.344 -10.989  -6.149  0.00  0.00    -0.078 C 
ATOM     27  N   UNL     1       0.029 -10.654  -5.751  0.00  0.00    +0.383 N 
ATOM     28  C   UNL     1       0.011  -9.858  -4.518  0.00  0.00    -0.073 C 
ATOM     29  H   UNL     1       0.471 -10.123  -6.486  0.00  0.00    -0.081 HD
BRANCH  27  30
ATOM     30  C   UNL     1       0.786 -11.892  -5.523  0.00  0.00    -0.043 C 
BRANCH  30  31
ATOM     31  C   UNL     1       0.919 -12.646  -6.821  0.00  0.00    -0.064 A 
ATOM     32  C   UNL     1      -0.043 -13.569  -7.185  0.00  0.00    +0.002 A 
ATOM     33  C   UNL     1       0.078 -14.261  -8.376  0.00  0.00    +0.000 A 
ATOM     34  C   UNL     1       1.162 -14.030  -9.202  0.00  0.00    +0.000 A 
ATOM     35  C   UNL     1       2.124 -13.106  -8.838  0.00  0.00    +0.000 A 
ATOM     36  C   UNL     1       2.000 -12.411  -7.649  0.00  0.00    +0.002 A 
ENDBRANCH  30  31
ENDBRANCH  27  30
ENDBRANCH  22  23
ENDBRANCH   3  22
TORSDOF 6
