REMARK  Name = ZINC37319392
REMARK  4 active torsions:
REMARK  status: ('A' for Active; 'I' for Inactive)
REMARK    1  A    between atoms: C_5  and  C_6
REMARK    2  A    between atoms: C_6  and  N_7
REMARK    3  A    between atoms: N_7  and  C_8
REMARK    4  A    between atoms: C_11  and  C_14
REMARK                            x       y       z     vdW  Elec       q    Type
REMARK                         _______ _______ _______ _____ _____    ______ ____
ROOT
ATOM      1  C   UNL     1      -2.795  -2.061  -1.366  0.00  0.00    -0.071 C 
ATOM      2  C   UNL     1      -2.420  -3.418  -0.768  0.00  0.00    -0.015 C 
ATOM      3  C   UNL     1      -3.649  -4.330  -0.760  0.00  0.00    +0.011 C 
ATOM      4  C   UNL     1      -4.148  -4.525  -2.194  0.00  0.00    +0.075 C 
ATOM      5  C   UNL     1      -4.523  -3.168  -2.792  0.00  0.00    +0.011 C 
ATOM      6  C   UNL     1      -3.294  -2.256  -2.800  0.00  0.00    -0.015 C 
ENDROOT
BRANCH   4   7
ATOM      7  C   UNL     1      -3.059  -5.156  -3.023  0.00  0.00    +0.214 C 
ATOM      8  O   UNL     1      -1.990  -5.423  -2.517  0.00  0.00    -0.276 OA
ATOM      9  N   UNL     1      -3.274  -5.423  -4.326  0.00  0.00    -0.329 N 
ATOM     10  H   UNL     1      -4.129  -5.209  -4.731  0.00  0.00    +0.145 HD
ATOM     11  H   UNL     1      -2.573  -5.830  -4.860  0.00  0.00    +0.145 HD
ENDBRANCH   4   7
BRANCH   1  12
ATOM     12  N   UNL     1      -1.615  -1.186  -1.373  0.00  0.00    +0.386 N 
ATOM     13  H   UNL     1      -1.841  -0.322  -1.842  0.00  0.00    -0.085 HD
ATOM     14  H   UNL     1      -0.859  -1.645  -1.859  0.00  0.00    -0.085 HD
BRANCH  12  15
ATOM     15  C   UNL     1      -1.208  -0.902   0.009  0.00  0.00    -0.006 C 
BRANCH  15  20
ATOM     16  C   UNL     1      -0.016   1.341   0.009  0.00  0.00    +0.044 A 
ATOM     17  C   UNL     1       1.331   1.769  -0.001  0.00  0.00    +0.056 A 
ATOM     18  C   UNL     1       2.093   0.659  -0.014  0.00  0.00    +0.165 A 
ATOM     19  O   UNL     1       1.282  -0.411  -0.012  0.00  0.00    -0.456 OA
ATOM     20  C   UNL     1       0.002  -0.004   0.002  0.00  0.00    +0.090 A 
ATOM     21  I   UNL     1       4.187   0.611  -0.035  0.00  0.00    -0.001 I 
ENDBRANCH  15  20
ENDBRANCH  12  15
ENDBRANCH   1  12
TORSDOF 4
