REMARK  Name = ZINC38660866
REMARK  12 active torsions:
REMARK  status: ('A' for Active; 'I' for Inactive)
REMARK    1  A    between atoms: C_1  and  C_2
REMARK    2  A    between atoms: C_2  and  C_3
REMARK    3  A    between atoms: C_3  and  O_4
REMARK    4  A    between atoms: O_4  and  C_5
REMARK    5  A    between atoms: C_8  and  C_11
REMARK    6  A    between atoms: C_11  and  O_13
REMARK    7  A    between atoms: O_13  and  C_14
REMARK    8  A    between atoms: C_21  and  N_40
REMARK    9  A    between atoms: C_22  and  C_38
REMARK   10  A    between atoms: C_23  and  C_25
REMARK   11  A    between atoms: C_29  and  O_31
REMARK   12  A    between atoms: O_31  and  C_32
REMARK                            x       y       z     vdW  Elec       q    Type
REMARK                         _______ _______ _______ _____ _____    ______ ____
ROOT
ATOM      1  C   UNL     1       3.732  -5.883  -6.811  0.00  0.00    +0.135 A 
ATOM      2  C   UNL     1       4.333  -5.029  -7.726  0.00  0.00    +0.047 A 
ATOM      3  C   UNL     1       5.039  -5.548  -8.793  0.00  0.00    +0.012 A 
ATOM      4  C   UNL     1       5.151  -6.917  -8.956  0.00  0.00    +0.008 A 
ATOM      5  C   UNL     1       4.552  -7.774  -8.046  0.00  0.00    +0.138 A 
ATOM      6  C   UNL     1       3.846  -7.255  -6.969  0.00  0.00    +0.093 A 
ATOM      7  O   UNL     1       4.650  -9.119  -8.189  0.00  0.00    -0.441 OA
ATOM      8  C   UNL     1       5.618  -9.643  -8.960  0.00  0.00    +0.199 C 
ATOM      9  C   UNL     1       6.263  -8.909  -9.898  0.00  0.00    +0.098 C 
ATOM     10  C   UNL     1       5.925  -7.463 -10.127  0.00  0.00    +0.098 C 
ENDROOT
BRANCH  10  11
ATOM     11  C   UNL     1       5.094  -7.336 -11.377  0.00  0.00    -0.031 A 
ATOM     12  C   UNL     1       3.866  -7.967 -11.457  0.00  0.00    +0.005 A 
ATOM     13  C   UNL     1       3.100  -7.853 -12.603  0.00  0.00    +0.004 A 
ATOM     14  C   UNL     1       3.561  -7.108 -13.672  0.00  0.00    +0.046 A 
ATOM     15  C   UNL     1       4.793  -6.475 -13.594  0.00  0.00    +0.129 A 
ATOM     16  C   UNL     1       5.557  -6.586 -12.441  0.00  0.00    +0.050 A 
BRANCH  15  17
ATOM     17  O   UNL     1       5.249  -5.742 -14.644  0.00  0.00    -0.456 OA
BRANCH  17  18
ATOM     18  C   UNL     1       6.512  -5.245 -14.575  0.00  0.00    +0.128 A 
ATOM     19  C   UNL     1       7.600  -6.105 -14.604  0.00  0.00    +0.046 A 
ATOM     20  C   UNL     1       8.883  -5.598 -14.534  0.00  0.00    +0.004 A 
ATOM     21  C   UNL     1       9.083  -4.233 -14.433  0.00  0.00    +0.000 A 
ATOM     22  C   UNL     1       8.000  -3.373 -14.402  0.00  0.00    +0.004 A 
ATOM     23  C   UNL     1       6.715  -3.876 -14.479  0.00  0.00    +0.046 A 
ENDBRANCH  17  18
ENDBRANCH  15  17
ENDBRANCH  10  11
BRANCH   8  24
ATOM     24  N   UNL     1       5.964 -10.960  -8.791  0.00  0.00    -0.328 N 
ATOM     25  H   UNL     1       5.512 -11.499  -8.123  0.00  0.00    +0.145 HD
ATOM     26  H   UNL     1       6.662 -11.352  -9.339  0.00  0.00    +0.145 HD
ENDBRANCH   8  24
BRANCH   9  27
ATOM     27  C   UNL     1       7.287  -9.524 -10.688  0.00  0.00    +0.101 C 
ATOM     28  N   UNL     1       8.099 -10.012 -11.314  0.00  0.00    -0.191 NA
ENDBRANCH   9  27
BRANCH   1  29
ATOM     29  O   UNL     1       3.037  -5.374  -5.760  0.00  0.00    -0.422 OA
BRANCH  29  30
ATOM     30  C   UNL     1       3.615  -5.408  -4.543  0.00  0.00    +0.344 C 
ATOM     31  O   UNL     1       4.685  -5.964  -4.395  0.00  0.00    -0.245 OA
BRANCH  30  35
ATOM     32  C   UNL     1       1.699  -3.572  -1.230  0.00  0.00    +0.121 A 
ATOM     33  C   UNL     1       2.923  -4.208  -1.058  0.00  0.00    +0.046 A 
ATOM     34  C   UNL     1       3.548  -4.805  -2.130  0.00  0.00    +0.018 A 
ATOM     35  C   UNL     1       2.949  -4.771  -3.393  0.00  0.00    +0.060 A 
ATOM     36  C   UNL     1       1.718  -4.130  -3.561  0.00  0.00    +0.018 A 
ATOM     37  C   UNL     1       1.098  -3.541  -2.483  0.00  0.00    +0.046 A 
BRANCH  32  38
ATOM     38  O   UNL     1       1.086  -2.985  -0.171  0.00  0.00    -0.492 OA
BRANCH  38  39
ATOM     39  C   UNL     1       1.759  -3.054   1.088  0.00  0.00    +0.229 C 
BRANCH  39  41
ATOM     40  C   UNL     1       1.643  -2.417   3.501  0.00  0.00    +0.007 C 
ATOM     41  C   UNL     1       0.923  -2.343   2.153  0.00  0.00    +0.038 C 
ENDBRANCH  39  41
ENDBRANCH  38  39
ENDBRANCH  32  38
ENDBRANCH  30  35
ENDBRANCH  29  30
ENDBRANCH   1  29
TORSDOF 11
