REMARK  Name = ZINC17050028
REMARK  9 active torsions:
REMARK  status: ('A' for Active; 'I' for Inactive)
REMARK    1  A    between atoms: C_1  and  C_2
REMARK    2  A    between atoms: C_2  and  C_4
REMARK    3  A    between atoms: C_2  and  O_17
REMARK    4  A    between atoms: N_6  and  C_7
REMARK    5  A    between atoms: C_11  and  S_13
REMARK    6  A    between atoms: S_13  and  N_16
REMARK    7  A    between atoms: O_17  and  C_18
REMARK    8  A    between atoms: C_18  and  C_20
REMARK    9  A    between atoms: C_23  and  C_26
REMARK                            x       y       z     vdW  Elec       q    Type
REMARK                         _______ _______ _______ _____ _____    ______ ____
ROOT
ATOM      1  C   UNL     1      -0.033   1.520   0.013  0.00  0.00    +0.062 C 
ATOM      2  C   UNL     1      -0.002  -0.010   0.002  0.00  0.00    +0.259 C 
ENDROOT
BRANCH   2   3
ATOM      3  C   UNL     1       0.708  -0.488  -1.238  0.00  0.00    +0.258 C 
ATOM      4  O   UNL     1       1.758  -1.088  -1.142  0.00  0.00    -0.271 OA
ATOM      5  N   UNL     1       0.176  -0.250  -2.453  0.00  0.00    -0.282 N 
ATOM      6  H   UNL     1      -0.695   0.170  -2.527  0.00  0.00    +0.155 HD
BRANCH   5   7
ATOM      7  C   UNL     1       0.881  -0.608  -3.608  0.00  0.00    +0.035 A 
ATOM      8  C   UNL     1       0.802   0.185  -4.745  0.00  0.00    +0.023 A 
ATOM      9  C   UNL     1       1.499  -0.171  -5.883  0.00  0.00    +0.004 A 
ATOM     10  C   UNL     1       2.274  -1.317  -5.891  0.00  0.00    +0.028 A 
ATOM     11  C   UNL     1       2.354  -2.108  -4.761  0.00  0.00    +0.107 A 
ATOM     12  C   UNL     1       1.665  -1.754  -3.617  0.00  0.00    +0.051 A 
BRANCH  11  13
ATOM     13  S   UNL     1       3.343  -3.567  -4.776  0.00  0.00    +0.056 S 
ATOM     14  O   UNL     1       2.817  -4.424  -3.772  0.00  0.00    -0.153 OA
ATOM     15  O   UNL     1       3.457  -3.966  -6.135  0.00  0.00    -0.153 OA
BRANCH  13  16
ATOM     16  N   UNL     1       4.862  -3.134  -4.281  0.00  0.00    -0.204 NA
ATOM     17  H   UNL     1       5.420  -3.774  -3.812  0.00  0.00    +0.144 HD
ATOM     18  H   UNL     1       5.195  -2.240  -4.461  0.00  0.00    +0.144 HD
ENDBRANCH  13  16
ENDBRANCH  11  13
ENDBRANCH   5   7
ENDBRANCH   2   3
BRANCH   2  19
ATOM     19  O   UNL     1       0.692  -0.480   1.160  0.00  0.00    -0.449 OA
BRANCH  19  20
ATOM     20  C   UNL     1      -0.045  -0.707   2.264  0.00  0.00    +0.340 C 
ATOM     21  O   UNL     1      -1.244  -0.511   2.245  0.00  0.00    -0.245 OA
BRANCH  20  22
ATOM     22  C   UNL     1       0.605  -1.195   3.498  0.00  0.00    +0.059 A 
ATOM     23  C   UNL     1       1.983  -1.416   3.525  0.00  0.00    +0.015 A 
ATOM     24  C   UNL     1       2.583  -1.871   4.681  0.00  0.00    +0.005 A 
ATOM     25  C   UNL     1       1.822  -2.109   5.812  0.00  0.00    -0.044 A 
ATOM     26  C   UNL     1       0.456  -1.892   5.792  0.00  0.00    +0.005 A 
ATOM     27  C   UNL     1      -0.157  -1.431   4.645  0.00  0.00    +0.015 A 
BRANCH  25  28
ATOM     28  C   UNL     1       2.485  -2.606   7.071  0.00  0.00    +0.019 C 
ATOM     29  C   UNL     1       1.888  -3.960   7.460  0.00  0.00    +0.008 C 
ATOM     30  C   UNL     1       2.560  -4.465   8.739  0.00  0.00    +0.001 C 
ATOM     31  C   UNL     1       2.327  -3.460   9.869  0.00  0.00    +0.000 C 
ATOM     32  C   UNL     1       2.924  -2.106   9.479  0.00  0.00    +0.001 C 
ATOM     33  C   UNL     1       2.251  -1.601   8.201  0.00  0.00    +0.008 C 
ENDBRANCH  25  28
ENDBRANCH  20  22
ENDBRANCH  19  20
ENDBRANCH   2  19
TORSDOF 8
