REMARK  Name = ZINC02799623
REMARK  13 active torsions:
REMARK  status: ('A' for Active; 'I' for Inactive)
REMARK    1  A    between atoms: C_1  and  C_2
REMARK    2  A    between atoms: C_2  and  N_3
REMARK    3  A    between atoms: C_5  and  N_15
REMARK    4  A    between atoms: C_6  and  C_8
REMARK    5  A    between atoms: N_10  and  C_11
REMARK    6  A    between atoms: C_11  and  C_12
REMARK    7  A    between atoms: C_12  and  C_13
REMARK    8  A    between atoms: C_12  and  C_14
REMARK    9  A    between atoms: C_16  and  C_18
REMARK   10  A    between atoms: C_18  and  C_20
REMARK   11  A    between atoms: C_18  and  N_21
REMARK   12  A    between atoms: C_22  and  C_31
REMARK   13  A    between atoms: C_24  and  C_26
REMARK                            x       y       z     vdW  Elec       q    Type
REMARK                         _______ _______ _______ _____ _____    ______ ____
ROOT
ATOM      1  N   UNL     1      -4.115   2.776   0.050  0.00  0.00    -0.281 N 
ATOM      2  C   UNL     1      -5.414   3.135   0.062  0.00  0.00    +0.242 C 
ATOM      3  O   UNL     1      -6.279   2.284   0.060  0.00  0.00    -0.273 OA
ATOM      4  H   UNL     1      -3.332   3.547   0.052  0.00  0.00    +0.155 HD
ENDROOT
BRANCH   1   7
ATOM      5  N   UNL     1      -3.829  -0.767   0.017  0.00  0.00    -0.269 N 
ATOM      6  C   UNL     1      -4.603   0.349   0.026  0.00  0.00    +0.132 A 
ATOM      7  C   UNL     1      -3.763   1.417   0.033  0.00  0.00    +0.084 A 
ATOM      8  C   UNL     1      -2.455   0.869   0.018  0.00  0.00    +0.168 A 
ATOM      9  N   UNL     1      -2.586  -0.444   0.012  0.00  0.00    -0.165 NA
BRANCH   8  10
ATOM     10  C   UNL     1      -1.187   1.624   0.017  0.00  0.00    +0.266 C 
ATOM     11  O   UNL     1      -1.204   2.840   0.023  0.00  0.00    -0.268 OA
ATOM     12  N   UNL     1      -0.011   0.966   0.007  0.00  0.00    -0.310 N 
ATOM     13  H   UNL     1       0.004  -0.134   0.006  0.00  0.00    +0.149 HD
BRANCH  12  14
ATOM     14  C   UNL     1       1.248   1.716  -0.001  0.00  0.00    +0.107 C 
BRANCH  14  15
ATOM     15  C   UNL     1       2.424   0.737  -0.017  0.00  0.00    -0.000 C 
ATOM     16  C   UNL     1       3.733   1.517  -0.151  0.00  0.00    +0.009 C 
ATOM     17  C   UNL     1       2.438  -0.065   1.286  0.00  0.00    +0.009 C 
ENDBRANCH  14  15
ENDBRANCH  12  14
ENDBRANCH   8  10
BRANCH   5  19
ATOM     18  C   UNL     1      -3.745  -2.900  -1.176  0.00  0.00    +0.029 C 
ATOM     19  C   UNL     1      -4.338  -2.140   0.013  0.00  0.00    +0.140 C 
ENDBRANCH   5  19
ENDBRANCH   1   7
BRANCH   2  20
ATOM     20  C   UNL     1      -5.793   4.594   0.080  0.00  0.00    +0.190 C 
ATOM     21  C   UNL     1      -5.214   5.256   1.332  0.00  0.00    +0.042 C 
BRANCH  20  22
ATOM     22  N   UNL     1      -7.252   4.719   0.092  0.00  0.00    -0.255 N 
ATOM     23  C   UNL     1      -8.003   5.346  -0.840  0.00  0.00    +0.051 A 
ATOM     24  C   UNL     1      -9.300   5.236  -0.466  0.00  0.00    +0.070 A 
ATOM     25  C   UNL     1      -9.341   4.527   0.740  0.00  0.00    +0.179 A 
ATOM     26  N   UNL     1      -8.115   4.216   1.074  0.00  0.00    -0.165 NA
ATOM     27 BR   UNL     1     -10.790   5.927  -1.403  0.00  0.00    -0.046 Br
ATOM     28  C   UNL     1      -7.490   6.039  -2.075  0.00  0.00    +0.066 C 
BRANCH  25  29
ATOM     29  C   UNL     1     -10.584   4.179   1.518  0.00  0.00    +0.437 C 
ATOM     30  F   UNL     1     -10.224   3.567   2.723  0.00  0.00    -0.164 F 
ATOM     31  F   UNL     1     -11.308   5.346   1.785  0.00  0.00    -0.164 F 
ATOM     32  F   UNL     1     -11.374   3.302   0.767  0.00  0.00    -0.164 F 
ENDBRANCH  25  29
ENDBRANCH  20  22
ENDBRANCH   2  20
TORSDOF 8
