REMARK  Name = ZINC12228738
REMARK  6 active torsions:
REMARK  status: ('A' for Active; 'I' for Inactive)
REMARK    1  A    between atoms: C_5  and  C_7
REMARK    2  A    between atoms: C_8  and  C_19
REMARK    3  A    between atoms: N_10  and  C_12
REMARK    4  A    between atoms: C_19  and  N_49
REMARK    5  A    between atoms: C_20  and  C_21
REMARK    6  A    between atoms: C_20  and  N_49
REMARK                            x       y       z     vdW  Elec       q    Type
REMARK                         _______ _______ _______ _____ _____    ______ ____
ROOT
ATOM      1  C   UNL     1       3.764  -3.768  -3.666  0.00  0.00    +0.096 A 
ATOM      2  C   UNL     1       2.558  -3.945  -2.958  0.00  0.00    -0.019 A 
ATOM      3  C   UNL     1       1.733  -4.692  -3.724  0.00  0.00    +0.116 A 
ATOM      4  N   UNL     1       2.382  -4.976  -4.883  0.00  0.00    -0.239 N 
ATOM      5  N   UNL     1       3.653  -4.389  -4.822  0.00  0.00    -0.166 NA
ENDROOT
BRANCH   1  10
ATOM      6  C   UNL     1       6.548  -2.520  -1.470  0.00  0.00    +0.001 A 
ATOM      7  C   UNL     1       7.165  -1.607  -2.307  0.00  0.00    +0.001 A 
ATOM      8  C   UNL     1       6.680  -1.395  -3.584  0.00  0.00    +0.020 A 
ATOM      9  C   UNL     1       5.579  -2.098  -4.034  0.00  0.00    +0.050 A 
ATOM     10  C   UNL     1       4.950  -3.014  -3.192  0.00  0.00    +0.021 A 
ATOM     11  C   UNL     1       5.444  -3.224  -1.906  0.00  0.00    +0.011 A 
ATOM     12 CL   UNL     1       4.976  -1.836  -5.640  0.00  0.00    -0.083 Cl
ENDBRANCH   1  10
BRANCH   4  13
ATOM     13  C   UNL     1       1.872  -5.728  -5.950  0.00  0.00    +0.066 A 
ATOM     14  C   UNL     1       0.592  -6.259  -5.876  0.00  0.00    +0.030 A 
ATOM     15  C   UNL     1       0.089  -6.995  -6.931  0.00  0.00    +0.040 A 
ATOM     16  C   UNL     1       0.865  -7.213  -8.057  0.00  0.00    +0.124 A 
ATOM     17  C   UNL     1       2.144  -6.688  -8.130  0.00  0.00    +0.040 A 
ATOM     18  C   UNL     1       2.649  -5.947  -7.080  0.00  0.00    +0.030 A 
ATOM     19  F   UNL     1       0.374  -7.939  -9.085  0.00  0.00    -0.205 F 
ENDBRANCH   4  13
BRANCH   2  20
ATOM     20  C   UNL     1       2.248  -3.402  -1.587  0.00  0.00    -0.042 C 
BRANCH  20  21
ATOM     21  N   UNL     1       1.970  -1.957  -1.691  0.00  0.00    +0.387 N 
ATOM     22  H   UNL     1       1.166  -1.811  -2.313  0.00  0.00    -0.085 HD
ATOM     23  H   UNL     1       2.793  -1.481  -2.078  0.00  0.00    -0.085 HD
BRANCH  21  24
ATOM     24  C   UNL     1       1.664  -1.398  -0.361  0.00  0.00    -0.004 C 
BRANCH  24  25
ATOM     25  C   UNL     1       1.396   0.079  -0.496  0.00  0.00    +0.116 A 
ATOM     26  N   UNL     1       0.238   0.639  -0.717  0.00  0.00    -0.136 NA
ATOM     27  N   UNL     1       0.379   1.915  -0.776  0.00  0.00    -0.134 NA
ATOM     28  C   UNL     1       1.635   2.228  -0.596  0.00  0.00    +0.133 A 
ATOM     29  N   UNL     1       2.314   1.073  -0.411  0.00  0.00    -0.316 N 
ATOM     30  C   UNL     1       3.744   1.329  -0.194  0.00  0.00    +0.125 C 
ATOM     31  C   UNL     1       3.986   2.771  -0.690  0.00  0.00    +0.029 C 
ATOM     32  C   UNL     1       2.585   3.403  -0.523  0.00  0.00    +0.078 C 
ENDBRANCH  24  25
ENDBRANCH  21  24
ENDBRANCH  20  21
ENDBRANCH   2  20
TORSDOF 6
