REMARK  Name = ZINC41065764
REMARK  4 active torsions:
REMARK  status: ('A' for Active; 'I' for Inactive)
REMARK    1  A    between atoms: C_1  and  C_2
REMARK    2  A    between atoms: C_5  and  C_21
REMARK    3  A    between atoms: N_8  and  S_10
REMARK    4  A    between atoms: S_10  and  C_13
REMARK                            x       y       z     vdW  Elec       q    Type
REMARK                         _______ _______ _______ _____ _____    ______ ____
ROOT
ATOM      1  S   UNL     1       2.871   0.732   2.387  0.00  0.00    +0.064 S 
ATOM      2  O   UNL     1       2.212   0.555   3.633  0.00  0.00    -0.153 OA
ATOM      3  O   UNL     1       4.227   0.358   2.183  0.00  0.00    -0.153 OA
ENDROOT
BRANCH   1   9
ATOM      4  C   UNL     1       0.097   1.769  -0.033  0.00  0.00    +0.009 C 
ATOM      5  C   UNL     1      -0.154   0.268   0.130  0.00  0.00    +0.002 C 
ATOM      6  C   UNL     1       0.426  -0.480  -1.073  0.00  0.00    +0.009 C 
ATOM      7  C   UNL     1       1.926  -0.194  -1.179  0.00  0.00    +0.002 C 
ATOM      8  C   UNL     1       2.628  -0.695   0.088  0.00  0.00    +0.112 C 
ATOM      9  N   UNL     1       1.979  -0.089   1.259  0.00  0.00    -0.176 NA
ATOM     10  C   UNL     1       0.524  -0.227   1.411  0.00  0.00    +0.112 C 
ATOM     11  C   UNL     1       2.498  -0.915  -2.400  0.00  0.00    +0.009 C 
ENDBRANCH   1   9
BRANCH   1  12
ATOM     12  C   UNL     1       2.757   2.446   1.994  0.00  0.00    +0.143 A 
ATOM     13  C   UNL     1       2.086   3.316   2.839  0.00  0.00    +0.048 A 
ATOM     14  C   UNL     1       2.021   4.657   2.490  0.00  0.00    +0.038 A 
ATOM     15  C   UNL     1       2.624   5.079   1.320  0.00  0.00    +0.127 A 
ATOM     16  N   UNL     1       3.254   4.223   0.539  0.00  0.00    -0.240 NA
ATOM     17  C   UNL     1       3.341   2.941   0.842  0.00  0.00    +0.155 A 
ATOM     18 CL   UNL     1       4.190   1.863  -0.221  0.00  0.00    -0.060 Cl
ATOM     19 BR   UNL     1       1.119   5.893   3.602  0.00  0.00    -0.049 Br
ENDBRANCH   1  12
TORSDOF 2
