REMARK  Name = ZINC02321721
REMARK  11 active torsions:
REMARK  status: ('A' for Active; 'I' for Inactive)
REMARK    1  A    between atoms: C_1  and  C_2
REMARK    2  A    between atoms: C_2  and  C_3
REMARK    3  A    between atoms: C_6  and  C_9
REMARK    4  A    between atoms: N_10  and  N_11
REMARK    5  A    between atoms: C_12  and  C_14
REMARK    6  A    between atoms: C_14  and  S_15
REMARK    7  A    between atoms: S_15  and  C_16
REMARK    8  A    between atoms: C_19  and  C_28
REMARK    9  A    between atoms: N_20  and  C_21
REMARK   10  A    between atoms: C_31  and  O_34
REMARK   11  A    between atoms: O_34  and  C_35
REMARK                            x       y       z     vdW  Elec       q    Type
REMARK                         _______ _______ _______ _____ _____    ______ ____
ROOT
ATOM      1  C   UNL     1      -4.621   0.485   0.070  0.00  0.00    +0.197 A 
ATOM      2  N   UNL     1      -3.887  -0.593   0.226  0.00  0.00    -0.122 NA
ATOM      3  N   UNL     1      -2.641  -0.302   0.108  0.00  0.00    -0.128 NA
ATOM      4  C   UNL     1      -2.500   0.981  -0.132  0.00  0.00    +0.169 A 
ATOM      5  N   UNL     1      -3.764   1.528  -0.159  0.00  0.00    -0.270 N 
ENDROOT
BRANCH   5   6
ATOM      6  C   UNL     1      -4.103   2.871  -0.377  0.00  0.00    +0.051 A 
ATOM      7  C   UNL     1      -3.779   3.832   0.572  0.00  0.00    +0.028 A 
ATOM      8  C   UNL     1      -4.108   5.156   0.352  0.00  0.00    +0.022 A 
ATOM      9  C   UNL     1      -4.770   5.522  -0.807  0.00  0.00    +0.041 A 
ATOM     10  C   UNL     1      -5.099   4.565  -1.751  0.00  0.00    +0.022 A 
ATOM     11  C   UNL     1      -4.767   3.241  -1.538  0.00  0.00    +0.028 A 
ATOM     12 CL   UNL     1      -5.189   7.185  -1.076  0.00  0.00    -0.084 Cl
ENDBRANCH   5   6
BRANCH   4  13
ATOM     13  C   UNL     1      -1.226   1.703  -0.329  0.00  0.00    +0.020 A 
ATOM     14  C   UNL     1      -1.221   2.963  -0.932  0.00  0.00    +0.015 A 
ATOM     15  C   UNL     1      -0.031   3.635  -1.109  0.00  0.00    +0.046 A 
ATOM     16  C   UNL     1       1.163   3.060  -0.694  0.00  0.00    +0.120 A 
ATOM     17  C   UNL     1       1.163   1.805  -0.099  0.00  0.00    +0.046 A 
ATOM     18  C   UNL     1      -0.023   1.126   0.082  0.00  0.00    +0.015 A 
BRANCH  16  19
ATOM     19  O   UNL     1       2.333   3.726  -0.870  0.00  0.00    -0.495 OA
ATOM     20  C   UNL     1       3.524   3.076  -0.420  0.00  0.00    +0.277 C 
ENDBRANCH  16  19
ENDBRANCH   4  13
BRANCH   1  21
ATOM     21  S   UNL     1      -6.379   0.574   0.145  0.00  0.00    -0.076 S 
BRANCH  21  22
ATOM     22  C   UNL     1      -6.767  -1.162   0.480  0.00  0.00    +0.174 C 
BRANCH  22  24
ATOM     23  N   UNL     1      -8.784  -2.548   0.836  0.00  0.00    -0.206 N 
ATOM     24  C   UNL     1      -8.260  -1.331   0.588  0.00  0.00    +0.242 C 
ATOM     25  O   UNL     1      -8.991  -0.372   0.453  0.00  0.00    -0.273 OA
ATOM     26  H   UNL     1      -8.200  -3.315   0.944  0.00  0.00    +0.177 HD
BRANCH  23  28
ATOM     27  C   UNL     1     -10.678  -3.877   1.175  0.00  0.00    +0.138 C 
ATOM     28  N   UNL     1     -10.173  -2.705   0.937  0.00  0.00    -0.188 NA
BRANCH  27  32
ATOM     29  C   UNL     1     -14.884  -4.353   1.482  0.00  0.00    -0.048 A 
ATOM     30  C   UNL     1     -14.054  -5.449   1.636  0.00  0.00    +0.004 A 
ATOM     31  C   UNL     1     -12.686  -5.302   1.538  0.00  0.00    +0.010 A 
ATOM     32  C   UNL     1     -12.139  -4.042   1.281  0.00  0.00    -0.005 A 
ATOM     33  C   UNL     1     -12.983  -2.939   1.131  0.00  0.00    +0.010 A 
ATOM     34  C   UNL     1     -14.350  -3.102   1.228  0.00  0.00    +0.004 A 
BRANCH  29  36
ATOM     35  C   UNL     1     -16.808  -4.322   3.047  0.00  0.00    +0.009 C 
ATOM     36  C   UNL     1     -16.378  -4.521   1.592  0.00  0.00    +0.032 C 
ENDBRANCH  29  36
ENDBRANCH  27  32
ENDBRANCH  23  28
ENDBRANCH  22  24
ENDBRANCH  21  22
ENDBRANCH   1  21
TORSDOF 9
