REMARK  Name = ZINC67502475
REMARK  9 active torsions:
REMARK  status: ('A' for Active; 'I' for Inactive)
REMARK    1  A    between atoms: C_1  and  C_2
REMARK    2  A    between atoms: C_2  and  C_4
REMARK    3  A    between atoms: C_2  and  N_11
REMARK    4  A    between atoms: N_6  and  C_7
REMARK    5  A    between atoms: C_7  and  C_8
REMARK    6  A    between atoms: C_7  and  C_9
REMARK    7  A    between atoms: C_7  and  C_10
REMARK    8  A    between atoms: N_11  and  C_12
REMARK    9  A    between atoms: C_12  and  C_13
REMARK                            x       y       z     vdW  Elec       q    Type
REMARK                         _______ _______ _______ _____ _____    ______ ____
ROOT
ATOM      1  C   UNL     1      -1.924  -0.575  -1.349  0.00  0.00    +0.117 C 
ENDROOT
BRANCH   1   2
ATOM      2  C   UNL     1      -3.336  -1.100  -1.298  0.00  0.00    -0.029 A 
ATOM      3  C   UNL     1      -3.569  -2.462  -1.384  0.00  0.00    +0.054 A 
ATOM      4  C   UNL     1      -4.867  -2.940  -1.336  0.00  0.00    +0.163 A 
ATOM      5  C   UNL     1      -5.929  -2.058  -1.203  0.00  0.00    +0.176 A 
ATOM      6  C   UNL     1      -5.693  -0.696  -1.118  0.00  0.00    +0.063 A 
ATOM      7  C   UNL     1      -4.393  -0.221  -1.161  0.00  0.00    +0.024 A 
ATOM      8 BR   UNL     1      -7.139   0.510  -0.938  0.00  0.00    -0.046 Br
ATOM      9  O   UNL     1      -7.205  -2.540  -1.157  0.00  0.00    -0.487 OA
ATOM     10  C   UNL     1      -7.699  -3.117  -2.367  0.00  0.00    +0.232 C 
ATOM     11  C   UNL     1      -7.273  -4.572  -2.485  0.00  0.00    +0.082 C 
ATOM     12  C   UNL     1      -5.765  -4.724  -2.609  0.00  0.00    +0.232 C 
ATOM     13  O   UNL     1      -5.110  -4.281  -1.419  0.00  0.00    -0.488 OA
ENDBRANCH   1   2
BRANCH   1  14
ATOM     14  N   UNL     1      -1.376  -0.512   0.012  0.00  0.00    -0.302 NA
ATOM     15  H   UNL     1      -1.426  -1.413   0.464  0.00  0.00    +0.123 HD
BRANCH  14  17
ATOM     16  C   UNL     1      -0.019   1.526   0.010  0.00  0.00    +0.034 C 
ATOM     17  C   UNL     1       0.002  -0.004   0.002  0.00  0.00    +0.138 C 
BRANCH  17  18
ATOM     18  C   UNL     1       0.731  -0.503   1.223  0.00  0.00    +0.230 C 
ATOM     19  O   UNL     1       0.159  -1.213   2.023  0.00  0.00    -0.274 OA
ATOM     20  N   UNL     1       2.019  -0.161   1.426  0.00  0.00    -0.309 N 
ATOM     21  H   UNL     1       2.476   0.406   0.786  0.00  0.00    +0.149 HD
BRANCH  20  22
ATOM     22  C   UNL     1       2.727  -0.647   2.613  0.00  0.00    +0.026 C 
ATOM     23  C   UNL     1       2.748  -2.176   2.604  0.00  0.00    +0.031 C 
ATOM     24  C   UNL     1       4.163  -0.117   2.602  0.00  0.00    +0.031 C 
ATOM     25  C   UNL     1       2.011  -0.153   3.871  0.00  0.00    +0.031 C 
ENDBRANCH  20  22
ENDBRANCH  17  18
ENDBRANCH  14  17
ENDBRANCH   1  14
TORSDOF 5
