REMARK  Name = ZINC16843647
REMARK  6 active torsions:
REMARK  status: ('A' for Active; 'I' for Inactive)
REMARK    1  A    between atoms: C_1  and  C_2
REMARK    2  A    between atoms: C_3  and  C_20
REMARK    3  A    between atoms: N_10  and  C_11
REMARK    4  A    between atoms: C_14  and  C_17
REMARK    5  A    between atoms: C_17  and  C_19
REMARK    6  A    between atoms: C_20  and  C_21
REMARK                            x       y       z     vdW  Elec       q    Type
REMARK                         _______ _______ _______ _____ _____    ______ ____
ROOT
ATOM      1  C   UNL     1      -1.319  -0.585   2.660  0.00  0.00    +0.066 C 
ATOM      2  C   UNL     1      -1.177   0.915   2.672  0.00  0.00    +0.050 A 
ATOM      3  C   UNL     1      -0.234   1.516   1.889  0.00  0.00    +0.042 A 
ATOM      4  C   UNL     1      -0.116   2.917   1.921  0.00  0.00    +0.256 A 
ATOM      5  O   UNL     1       0.719   3.486   1.238  0.00  0.00    -0.267 OA
ATOM      6  N   UNL     1      -0.949   3.619   2.719  0.00  0.00    -0.295 N 
ATOM      7  H   UNL     1      -0.888   4.587   2.754  0.00  0.00    +0.172 HD
ATOM      8  C   UNL     1      -1.869   2.966   3.478  0.00  0.00    +0.200 A 
ATOM      9  N   UNL     1      -1.970   1.652   3.446  0.00  0.00    -0.221 NA
ATOM     10  N   UNL     1      -2.708   3.686   4.290  0.00  0.00    -0.285 N 
ATOM     11  H   UNL     1      -2.593   4.645   4.377  0.00  0.00    +0.155 HD
ENDROOT
BRANCH  10  12
ATOM     12  C   UNL     1      -3.724   3.041   4.988  0.00  0.00    +0.034 A 
ATOM     13  C   UNL     1      -4.372   1.947   4.419  0.00  0.00    +0.024 A 
ATOM     14  C   UNL     1      -5.367   1.308   5.103  0.00  0.00    +0.013 A 
ATOM     15  C   UNL     1      -5.742   1.761   6.375  0.00  0.00    +0.017 A 
ATOM     16  C   UNL     1      -5.091   2.865   6.941  0.00  0.00    +0.013 A 
ATOM     17  C   UNL     1      -4.095   3.494   6.252  0.00  0.00    +0.024 A 
BRANCH  15  18
ATOM     18  C   UNL     1      -6.814   1.080   7.112  0.00  0.00    +0.160 C 
ATOM     19  O   UNL     1      -7.137   1.473   8.213  0.00  0.00    -0.292 OA
ATOM     20  C   UNL     1      -7.512  -0.107   6.500  0.00  0.00    +0.091 C 
ENDBRANCH  15  18
ENDBRANCH  10  12
BRANCH   3  21
ATOM     21  C   UNL     1       0.669   0.691   1.008  0.00  0.00    +0.077 C 
BRANCH  21  22
ATOM     22  C   UNL     1       1.955   0.402   1.739  0.00  0.00    -0.043 A 
ATOM     23  C   UNL     1       2.994   1.314   1.696  0.00  0.00    +0.005 A 
ATOM     24  C   UNL     1       4.172   1.052   2.370  0.00  0.00    +0.020 A 
ATOM     25  C   UNL     1       4.315  -0.127   3.079  0.00  0.00    +0.041 A 
ATOM     26  C   UNL     1       3.278  -1.042   3.117  0.00  0.00    +0.020 A 
ATOM     27  C   UNL     1       2.098  -0.776   2.447  0.00  0.00    +0.005 A 
ATOM     28 CL   UNL     1       5.797  -0.460   3.920  0.00  0.00    -0.084 Cl
ENDBRANCH  21  22
ENDBRANCH   3  21
TORSDOF 4
