REMARK  Name = ZINC19941401
REMARK  10 active torsions:
REMARK  status: ('A' for Active; 'I' for Inactive)
REMARK    1  A    between atoms: C_1  and  C_2
REMARK    2  A    between atoms: C_2  and  C_3
REMARK    3  A    between atoms: C_10  and  C_15
REMARK    4  A    between atoms: C_15  and  C_17
REMARK    5  A    between atoms: C_15  and  N_29
REMARK    6  A    between atoms: N_21  and  C_22
REMARK    7  A    between atoms: C_22  and  C_23
REMARK    8  A    between atoms: N_32  and  C_35
REMARK    9  A    between atoms: C_39  and  C_42
REMARK   10  A    between atoms: C_40  and  C_41
REMARK                            x       y       z     vdW  Elec       q    Type
REMARK                         _______ _______ _______ _____ _____    ______ ____
ROOT
ATOM      1  C   UNL     1       1.667   6.426  -1.702  0.00  0.00    +0.162 C 
ENDROOT
BRANCH   1   9
ATOM      2  C   UNL     1       4.434  10.957   1.476  0.00  0.00    -0.047 A 
ATOM      3  C   UNL     1       5.120  11.505   0.400  0.00  0.00    +0.005 A 
ATOM      4  C   UNL     1       5.001  10.962  -0.861  0.00  0.00    +0.026 A 
ATOM      5  C   UNL     1       4.184   9.854  -1.061  0.00  0.00    +0.049 A 
ATOM      6  C   UNL     1       3.490   9.301   0.032  0.00  0.00    -0.001 A 
ATOM      7  C   UNL     1       3.627   9.869   1.303  0.00  0.00    +0.013 A 
ATOM      8  C   UNL     1       2.633   8.134  -0.188  0.00  0.00    +0.021 A 
ATOM      9  C   UNL     1       2.540   7.627  -1.442  0.00  0.00    +0.042 A 
ATOM     10  C   UNL     1       3.261   8.215  -2.502  0.00  0.00    +0.254 A 
ATOM     11  O   UNL     1       3.167   7.740  -3.621  0.00  0.00    -0.268 OA
ATOM     12  N   UNL     1       4.046   9.290  -2.311  0.00  0.00    -0.322 N 
ATOM     13  H   UNL     1       4.582   9.719  -3.170  0.00  0.00    +0.169 HD
BRANCH   2  15
ATOM     14  C   UNL     1       5.748  10.904   3.578  0.00  0.00    +0.009 C 
ATOM     15  C   UNL     1       4.581  11.569   2.845  0.00  0.00    +0.032 C 
ENDBRANCH   2  15
ENDBRANCH   1   9
BRANCH   1  16
ATOM     16  N   UNL     1       0.705   6.742  -2.767  0.00  0.00    -0.286 NA
ATOM     17  C   UNL     1      -0.090   7.929  -2.423  0.00  0.00    +0.104 C 
ATOM     18  C   UNL     1      -1.022   8.271  -3.589  0.00  0.00    +0.120 C 
ATOM     19  N   UNL     1      -1.892   7.120  -3.870  0.00  0.00    -0.327 N 
ATOM     20  C   UNL     1      -1.096   5.934  -4.214  0.00  0.00    +0.120 C 
ATOM     21  C   UNL     1      -0.165   5.592  -3.049  0.00  0.00    +0.104 C 
BRANCH  19  22
ATOM     22  C   UNL     1      -2.806   7.421  -4.883  0.00  0.00    +0.033 A 
ATOM     23  C   UNL     1      -2.356   7.708  -6.165  0.00  0.00    +0.023 A 
ATOM     24  C   UNL     1      -3.262   8.005  -7.164  0.00  0.00    +0.002 A 
ATOM     25  C   UNL     1      -4.618   8.015  -6.888  0.00  0.00    +0.004 A 
ATOM     26  C   UNL     1      -5.069   7.729  -5.613  0.00  0.00    -0.046 A 
ATOM     27  C   UNL     1      -4.168   7.427  -4.611  0.00  0.00    -0.027 A 
ATOM     28  C   UNL     1      -4.662   7.109  -3.223  0.00  0.00    +0.046 C 
ATOM     29  C   UNL     1      -6.547   7.742  -5.318  0.00  0.00    +0.044 C 
ENDBRANCH  19  22
ENDBRANCH   1  16
BRANCH   1  30
ATOM     30  C   UNL     1       2.525   5.264  -2.130  0.00  0.00    +0.173 A 
ATOM     31  N   UNL     1       3.095   5.100  -3.299  0.00  0.00    -0.111 NA
ATOM     32  N   UNL     1       3.742   3.986  -3.273  0.00  0.00    -0.023 NA
ATOM     33  N   UNL     1       3.606   3.439  -2.116  0.00  0.00    -0.044 NA
ATOM     34  N   UNL     1       2.858   4.194  -1.384  0.00  0.00    -0.223 N 
BRANCH  34  35
ATOM     35  C   UNL     1       2.451   3.937  -0.001  0.00  0.00    +0.182 C 
BRANCH  35  36
ATOM     36  C   UNL     1       1.156   3.165   0.008  0.00  0.00    -0.026 A 
ATOM     37  C   UNL     1       1.175   1.783   0.000  0.00  0.00    +0.005 A 
ATOM     38  C   UNL     1      -0.013   1.076   0.008  0.00  0.00    +0.000 A 
ATOM     39  C   UNL     1      -1.219   1.751   0.017  0.00  0.00    +0.000 A 
ATOM     40  C   UNL     1      -1.238   3.133   0.030  0.00  0.00    +0.000 A 
ATOM     41  C   UNL     1      -0.050   3.840   0.023  0.00  0.00    +0.005 A 
ENDBRANCH  35  36
ENDBRANCH  34  35
ENDBRANCH   1  30
TORSDOF 7
