REMARK  Name = ZINC64028687
REMARK  8 active torsions:
REMARK  status: ('A' for Active; 'I' for Inactive)
REMARK    1  A    between atoms: C_1  and  C_2
REMARK    2  A    between atoms: C_2  and  O_3
REMARK    3  A    between atoms: O_3  and  C_4
REMARK    4  A    between atoms: C_4  and  C_6
REMARK    5  A    between atoms: C_9  and  N_13
REMARK    6  A    between atoms: C_14  and  C_16
REMARK    7  A    between atoms: C_16  and  C_17
REMARK    8  A    between atoms: C_25  and  C_27
REMARK                            x       y       z     vdW  Elec       q    Type
REMARK                         _______ _______ _______ _____ _____    ______ ____
ROOT
ATOM      1  N   UNL     1      -0.343  -6.104  -2.905  0.00  0.00    -0.288 N 
ATOM      2  C   UNL     1      -0.862  -7.334  -3.086  0.00  0.00    +0.219 C 
ATOM      3  O   UNL     1      -0.180  -8.316  -2.882  0.00  0.00    -0.275 OA
ATOM      4  H   UNL     1      -0.889  -5.318  -3.068  0.00  0.00    +0.151 HD
ENDROOT
BRANCH   1   8
ATOM      5  C   UNL     1       1.523  -2.351  -2.727  0.00  0.00    +0.110 C 
ATOM      6  C   UNL     1       1.703  -3.676  -2.909  0.00  0.00    +0.023 C 
ATOM      7  N   UNL     1       1.308  -4.576  -1.986  0.00  0.00    -0.320 N 
ATOM      8  C   UNL     1       1.045  -5.952  -2.462  0.00  0.00    +0.219 C 
ATOM      9  S   UNL     1       2.215  -6.041  -3.885  0.00  0.00    -0.114 S 
ATOM     10  C   UNL     1       2.356  -4.225  -4.168  0.00  0.00    +0.123 C 
ATOM     11  H   UNL     1       1.201  -4.332  -1.053  0.00  0.00    +0.148 HD
BRANCH   5  12
ATOM     12  C   UNL     1       0.776  -1.885  -1.623  0.00  0.00    +0.333 C 
ATOM     13  O   UNL     1       0.229  -2.679  -0.880  0.00  0.00    -0.246 OA
BRANCH  12  14
ATOM     14  O   UNL     1       0.670  -0.560  -1.391  0.00  0.00    -0.462 OA
BRANCH  14  16
ATOM     15  C   UNL     1      -0.106   1.367  -0.156  0.00  0.00    +0.048 C 
ATOM     16  C   UNL     1      -0.100  -0.160  -0.256  0.00  0.00    +0.229 C 
ENDBRANCH  14  16
ENDBRANCH  12  14
ENDBRANCH   5  12
ENDBRANCH   1   8
BRANCH   2  17
ATOM     17  C   UNL     1      -2.290  -7.490  -3.542  0.00  0.00    +0.129 C 
BRANCH  17  18
ATOM     18  C   UNL     1      -2.662  -8.951  -3.539  0.00  0.00    -0.030 C 
ATOM     19  C   UNL     1      -2.581  -9.813  -4.578  0.00  0.00    -0.000 A 
ATOM     20  C   UNL     1      -2.142  -9.654  -5.970  0.00  0.00    +0.010 A 
ATOM     21  C   UNL     1      -2.177 -10.725  -6.795  0.00  0.00    +0.001 A 
ATOM     22  C   UNL     1      -2.622 -11.979  -6.356  0.00  0.00    +0.002 A 
ATOM     23  C   UNL     1      -3.041 -12.203  -5.092  0.00  0.00    +0.026 A 
ATOM     24  C   UNL     1      -3.046 -11.148  -4.139  0.00  0.00    +0.043 A 
ATOM     25  N   UNL     1      -3.400 -11.113  -2.877  0.00  0.00    -0.378 N 
ATOM     26  C   UNL     1      -3.193  -9.751  -2.371  0.00  0.00    +0.104 C 
ATOM     27  C   UNL     1      -4.522  -9.164  -1.890  0.00  0.00    +0.035 C 
ATOM     28  H   UNL     1      -3.737 -11.863  -2.363  0.00  0.00    +0.160 HD
ENDBRANCH  17  18
ENDBRANCH   2  17
TORSDOF 6
