REMARK  Name = ZINC24104964
REMARK  10 active torsions:
REMARK  status: ('A' for Active; 'I' for Inactive)
REMARK    1  A    between atoms: C_1  and  C_2
REMARK    2  A    between atoms: C_5  and  S_8
REMARK    3  A    between atoms: S_8  and  C_9
REMARK    4  A    between atoms: C_9  and  C_10
REMARK    5  A    between atoms: C_10  and  N_11
REMARK    6  A    between atoms: C_12  and  C_14
REMARK    7  A    between atoms: C_14  and  S_15
REMARK    8  A    between atoms: S_15  and  C_16
REMARK    9  A    between atoms: C_19  and  C_22
REMARK   10  A    between atoms: N_20  and  N_21
REMARK                            x       y       z     vdW  Elec       q    Type
REMARK                         _______ _______ _______ _____ _____    ______ ____
ROOT
ATOM      1  S   UNL     1      -0.035  -0.316  -2.778  0.00  0.00    -0.075 S 
ENDROOT
BRANCH   1   2
ATOM      2  C   UNL     1      -0.003  -0.824  -1.091  0.00  0.00    +0.209 A 
ATOM      3  N   UNL     1       0.023  -2.061  -0.649  0.00  0.00    -0.121 NA
ATOM      4  N   UNL     1       0.035  -2.071   0.635  0.00  0.00    -0.127 NA
ATOM      5  C   UNL     1       0.024  -0.841   1.094  0.00  0.00    +0.183 A 
ATOM      6  N   UNL     1       0.002  -0.004   0.002  0.00  0.00    -0.224 N 
BRANCH   5   7
ATOM      7  C   UNL     1       0.033  -0.432   2.514  0.00  0.00    +0.039 A 
ATOM      8  C   UNL     1       0.025   0.921   2.854  0.00  0.00    +0.014 A 
ATOM      9  C   UNL     1       0.029   1.297   4.181  0.00  0.00    +0.021 A 
ATOM     10  C   UNL     1       0.051   0.334   5.176  0.00  0.00    +0.042 A 
ATOM     11  C   UNL     1       0.064  -1.011   4.847  0.00  0.00    +0.040 A 
ATOM     12  C   UNL     1       0.056  -1.399   3.522  0.00  0.00    +0.053 A 
ATOM     13 CL   UNL     1       0.073  -3.086   3.110  0.00  0.00    -0.083 Cl
ATOM     14 CL   UNL     1       0.062   0.815   6.845  0.00  0.00    -0.083 Cl
ENDBRANCH   5   7
BRANCH   6  15
ATOM     15  N   UNL     1      -0.016   1.362   0.009  0.00  0.00    -0.295 N 
ATOM     16  H   UNL     1      -0.009   1.907   0.965  0.00  0.00    +0.163 HD
ATOM     17  H   UNL     1      -0.038   1.917  -0.940  0.00  0.00    +0.163 HD
ENDBRANCH   6  15
ENDBRANCH   1   2
BRANCH   1  18
ATOM     18  C   UNL     1      -0.026  -1.932  -3.593  0.00  0.00    +0.173 C 
BRANCH  18  20
ATOM     19  N   UNL     1      -0.048  -2.814  -5.904  0.00  0.00    -0.314 N 
ATOM     20  C   UNL     1      -0.051  -1.741  -5.087  0.00  0.00    +0.223 C 
ATOM     21  O   UNL     1      -0.073  -0.623  -5.556  0.00  0.00    -0.275 OA
ATOM     22  H   UNL     1      -0.028  -3.828  -5.479  0.00  0.00    +0.149 HD
BRANCH  19  23
ATOM     23  C   UNL     1      -0.073  -2.628  -7.357  0.00  0.00    +0.115 C 
BRANCH  23  24
ATOM     24  C   UNL     1      -0.064  -3.994  -8.045  0.00  0.00    +0.093 C 
BRANCH  24  25
ATOM     25  S   UNL     1      -0.094  -3.765  -9.845  0.00  0.00    -0.124 S 
BRANCH  25  30
ATOM     26  C   UNL     1      -0.050  -9.389 -12.036  0.00  0.00    +0.044 C 
ATOM     27  C   UNL     1      -0.061  -7.985 -11.489  0.00  0.00    -0.050 A 
ATOM     28  C   UNL     1      -0.089  -6.907 -12.355  0.00  0.00    +0.004 A 
ATOM     29  C   UNL     1      -0.099  -5.619 -11.857  0.00  0.00    +0.015 A 
ATOM     30  C   UNL     1      -0.082  -5.407 -10.484  0.00  0.00    +0.008 A 
ATOM     31  C   UNL     1      -0.048  -6.492  -9.617  0.00  0.00    +0.015 A 
ATOM     32  C   UNL     1      -0.044  -7.777 -10.121  0.00  0.00    +0.004 A 
ENDBRANCH  25  30
ENDBRANCH  24  25
ENDBRANCH  23  24
ENDBRANCH  19  23
ENDBRANCH  18  20
ENDBRANCH   1  18
TORSDOF 9
