REMARK  Name = ZINC04905407
REMARK  5 active torsions:
REMARK  status: ('A' for Active; 'I' for Inactive)
REMARK    1  A    between atoms: C_6  and  C_11
REMARK    2  A    between atoms: C_11  and  C_13
REMARK    3  A    between atoms: C_14  and  N_15
REMARK    4  A    between atoms: N_15  and  C_16
REMARK    5  A    between atoms: C_21  and  N_22
REMARK                            x       y       z     vdW  Elec       q    Type
REMARK                         _______ _______ _______ _____ _____    ______ ____
ROOT
ATOM      1  C   UNL     1       5.329  -4.221   1.245  0.00  0.00    +0.066 C 
ATOM      2  C   UNL     1       6.445  -4.856   0.820  0.00  0.00    +0.076 C 
ENDROOT
BRANCH   1   3
ATOM      3  C   UNL     1       5.226  -2.818   1.126  0.00  0.00    +0.187 C 
ATOM      4  O   UNL     1       6.093  -2.191   0.544  0.00  0.00    -0.287 OA
BRANCH   3  10
ATOM      5  C   UNL     1       0.663   1.207   3.247  0.00  0.00    +0.001 A 
ATOM      6  C   UNL     1       1.645   1.942   2.586  0.00  0.00    +0.001 A 
ATOM      7  C   UNL     1       2.729   1.327   2.038  0.00  0.00    +0.008 A 
ATOM      8  C   UNL     1       2.862  -0.069   2.139  0.00  0.00    -0.017 A 
ATOM      9  C   UNL     1       3.967  -0.734   1.586  0.00  0.00    +0.020 A 
ATOM     10  C   UNL     1       4.064  -2.110   1.707  0.00  0.00    +0.022 A 
ATOM     11  C   UNL     1       3.065  -2.840   2.376  0.00  0.00    +0.012 A 
ATOM     12  C   UNL     1       1.990  -2.214   2.917  0.00  0.00    +0.009 A 
ATOM     13  C   UNL     1       1.863  -0.816   2.812  0.00  0.00    -0.018 A 
ATOM     14  C   UNL     1       0.759  -0.146   3.364  0.00  0.00    +0.008 A 
ENDBRANCH   3  10
ENDBRANCH   1   3
BRANCH   2  15
ATOM     15  N   UNL     1       7.559  -4.135   0.497  0.00  0.00    -0.319 N 
ATOM     16  H   UNL     1       7.584  -3.179   0.663  0.00  0.00    +0.152 HD
BRANCH  15  17
ATOM     17  C   UNL     1       8.664  -4.773  -0.074  0.00  0.00    +0.062 A 
ATOM     18  C   UNL     1       8.683  -6.157  -0.192  0.00  0.00    +0.027 A 
ATOM     19  C   UNL     1       9.776  -6.785  -0.756  0.00  0.00    +0.022 A 
ATOM     20  C   UNL     1      10.852  -6.038  -1.203  0.00  0.00    +0.043 A 
ATOM     21  C   UNL     1      10.835  -4.659  -1.086  0.00  0.00    +0.054 A 
ATOM     22  C   UNL     1       9.743  -4.025  -0.528  0.00  0.00    +0.149 A 
ATOM     23 CL   UNL     1      12.224  -6.831  -1.910  0.00  0.00    -0.083 Cl
BRANCH  22  24
ATOM     24  N   UNL     1       9.723  -2.550  -0.409  0.00  0.00    +0.058 N 
ATOM     25  O   UNL     1       8.715  -1.935  -0.669  0.00  0.00    -0.126 OA
ATOM     26  O   UNL     1      10.716  -1.959  -0.051  0.00  0.00    -0.126 OA
ENDBRANCH  22  24
ENDBRANCH  15  17
ENDBRANCH   2  15
TORSDOF 5
