REMARK  Name = ZINC44324225
REMARK  12 active torsions:
REMARK  status: ('A' for Active; 'I' for Inactive)
REMARK    1  A    between atoms: C_1  and  C_2
REMARK    2  A    between atoms: C_4  and  O_34
REMARK    3  A    between atoms: C_5  and  C_33
REMARK    4  A    between atoms: C_6  and  C_9
REMARK    5  A    between atoms: C_7  and  O_8
REMARK    6  A    between atoms: C_9  and  CA_10
REMARK    7  A    between atoms: CA_10  and  C_12
REMARK    8  A    between atoms: CA_10  and  N_15
REMARK    9  A    between atoms: C_16  and  O_18
REMARK   10  A    between atoms: O_18  and  C_19
REMARK   11  A    between atoms: C_19  and  C_20
REMARK   12  A    between atoms: O_34  and  C_35
REMARK                            x       y       z     vdW  Elec       q    Type
REMARK                         _______ _______ _______ _____ _____    ______ ____
ROOT
ATOM      1  N   UNL     1       2.358  -3.725   2.573  0.00  0.00    -0.267 N 
ATOM      2  C   UNL     1       3.703  -3.635   2.568  0.00  0.00    +0.401 C 
ATOM      3  O   UNL     1       4.258  -2.801   3.256  0.00  0.00    -0.226 OA
ATOM      4  H   UNL     1       1.915  -4.391   2.024  0.00  0.00    +0.153 HD
ENDROOT
BRANCH   1   5
ATOM      5  CA  UNL     1       1.565  -2.818   3.407  0.00  0.00    +0.193 C 
BRANCH   5   6
ATOM      6  C   UNL     1       1.545  -3.329   4.825  0.00  0.00    +0.376 C 
ATOM      7  O   UNL     1       1.623  -4.526   5.043  0.00  0.00    -0.244 OA
ATOM      8  OXT UNL     1       1.450  -2.545   5.754  0.00  0.00    -0.244 OA
ENDBRANCH   5   6
BRANCH   5   9
ATOM      9  C   UNL     1       0.135  -2.750   2.869  0.00  0.00    +0.073 C 
BRANCH   9  15
ATOM     10  C   UNL     1       0.167  -3.162  -2.126  0.00  0.00    +0.047 C 
ATOM     11  C   UNL     1       0.157  -2.304  -0.888  0.00  0.00    -0.005 A 
ATOM     12  C   UNL     1       0.154  -0.927  -1.001  0.00  0.00    +0.052 A 
ATOM     13  C   UNL     1       0.145  -0.137   0.139  0.00  0.00    +0.124 A 
ATOM     14  C   UNL     1       0.138  -0.730   1.393  0.00  0.00    -0.002 A 
ATOM     15  C   UNL     1       0.141  -2.106   1.506  0.00  0.00    +0.003 A 
ATOM     16  C   UNL     1       0.145  -2.896   0.366  0.00  0.00    +0.123 A 
ATOM     17  C   UNL     1       0.129   0.129   2.631  0.00  0.00    +0.048 C 
BRANCH  16  18
ATOM     18  O   UNL     1       0.142  -4.251   0.478  0.00  0.00    -0.506 OA
ATOM     19  H   UNL     1       1.021  -4.639   0.584  0.00  0.00    +0.292 HD
ENDBRANCH  16  18
BRANCH  13  20
ATOM     20  O   UNL     1       0.143   1.218   0.027  0.00  0.00    -0.495 OA
ATOM     21  C   UNL     1       0.151   1.760  -1.296  0.00  0.00    +0.277 C 
ENDBRANCH  13  20
ENDBRANCH   9  15
ENDBRANCH   5   9
ENDBRANCH   1   5
BRANCH   2  22
ATOM     22  O   UNL     1       4.431  -4.468   1.802  0.00  0.00    -0.449 OA
BRANCH  22  23
ATOM     23  C   UNL     1       5.851  -4.316   1.846  0.00  0.00    +0.246 C 
BRANCH  23  24
ATOM     24  C   UNL     1       6.503  -5.343   0.917  0.00  0.00    +0.088 C 
ATOM     25  C   UNL     1       6.192  -5.013  -0.522  0.00  0.00    -0.029 A 
ATOM     26  C   UNL     1       5.003  -4.920  -1.214  0.00  0.00    +0.005 A 
ATOM     27  C   UNL     1       5.008  -4.593  -2.558  0.00  0.00    +0.000 A 
ATOM     28  C   UNL     1       6.205  -4.358  -3.211  0.00  0.00    +0.001 A 
ATOM     29  C   UNL     1       7.399  -4.448  -2.526  0.00  0.00    +0.009 A 
ATOM     30  C   UNL     1       7.402  -4.778  -1.170  0.00  0.00    -0.014 A 
ATOM     31  C   UNL     1       8.518  -4.941  -0.206  0.00  0.00    -0.014 A 
ATOM     32  C   UNL     1       8.005  -5.277   1.044  0.00  0.00    -0.029 A 
ATOM     33  C   UNL     1       8.854  -5.483   2.112  0.00  0.00    +0.005 A 
ATOM     34  C   UNL     1      10.221  -5.355   1.944  0.00  0.00    +0.000 A 
ATOM     35  C   UNL     1      10.740  -5.021   0.706  0.00  0.00    +0.001 A 
ATOM     36  C   UNL     1       9.898  -4.814  -0.367  0.00  0.00    +0.009 A 
ENDBRANCH  23  24
ENDBRANCH  22  23
ENDBRANCH   2  22
TORSDOF 9
