REMARK  Name = ZINC58021201
REMARK  4 active torsions:
REMARK  status: ('A' for Active; 'I' for Inactive)
REMARK    1  A    between atoms: C_4  and  C_7
REMARK    2  A    between atoms: C_12  and  C_15
REMARK    3  A    between atoms: C_19  and  C_21
REMARK    4  A    between atoms: C_21  and  N_22
REMARK                            x       y       z     vdW  Elec       q    Type
REMARK                         _______ _______ _______ _____ _____    ______ ____
ROOT
ATOM      1  C   UNL     1       3.424  -1.265   0.230  0.00  0.00    +0.064 A 
ATOM      2  C   UNL     1       4.220  -1.269   1.318  0.00  0.00    +0.075 A 
ATOM      3  S   UNL     1       5.700  -2.047   0.690  0.00  0.00    -0.055 S 
ATOM      4  C   UNL     1       5.147  -2.308  -0.977  0.00  0.00    +0.201 A 
ATOM      5  N   UNL     1       3.873  -1.797  -0.962  0.00  0.00    -0.269 N 
ATOM      6  C   UNL     1       3.423  -2.000  -2.262  0.00  0.00    +0.169 A 
ATOM      7  N   UNL     1       4.388  -2.585  -2.932  0.00  0.00    -0.128 NA
ATOM      8  N   UNL     1       5.410  -2.760  -2.169  0.00  0.00    -0.121 NA
ENDROOT
BRANCH   1  12
ATOM      9  C   UNL     1      -0.486   0.379   0.472  0.00  0.00    +0.000 A 
ATOM     10  C   UNL     1       0.617   1.203   0.605  0.00  0.00    +0.001 A 
ATOM     11  C   UNL     1       1.890   0.676   0.527  0.00  0.00    +0.010 A 
ATOM     12  C   UNL     1       2.063  -0.693   0.315  0.00  0.00    -0.001 A 
ATOM     13  C   UNL     1       0.946  -1.519   0.182  0.00  0.00    +0.010 A 
ATOM     14  C   UNL     1      -0.321  -0.979   0.261  0.00  0.00    +0.001 A 
ENDBRANCH   1  12
BRANCH   6  15
ATOM     15  C   UNL     1       2.097  -1.623  -2.793  0.00  0.00    +0.020 A 
ATOM     16  C   UNL     1       1.476  -0.449  -2.362  0.00  0.00    +0.011 A 
ATOM     17  C   UNL     1       0.238  -0.104  -2.862  0.00  0.00    +0.001 A 
ATOM     18  C   UNL     1      -0.389  -0.918  -3.789  0.00  0.00    +0.002 A 
ATOM     19  C   UNL     1       0.220  -2.083  -4.220  0.00  0.00    -0.064 A 
ATOM     20  C   UNL     1       1.461  -2.437  -3.732  0.00  0.00    +0.013 A 
BRANCH  19  21
ATOM     21  C   UNL     1      -0.470  -2.963  -5.230  0.00  0.00    -0.051 C 
BRANCH  21  22
ATOM     22  N   UNL     1      -0.084  -2.550  -6.585  0.00  0.00    +0.381 N 
ATOM     23  H   UNL     1      -0.547  -3.139  -7.261  0.00  0.00    -0.090 HD
ATOM     24  H   UNL     1      -0.357  -1.590  -6.735  0.00  0.00    -0.090 HD
ATOM     25  H   UNL     1       0.915  -2.636  -6.692  0.00  0.00    -0.090 HD
ENDBRANCH  21  22
ENDBRANCH  19  21
ENDBRANCH   6  15
TORSDOF 4
