REMARK  Name = ZINC21664192
REMARK  7 active torsions:
REMARK  status: ('A' for Active; 'I' for Inactive)
REMARK    1  A    between atoms: C_1  and  C_2
REMARK    2  A    between atoms: C_2  and  C_3
REMARK    3  A    between atoms: N_9  and  C_10
REMARK    4  A    between atoms: C_10  and  C_11
REMARK    5  A    between atoms: C_11  and  C_12
REMARK    6  A    between atoms: C_12  and  N_13
REMARK    7  A    between atoms: C_14  and  C_16
REMARK                            x       y       z     vdW  Elec       q    Type
REMARK                         _______ _______ _______ _____ _____    ______ ____
ROOT
ATOM      1  C   UNL     1      -0.476  -6.706   0.976  0.00  0.00    +0.078 C 
ATOM      2  C   UNL     1       0.440  -6.302  -0.183  0.00  0.00    +0.032 C 
ATOM      3  C   UNL     1       0.971  -4.888   0.062  0.00  0.00    +0.108 C 
ATOM      4  N   UNL     1       1.712  -4.855   1.329  0.00  0.00    -0.308 N 
ATOM      5  C   UNL     1       0.842  -5.194   2.462  0.00  0.00    +0.108 C 
ATOM      6  C   UNL     1       0.307  -6.617   2.289  0.00  0.00    +0.032 C 
ATOM      7  C   UNL     1       2.316  -3.624   1.518  0.00  0.00    +0.184 A 
ATOM      8  N   UNL     1       3.573  -3.353   1.747  0.00  0.00    -0.139 NA
ATOM      9  N   UNL     1       4.013  -2.043   1.915  0.00  0.00    -0.169 N 
ATOM     10  C   UNL     1       5.288  -1.626   2.160  0.00  0.00    +0.279 A 
ATOM     11  O   UNL     1       6.189  -2.446   2.251  0.00  0.00    -0.265 OA
ATOM     12  C   UNL     1       5.571  -0.261   2.308  0.00  0.00    +0.040 A 
ATOM     13  C   UNL     1       4.552   0.651   2.197  0.00  0.00    +0.053 A 
ATOM     14  N   UNL     1       3.315   0.208   1.959  0.00  0.00    -0.226 NA
ATOM     15  C   UNL     1       3.062  -1.067   1.826  0.00  0.00    +0.201 A 
ATOM     16  S   UNL     1       1.578  -1.998   1.513  0.00  0.00    -0.013 S 
ATOM     17  C   UNL     1       4.767   2.135   2.325  0.00  0.00    +0.056 C 
ATOM     18  C   UNL     1       6.103   2.425   3.008  0.00  0.00    +0.006 C 
ATOM     19  C   UNL     1       7.197   1.628   2.289  0.00  0.00    +0.005 C 
ATOM     20  C   UNL     1       6.993   0.145   2.591  0.00  0.00    +0.042 C 
ENDROOT
BRANCH   1  22
ATOM     21  N   UNL     1      -1.777  -8.692   1.671  0.00  0.00    -0.315 N 
ATOM     22  C   UNL     1      -0.954  -8.121   0.770  0.00  0.00    +0.216 C 
ATOM     23  O   UNL     1      -0.598  -8.745  -0.208  0.00  0.00    -0.276 OA
ATOM     24  H   UNL     1      -2.099  -8.126   2.558  0.00  0.00    +0.149 HD
BRANCH  21  25
ATOM     25  C   UNL     1      -2.242 -10.066   1.471  0.00  0.00    +0.102 C 
BRANCH  25  26
ATOM     26  C   UNL     1      -3.156 -10.469   2.630  0.00  0.00    +0.000 C 
BRANCH  26  27
ATOM     27  C   UNL     1      -3.642 -11.905   2.421  0.00  0.00    -0.077 C 
BRANCH  27  33
ATOM     28  C   UNL     1      -5.087 -13.629   3.316  0.00  0.00    -0.069 C 
ATOM     29  C   UNL     1      -5.875 -14.058   4.555  0.00  0.00    -0.015 C 
ATOM     30  C   UNL     1      -6.994 -13.045   4.818  0.00  0.00    -0.003 C 
ATOM     31  C   UNL     1      -6.381 -11.653   4.992  0.00  0.00    -0.019 C 
ATOM     32  C   UNL     1      -5.577 -11.294   3.740  0.00  0.00    -0.078 C 
ATOM     33  N   UNL     1      -4.520 -12.292   3.533  0.00  0.00    +0.382 N 
ATOM     34  H   UNL     1      -3.911 -12.330   4.449  0.00  0.00    -0.081 HD
BRANCH  28  36
ATOM     35  C   UNL     1      -4.549 -15.991   2.705  0.00  0.00    +0.002 C 
ATOM     36  C   UNL     1      -3.955 -14.627   3.062  0.00  0.00    -0.019 C 
ENDBRANCH  28  36
ENDBRANCH  27  33
ENDBRANCH  26  27
ENDBRANCH  25  26
ENDBRANCH  21  25
ENDBRANCH   1  22
TORSDOF 6
