REMARK  Name = ZINC06277253
REMARK  5 active torsions:
REMARK  status: ('A' for Active; 'I' for Inactive)
REMARK    1  A    between atoms: C_1  and  C_2
REMARK    2  A    between atoms: C_5  and  S_8
REMARK    3  A    between atoms: S_8  and  N_11
REMARK    4  A    between atoms: N_11  and  N_12
REMARK    5  A    between atoms: C_16  and  C_19
REMARK                            x       y       z     vdW  Elec       q    Type
REMARK                         _______ _______ _______ _____ _____    ______ ____
ROOT
ATOM      1  N   UNL     1       1.927   1.940  -3.468  0.00  0.00    -0.175 NA
ATOM      2  C   UNL     1       1.324   1.570  -2.401  0.00  0.00    +0.038 C 
ATOM      3  C   UNL     1       2.102   1.205  -1.157  0.00  0.00    +0.053 C 
ATOM      4  C   UNL     1       1.527   1.992   0.025  0.00  0.00    +0.014 C 
ATOM      5  C   UNL     1       0.022   1.734   0.124  0.00  0.00    +0.020 C 
ATOM      6  C   UNL     1      -0.678   2.264  -1.128  0.00  0.00    +0.014 C 
ATOM      7  C   UNL     1      -0.186   1.487  -2.354  0.00  0.00    +0.053 C 
ENDROOT
BRANCH   5   8
ATOM      8  C   UNL     1      -0.528   2.437   1.339  0.00  0.00    -0.044 A 
ATOM      9  C   UNL     1      -0.413   3.809   1.455  0.00  0.00    +0.004 A 
ATOM     10  C   UNL     1      -0.921   4.454   2.567  0.00  0.00    +0.000 A 
ATOM     11  C   UNL     1      -1.536   3.725   3.567  0.00  0.00    +0.000 A 
ATOM     12  C   UNL     1      -1.647   2.352   3.454  0.00  0.00    +0.000 A 
ATOM     13  C   UNL     1      -1.142   1.708   2.340  0.00  0.00    +0.004 A 
ENDBRANCH   5   8
BRANCH   1  14
ATOM     14  N   UNL     1       1.202   2.142  -4.649  0.00  0.00    -0.137 N 
ATOM     15  H   UNL     1       0.258   1.922  -4.682  0.00  0.00    +0.197 HD
BRANCH  14  16
ATOM     16  S   UNL     1       1.956   2.756  -5.989  0.00  0.00    +0.086 S 
ATOM     17  O   UNL     1       1.009   2.707  -7.047  0.00  0.00    -0.149 OA
ATOM     18  O   UNL     1       2.584   3.965  -5.584  0.00  0.00    -0.149 OA
BRANCH  16  23
ATOM     19  C   UNL     1       6.382  -1.073  -7.460  0.00  0.00    +0.044 C 
ATOM     20  C   UNL     1       5.276  -0.117  -7.093  0.00  0.00    -0.050 A 
ATOM     21  C   UNL     1       4.012  -0.283  -7.627  0.00  0.00    +0.005 A 
ATOM     22  C   UNL     1       2.999   0.594  -7.290  0.00  0.00    +0.029 A 
ATOM     23  C   UNL     1       3.249   1.638  -6.418  0.00  0.00    +0.110 A 
ATOM     24  C   UNL     1       4.514   1.807  -5.888  0.00  0.00    +0.029 A 
ATOM     25  C   UNL     1       5.527   0.927  -6.221  0.00  0.00    +0.005 A 
ENDBRANCH  16  23
ENDBRANCH  14  16
ENDBRANCH   1  14
TORSDOF 4
