REMARK  Name = ZINC35034907
REMARK  14 active torsions:
REMARK  status: ('A' for Active; 'I' for Inactive)
REMARK    1  A    between atoms: C_1  and  C_2
REMARK    2  A    between atoms: C_2  and  C_4
REMARK    3  A    between atoms: C_2  and  N_22
REMARK    4  A    between atoms: N_14  and  C_15
REMARK    5  A    between atoms: C_15  and  C_16
REMARK    6  A    between atoms: N_22  and  C_23
REMARK    7  A    between atoms: C_23  and  C_24
REMARK    8  A    between atoms: C_24  and  N_25
REMARK    9  A    between atoms: N_25  and  C_26
REMARK   10  A    between atoms: N_25  and  C_27
REMARK   11  A    between atoms: N_30  and  C_31
REMARK   12  A    between atoms: C_31  and  C_32
REMARK   13  A    between atoms: C_31  and  C_33
REMARK   14  A    between atoms: C_31  and  C_34
REMARK                            x       y       z     vdW  Elec       q    Type
REMARK                         _______ _______ _______ _____ _____    ______ ____
ROOT
ATOM      1  C   UNL     1       1.358   0.092  -1.776  0.00  0.00    +0.134 A 
ATOM      2  N   UNL     1       0.780   0.485  -2.870  0.00  0.00    -0.232 NA
ATOM      3  C   UNL     1       1.235   0.106  -4.090  0.00  0.00    +0.078 A 
ATOM      4  C   UNL     1       0.614   0.529  -5.268  0.00  0.00    +0.028 A 
ATOM      5  C   UNL     1       1.110   0.119  -6.485  0.00  0.00    +0.002 A 
ATOM      6  C   UNL     1       2.221  -0.712  -6.558  0.00  0.00    +0.001 A 
ATOM      7  C   UNL     1       2.850  -1.142  -5.410  0.00  0.00    +0.015 A 
ATOM      8  C   UNL     1       2.365  -0.739  -4.168  0.00  0.00    +0.065 A 
ATOM      9  C   UNL     1       2.995  -1.166  -2.911  0.00  0.00    +0.262 A 
ATOM     10  O   UNL     1       3.971  -1.893  -2.908  0.00  0.00    -0.267 OA
ATOM     11  N   UNL     1       2.451  -0.715  -1.756  0.00  0.00    -0.290 N 
ENDROOT
BRANCH   1  13
ATOM     12  C   UNL     1       1.250   1.993  -0.187  0.00  0.00    +0.036 C 
ATOM     13  C   UNL     1       0.791   0.559  -0.460  0.00  0.00    +0.141 C 
BRANCH  13  14
ATOM     14  N   UNL     1      -0.672   0.518  -0.517  0.00  0.00    -0.278 N 
ATOM     15  C   UNL     1      -1.365  -0.135   0.437  0.00  0.00    +0.303 C 
ATOM     16  O   UNL     1      -0.785  -0.603   1.397  0.00  0.00    -0.253 OA
ATOM     17  N   UNL     1      -2.702  -0.268   0.327  0.00  0.00    -0.294 N 
ATOM     18  H   UNL     1      -3.165   0.106  -0.439  0.00  0.00    +0.151 HD
BRANCH  17  19
ATOM     19  C   UNL     1      -3.455  -0.977   1.364  0.00  0.00    +0.028 C 
ATOM     20  C   UNL     1      -3.264  -0.270   2.708  0.00  0.00    +0.031 C 
ATOM     21  C   UNL     1      -4.941  -0.985   1.000  0.00  0.00    +0.031 C 
ATOM     22  C   UNL     1      -2.948  -2.417   1.469  0.00  0.00    +0.031 C 
ENDBRANCH  17  19
BRANCH  14  23
ATOM     23  C   UNL     1      -1.382   1.185  -1.611  0.00  0.00    +0.091 C 
BRANCH  23  24
ATOM     24  C   UNL     1      -1.769   0.154  -2.672  0.00  0.00    -0.060 C 
BRANCH  24  25
ATOM     25  N   UNL     1      -2.362   0.839  -3.828  0.00  0.00    +0.377 N 
ATOM     26  C   UNL     1      -2.603  -0.132  -4.903  0.00  0.00    -0.097 C 
ATOM     27  C   UNL     1      -3.634   1.457  -3.432  0.00  0.00    -0.097 C 
ATOM     28  H   UNL     1      -1.729   1.554  -4.156  0.00  0.00    -0.083 HD
ENDBRANCH  24  25
ENDBRANCH  23  24
ENDBRANCH  14  23
ENDBRANCH  13  14
ENDBRANCH   1  13
BRANCH  11  29
ATOM     29  C   UNL     1       3.043  -1.104  -0.474  0.00  0.00    +0.161 C 
BRANCH  29  30
ATOM     30  C   UNL     1       2.520  -2.458  -0.070  0.00  0.00    -0.028 A 
ATOM     31  C   UNL     1       1.374  -2.556   0.697  0.00  0.00    +0.005 A 
ATOM     32  C   UNL     1       0.894  -3.798   1.067  0.00  0.00    +0.000 A 
ATOM     33  C   UNL     1       1.560  -4.943   0.671  0.00  0.00    +0.000 A 
ATOM     34  C   UNL     1       2.705  -4.845  -0.097  0.00  0.00    +0.000 A 
ATOM     35  C   UNL     1       3.183  -3.603  -0.471  0.00  0.00    +0.005 A 
ENDBRANCH  29  30
ENDBRANCH  11  29
TORSDOF 8
