REMARK  Name = ZINC36128835
REMARK  7 active torsions:
REMARK  status: ('A' for Active; 'I' for Inactive)
REMARK    1  A    between atoms: C_1  and  C_2
REMARK    2  A    between atoms: C_2  and  C_3
REMARK    3  A    between atoms: C_7  and  C_22
REMARK    4  A    between atoms: N_10  and  S_11
REMARK    5  A    between atoms: S_11  and  C_14
REMARK    6  A    between atoms: C_16  and  N_21
REMARK    7  A    between atoms: C_19  and  C_20
REMARK                            x       y       z     vdW  Elec       q    Type
REMARK                         _______ _______ _______ _____ _____    ______ ____
ROOT
ATOM      1  S   UNL     1      -3.383   0.812  -1.113  0.00  0.00    +0.062 S 
ATOM      2  O   UNL     1      -3.044   1.738  -0.090  0.00  0.00    -0.153 OA
ATOM      3  O   UNL     1      -3.597   1.210  -2.461  0.00  0.00    -0.153 OA
ENDROOT
BRANCH   1   9
ATOM      4  C   UNL     1      -1.441  -0.675   0.083  0.00  0.00    +0.105 C 
ATOM      5  C   UNL     1      -1.446  -2.201   0.232  0.00  0.00    +0.180 C 
ATOM      6  O   UNL     1      -0.980  -2.794  -0.983  0.00  0.00    -0.374 OA
ATOM      7  C   UNL     1      -1.804  -2.526  -2.119  0.00  0.00    +0.131 C 
ATOM      8  C   UNL     1      -1.817  -1.017  -2.389  0.00  0.00    +0.141 C 
ATOM      9  N   UNL     1      -2.180  -0.325  -1.141  0.00  0.00    -0.169 NA
ATOM     10  C   UNL     1      -1.246  -3.259  -3.341  0.00  0.00    +0.039 C 
BRANCH   4  12
ATOM     11  C   UNL     1       0.006   1.357  -0.065  0.00  0.00    +0.005 C 
ATOM     12  C   UNL     1       0.001  -0.173  -0.025  0.00  0.00    +0.019 C 
ENDBRANCH   4  12
ENDBRANCH   1   9
BRANCH   1  13
ATOM     13  C   UNL     1      -4.856  -0.000  -0.589  0.00  0.00    +0.110 A 
ATOM     14  C   UNL     1      -5.416   0.309   0.636  0.00  0.00    +0.051 A 
ATOM     15  C   UNL     1      -6.577  -0.332   1.048  0.00  0.00    +0.026 A 
ATOM     16  C   UNL     1      -7.171  -1.282   0.228  0.00  0.00    +0.023 A 
ATOM     17  C   UNL     1      -6.607  -1.586  -0.995  0.00  0.00    +0.007 A 
ATOM     18  C   UNL     1      -5.453  -0.942  -1.405  0.00  0.00    -0.024 A 
ATOM     19  C   UNL     1      -4.843  -1.273  -2.743  0.00  0.00    +0.046 C 
BRANCH  15  20
ATOM     20  N   UNL     1      -7.145  -0.022   2.286  0.00  0.00    -0.358 N 
ATOM     21  H   UNL     1      -6.729   0.641   2.858  0.00  0.00    +0.142 HD
ATOM     22  H   UNL     1      -7.956  -0.470   2.573  0.00  0.00    +0.142 HD
ENDBRANCH  15  20
ENDBRANCH   1  13
TORSDOF 4
