REMARK  Name = ZINC63362992
REMARK  3 active torsions:
REMARK  status: ('A' for Active; 'I' for Inactive)
REMARK    1  A    between atoms: C_1  and  C_2
REMARK    2  A    between atoms: C_13  and  C_30
REMARK    3  A    between atoms: N_20  and  C_23
REMARK                            x       y       z     vdW  Elec       q    Type
REMARK                         _______ _______ _______ _____ _____    ______ ____
ROOT
ATOM      1  C   UNL     1      -0.019   1.526   0.010  0.00  0.00    +0.044 C 
ATOM      2  C   UNL     1       0.002  -0.004   0.002  0.00  0.00    +0.135 C 
ATOM      3  C   UNL     1       0.771  -0.482  -1.235  0.00  0.00    +0.139 C 
ATOM      4  C   UNL     1       2.228  -0.097  -1.013  0.00  0.00    -0.027 C 
ATOM      5  C   UNL     1       2.586   0.634  -2.062  0.00  0.00    -0.000 A 
ATOM      6  C   UNL     1       3.877   1.225  -2.450  0.00  0.00    +0.010 A 
ATOM      7  C   UNL     1       3.886   1.939  -3.606  0.00  0.00    +0.001 A 
ATOM      8  C   UNL     1       2.753   2.124  -4.405  0.00  0.00    +0.002 A 
ATOM      9  C   UNL     1       1.528   1.613  -4.128  0.00  0.00    +0.026 A 
ATOM     10  C   UNL     1       1.393   0.837  -2.940  0.00  0.00    +0.043 A 
ATOM     11  N   UNL     1       0.339   0.210  -2.450  0.00  0.00    -0.375 N 
ATOM     12  C   UNL     1       2.979  -0.467   0.242  0.00  0.00    +0.066 C 
ATOM     13  C   UNL     1       2.101  -0.031   1.428  0.00  0.00    +0.121 C 
ATOM     14  N   UNL     1       0.713  -0.474   1.192  0.00  0.00    -0.283 N 
ATOM     15  C   UNL     1       0.152  -1.296   2.087  0.00  0.00    +0.234 C 
ATOM     16  O   UNL     1       0.833  -1.652   3.026  0.00  0.00    -0.274 OA
ATOM     17  C   UNL     1      -1.249  -1.806   2.016  0.00  0.00    +0.204 C 
ATOM     18  N   UNL     1      -1.959  -1.298   0.854  0.00  0.00    -0.288 N 
ATOM     19  C   UNL     1      -1.402  -0.506  -0.060  0.00  0.00    +0.242 C 
ATOM     20  O   UNL     1      -2.087  -0.157  -0.999  0.00  0.00    -0.273 OA
ATOM     21  H   UNL     1      -0.559   0.206  -2.816  0.00  0.00    +0.160 HD
ENDROOT
BRANCH  18  22
ATOM     22  C   UNL     1      -3.357  -1.694   0.668  0.00  0.00    +0.077 C 
ATOM     23  C   UNL     1      -4.189  -1.156   1.850  0.00  0.00    +0.022 C 
ATOM     24  C   UNL     1      -5.634  -1.103   1.431  0.00  0.00    +0.002 C 
ATOM     25  C   UNL     1      -6.411  -2.371   1.833  0.00  0.00    +0.000 C 
ATOM     26  C   UNL     1      -5.607  -3.664   1.597  0.00  0.00    +0.000 C 
ATOM     27  C   UNL     1      -4.859  -3.646   0.292  0.00  0.00    +0.002 C 
ATOM     28  C   UNL     1      -3.425  -3.144   0.557  0.00  0.00    +0.022 C 
ENDBRANCH  18  22
BRANCH  12  29
ATOM     29  C   UNL     1       4.301   0.256   0.284  0.00  0.00    -0.020 A 
ATOM     30  C   UNL     1       4.333   1.638   0.286  0.00  0.00    +0.006 A 
ATOM     31  C   UNL     1       5.545   2.300   0.324  0.00  0.00    +0.000 A 
ATOM     32  C   UNL     1       6.726   1.582   0.361  0.00  0.00    +0.001 A 
ATOM     33  C   UNL     1       6.695   0.200   0.360  0.00  0.00    +0.020 A 
ATOM     34  C   UNL     1       5.481  -0.464   0.327  0.00  0.00    +0.045 A 
ATOM     35 CL   UNL     1       5.441  -2.200   0.332  0.00  0.00    -0.083 Cl
ENDBRANCH  12  29
TORSDOF 2
