REMARK  Name = ZINC19907497
REMARK  6 active torsions:
REMARK  status: ('A' for Active; 'I' for Inactive)
REMARK    1  A    between atoms: C_1  and  C_2
REMARK    2  A    between atoms: C_7  and  N_8
REMARK    3  A    between atoms: C_9  and  S_26
REMARK    4  A    between atoms: N_12  and  C_13
REMARK    5  A    between atoms: S_26  and  C_27
REMARK    6  A    between atoms: C_27  and  C_28
REMARK                            x       y       z     vdW  Elec       q    Type
REMARK                         _______ _______ _______ _____ _____    ______ ____
ROOT
ATOM      1  N   UNL     1       0.024   0.290   2.272  0.00  0.00    -0.268 N 
ATOM      2  C   UNL     1      -1.067   0.581   3.048  0.00  0.00    +0.141 C 
ATOM      3  N   UNL     1      -0.729   1.066   4.221  0.00  0.00    -0.326 N 
ATOM      4  C   UNL     1       0.598   1.158   4.373  0.00  0.00    +0.111 C 
ATOM      5  N   UNL     1       1.244   1.601   5.425  0.00  0.00    -0.343 N 
ATOM      6  C   UNL     1       1.196   0.641   3.086  0.00  0.00    +0.097 C 
ATOM      7  C   UNL     1       2.052  -0.592   3.348  0.00  0.00    +0.034 C 
ATOM      8  C   UNL     1       2.615  -1.116   2.024  0.00  0.00    +0.003 C 
ATOM      9  C   UNL     1       3.454  -0.022   1.360  0.00  0.00    +0.000 C 
ATOM     10  C   UNL     1       2.576   1.199   1.082  0.00  0.00    +0.003 C 
ATOM     11  C   UNL     1       2.013   1.732   2.403  0.00  0.00    +0.034 C 
ATOM     12  H   UNL     1      -1.369   1.328   4.901  0.00  0.00    +0.169 HD
ATOM     13  H   UNL     1       0.753   1.915   6.199  0.00  0.00    +0.167 HD
ENDROOT
BRANCH   1  20
ATOM     14  C   UNL     1      -0.097   2.105   0.084  0.00  0.00    +0.045 C 
ATOM     15  C   UNL     1      -0.036   0.613  -0.120  0.00  0.00    -0.029 A 
ATOM     16  C   UNL     1      -0.032   0.089  -1.398  0.00  0.00    +0.005 A 
ATOM     17  C   UNL     1       0.025  -1.280  -1.586  0.00  0.00    +0.000 A 
ATOM     18  C   UNL     1       0.076  -2.129  -0.496  0.00  0.00    +0.002 A 
ATOM     19  C   UNL     1       0.072  -1.612   0.785  0.00  0.00    +0.024 A 
ATOM     20  C   UNL     1       0.022  -0.237   0.977  0.00  0.00    +0.039 A 
ENDBRANCH   1  20
BRANCH   5  21
ATOM     21  C   UNL     1       2.613   1.619   5.429  0.00  0.00    +0.041 A 
ATOM     22  C   UNL     1       3.305   2.077   6.552  0.00  0.00    +0.027 A 
ATOM     23  C   UNL     1       4.684   2.092   6.550  0.00  0.00    +0.022 A 
ATOM     24  C   UNL     1       5.383   1.655   5.437  0.00  0.00    +0.041 A 
ATOM     25  C   UNL     1       4.702   1.199   4.320  0.00  0.00    +0.022 A 
ATOM     26  C   UNL     1       3.323   1.173   4.312  0.00  0.00    +0.027 A 
ATOM     27 CL   UNL     1       7.119   1.678   5.442  0.00  0.00    -0.084 Cl
ENDBRANCH   5  21
BRANCH   2  28
ATOM     28  S   UNL     1      -2.733   0.333   2.531  0.00  0.00    -0.080 S 
BRANCH  28  29
ATOM     29  C   UNL     1      -3.719   0.887   3.949  0.00  0.00    +0.202 C 
BRANCH  29  30
ATOM     30  C   UNL     1      -5.184   0.726   3.636  0.00  0.00    +0.366 C 
ATOM     31  O   UNL     1      -5.531   0.280   2.555  0.00  0.00    -0.245 OA
ATOM     32  O   UNL     1      -6.023   1.043   4.462  0.00  0.00    -0.245 OA
ENDBRANCH  29  30
ENDBRANCH  28  29
ENDBRANCH   2  28
TORSDOF 5
