REMARK  Name = ZINC11505915
REMARK  10 active torsions:
REMARK  status: ('A' for Active; 'I' for Inactive)
REMARK    1  A    between atoms: C_1  and  C_2
REMARK    2  A    between atoms: C_2  and  O_3
REMARK    3  A    between atoms: O_3  and  C_4
REMARK    4  A    between atoms: C_4  and  C_6
REMARK    5  A    between atoms: C_7  and  C_21
REMARK    6  A    between atoms: C_12  and  C_14
REMARK    7  A    between atoms: C_21  and  O_22
REMARK    8  A    between atoms: O_22  and  C_23
REMARK    9  A    between atoms: C_23  and  C_25
REMARK   10  A    between atoms: C_28  and  C_31
REMARK                            x       y       z     vdW  Elec       q    Type
REMARK                         _______ _______ _______ _____ _____    ______ ____
ROOT
ATOM      1  C   UNL     1      -0.751   1.500   1.336  0.00  0.00    +0.081 C 
ATOM      2  C   UNL     1      -1.892   2.205   1.183  0.00  0.00    +0.061 C 
ATOM      3  N   UNL     1      -2.309   2.611  -0.052  0.00  0.00    -0.269 N 
ATOM      4  C   UNL     1      -1.641   2.353  -1.183  0.00  0.00    +0.304 C 
ATOM      5  O   UNL     1      -2.091   2.757  -2.237  0.00  0.00    -0.252 OA
ATOM      6  N   UNL     1      -0.485   1.661  -1.191  0.00  0.00    -0.288 N 
ATOM      7  C   UNL     1       0.051   1.176   0.092  0.00  0.00    +0.144 C 
ATOM      8  H   UNL     1      -3.135   3.115  -0.113  0.00  0.00    +0.156 HD
ATOM      9  H   UNL     1      -0.017   1.485  -2.023  0.00  0.00    +0.151 HD
ENDROOT
BRANCH   7  10
ATOM     10  C   UNL     1       1.432   1.754   0.267  0.00  0.00    -0.022 A 
ATOM     11  C   UNL     1       1.669   3.082  -0.037  0.00  0.00    +0.007 A 
ATOM     12  C   UNL     1       2.933   3.614   0.128  0.00  0.00    +0.020 A 
ATOM     13  C   UNL     1       3.965   2.815   0.587  0.00  0.00    +0.041 A 
ATOM     14  C   UNL     1       3.729   1.485   0.886  0.00  0.00    +0.020 A 
ATOM     15  C   UNL     1       2.462   0.955   0.726  0.00  0.00    +0.007 A 
ATOM     16 CL   UNL     1       5.556   3.481   0.788  0.00  0.00    -0.084 Cl
ENDBRANCH   7  10
BRANCH   1  17
ATOM     17  C   UNL     1      -0.320   1.077   2.615  0.00  0.00    +0.339 C 
ATOM     18  O   UNL     1      -0.495  -0.075   2.967  0.00  0.00    -0.245 OA
BRANCH  17  19
ATOM     19  O   UNL     1       0.286   1.951   3.446  0.00  0.00    -0.462 OA
BRANCH  19  21
ATOM     20  C   UNL     1       1.359   2.583   5.517  0.00  0.00    +0.048 C 
ATOM     21  C   UNL     1       0.696   1.456   4.722  0.00  0.00    +0.229 C 
ENDBRANCH  19  21
ENDBRANCH  17  19
ENDBRANCH   1  17
BRANCH   2  22
ATOM     22  C   UNL     1      -2.719   2.549   2.395  0.00  0.00    +0.283 C 
BRANCH  22  23
ATOM     23  O   UNL     1      -2.721   3.988   2.587  0.00  0.00    -0.455 OA
BRANCH  23  24
ATOM     24  C   UNL     1      -3.420   4.464   3.636  0.00  0.00    +0.340 C 
ATOM     25  O   UNL     1      -4.012   3.698   4.369  0.00  0.00    -0.245 OA
BRANCH  24  26
ATOM     26  C   UNL     1      -3.467   5.920   3.894  0.00  0.00    +0.059 A 
ATOM     27  C   UNL     1      -2.782   6.800   3.054  0.00  0.00    +0.016 A 
ATOM     28  C   UNL     1      -2.830   8.157   3.292  0.00  0.00    +0.014 A 
ATOM     29  C   UNL     1      -3.554   8.650   4.377  0.00  0.00    +0.037 A 
ATOM     30  C   UNL     1      -4.235   7.770   5.220  0.00  0.00    +0.014 A 
ATOM     31  C   UNL     1      -4.191   6.413   4.980  0.00  0.00    +0.016 A 
BRANCH  29  32
ATOM     32  C   UNL     1      -3.601  10.107   4.636  0.00  0.00    +0.242 C 
ATOM     33  O   UNL     1      -4.232  10.537   5.582  0.00  0.00    -0.270 OA
ATOM     34  N   UNL     1      -2.945  10.957   3.822  0.00  0.00    -0.325 N 
ATOM     35  H   UNL     1      -2.441  10.614   3.067  0.00  0.00    +0.145 HD
ATOM     36  H   UNL     1      -2.975  11.912   3.991  0.00  0.00    +0.145 HD
ENDBRANCH  29  32
ENDBRANCH  24  26
ENDBRANCH  23  24
ENDBRANCH  22  23
ENDBRANCH   2  22
TORSDOF 9
