REMARK  Name = ZINC33714256
REMARK  15 active torsions:
REMARK  status: ('A' for Active; 'I' for Inactive)
REMARK    1  A    between atoms: C_1  and  C_2
REMARK    2  A    between atoms: C_2  and  C_4
REMARK    3  A    between atoms: C_2  and  C_10
REMARK    4  A    between atoms: C_4  and  C_5
REMARK    5  A    between atoms: C_5  and  C_6
REMARK    6  A    between atoms: C_6  and  C_7
REMARK    7  A    between atoms: C_7  and  C_8
REMARK    8  A    between atoms: C_7  and  C_9
REMARK    9  A    between atoms: C_16  and  C_40
REMARK   10  A    between atoms: C_24  and  O_39
REMARK   11  A    between atoms: C_26  and  O_38
REMARK   12  A    between atoms: C_27  and  C_37
REMARK   13  A    between atoms: C_30  and  O_33
REMARK   14  A    between atoms: O_33  and  C_34
REMARK   15  A    between atoms: C_34  and  C_36
REMARK                            x       y       z     vdW  Elec       q    Type
REMARK                         _______ _______ _______ _____ _____    ______ ____
ROOT
ATOM      1  C   UNL     1       0.858  -0.323   1.274  0.00  0.00    -0.002 C 
ATOM      2  C   UNL     1       0.097  -0.128   2.611  0.00  0.00    +0.004 C 
ATOM      3  C   UNL     1       0.324  -1.429   3.438  0.00  0.00    +0.004 C 
ATOM      4  C   UNL     1       1.556  -2.027   2.742  0.00  0.00    -0.001 C 
ATOM      5  C   UNL     1       1.181  -1.837   1.258  0.00  0.00    -0.026 C 
ATOM      6  C   UNL     1       2.318  -2.238   0.360  0.00  0.00    +0.007 C 
ATOM      7  C   UNL     1       2.924  -3.587   0.768  0.00  0.00    +0.005 C 
ATOM      8  C   UNL     1       2.116  -4.291   1.842  0.00  0.00    +0.001 C 
ATOM      9  C   UNL     1       1.952  -3.429   3.089  0.00  0.00    -0.001 C 
ATOM     10  C   UNL     1       0.991  -4.116   4.052  0.00  0.00    +0.038 C 
ATOM     11  C   UNL     1       1.526  -5.497   4.438  0.00  0.00    +0.147 C 
ATOM     12  C   UNL     1       2.821  -5.829   3.712  0.00  0.00    +0.101 C 
ATOM     13  C   UNL     1       2.688  -5.661   2.203  0.00  0.00    +0.002 C 
ATOM     14  C   UNL     1       4.056  -5.876   1.555  0.00  0.00    +0.013 C 
ATOM     15  C   UNL     1       4.580  -7.275   1.877  0.00  0.00    +0.045 C 
ATOM     16  C   UNL     1       4.612  -7.529   3.381  0.00  0.00    +0.179 C 
ATOM     17  C   UNL     1       3.245  -7.274   4.017  0.00  0.00    +0.082 C 
ATOM     18  C   UNL     1       1.710  -6.709   1.644  0.00  0.00    +0.014 C 
ATOM     19  C   UNL     1      -0.118  -2.540   0.866  0.00  0.00    +0.012 C 
ENDROOT
BRANCH   1  21
ATOM     20  C   UNL     1      -0.485   1.484   0.199  0.00  0.00    +0.008 C 
ATOM     21  C   UNL     1      -0.039   0.025   0.089  0.00  0.00    -0.010 C 
BRANCH  21  22
ATOM     22  C   UNL     1       0.737  -0.174  -1.214  0.00  0.00    +0.003 C 
BRANCH  22  23
ATOM     23  C   UNL     1      -0.167   0.158  -2.402  0.00  0.00    +0.001 C 
BRANCH  23  24
ATOM     24  C   UNL     1       0.609  -0.041  -3.706  0.00  0.00    +0.003 C 
BRANCH  24  25
ATOM     25  C   UNL     1      -0.296   0.291  -4.894  0.00  0.00    -0.017 C 
ATOM     26  C   UNL     1       0.514   0.213  -6.189  0.00  0.00    +0.007 C 
ATOM     27  C   UNL     1      -1.450  -0.712  -4.953  0.00  0.00    +0.007 C 
ENDBRANCH  24  25
ENDBRANCH  23  24
ENDBRANCH  22  23
ENDBRANCH  21  22
ENDBRANCH   1  21
BRANCH  12  28
ATOM     28  O   UNL     1       3.880  -4.996   4.209  0.00  0.00    -0.385 OA
ATOM     29  H   UNL     1       4.051  -5.099   5.155  0.00  0.00    +0.210 HD
ENDBRANCH  12  28
BRANCH  11  30
ATOM     30  O   UNL     1       1.758  -5.524   5.854  0.00  0.00    -0.389 OA
ATOM     31  H   UNL     1       0.967  -5.358   6.385  0.00  0.00    +0.210 HD
ENDBRANCH  11  30
BRANCH  16  32
ATOM     32  O   UNL     1       4.993  -8.890   3.620  0.00  0.00    -0.461 OA
BRANCH  32  33
ATOM     33  C   UNL     1       6.305  -9.141   3.752  0.00  0.00    +0.304 C 
ATOM     34  O   UNL     1       7.104  -8.239   3.668  0.00  0.00    -0.251 OA
ATOM     35  C   UNL     1       6.781 -10.548   4.006  0.00  0.00    +0.136 C 
ENDBRANCH  32  33
ENDBRANCH  16  32
TORSDOF 9
