REMARK  Name = ZINC20635549
REMARK  4 active torsions:
REMARK  status: ('A' for Active; 'I' for Inactive)
REMARK    1  A    between atoms: C_1  and  C_2
REMARK    2  A    between atoms: C_2  and  C_32
REMARK    3  A    between atoms: C_6  and  C_22
REMARK    4  A    between atoms: C_26  and  O_28
REMARK                            x       y       z     vdW  Elec       q    Type
REMARK                         _______ _______ _______ _____ _____    ______ ____
ROOT
ATOM      1  C   UNL     1      -0.019   1.526   0.010  0.00  0.00    +0.011 C 
ATOM      2  C   UNL     1       0.002  -0.004   0.002  0.00  0.00    -0.023 C 
ATOM      3  C   UNL     1      -1.431  -0.539   0.039  0.00  0.00    +0.058 C 
ATOM      4  C   UNL     1      -1.409  -2.048   0.079  0.00  0.00    +0.017 C 
ATOM      5  C   UNL     1      -0.397  -2.713   0.677  0.00  0.00    +0.024 C 
ATOM      6  C   UNL     1      -0.374  -4.219   0.735  0.00  0.00    +0.091 C 
ATOM      7  C   UNL     1      -1.309  -4.820  -0.271  0.00  0.00    +0.044 A 
ATOM      8  C   UNL     1      -1.193  -6.158  -0.638  0.00  0.00    +0.127 A 
ATOM      9  N   UNL     1      -2.044  -6.655  -1.532  0.00  0.00    -0.199 NA
ATOM     10  C   UNL     1      -2.989  -5.896  -2.067  0.00  0.00    +0.221 A 
ATOM     11  N   UNL     1      -3.126  -4.619  -1.741  0.00  0.00    -0.199 NA
ATOM     12  C   UNL     1      -2.309  -4.056  -0.855  0.00  0.00    +0.134 A 
ATOM     13  N   UNL     1      -2.443  -2.721  -0.511  0.00  0.00    -0.302 N 
ATOM     14  N   UNL     1      -3.855  -6.451  -2.993  0.00  0.00    -0.300 N 
ATOM     15  C   UNL     1      -4.910  -5.638  -3.612  0.00  0.00    +0.108 C 
ATOM     16  C   UNL     1      -4.793  -5.753  -5.135  0.00  0.00    +0.019 C 
ATOM     17  C   UNL     1      -4.822  -7.230  -5.534  0.00  0.00    +0.003 C 
ATOM     18  C   UNL     1      -3.632  -7.955  -4.902  0.00  0.00    +0.019 C 
ATOM     19  C   UNL     1      -3.732  -7.863  -3.380  0.00  0.00    +0.108 C 
ATOM     20  N   UNL     1      -0.207  -6.958  -0.083  0.00  0.00    -0.343 N 
ATOM     21  C   UNL     1       0.675  -2.019   1.266  0.00  0.00    +0.162 C 
ATOM     22  O   UNL     1       1.565  -2.646   1.805  0.00  0.00    -0.292 OA
ATOM     23  C   UNL     1       0.742  -0.517   1.242  0.00  0.00    +0.086 C 
ATOM     24  C   UNL     1       0.706  -0.503  -1.262  0.00  0.00    +0.011 C 
ATOM     25  H   UNL     1      -3.277  -2.260  -0.691  0.00  0.00    +0.153 HD
ATOM     26  H   UNL     1       0.410  -6.587   0.568  0.00  0.00    +0.144 HD
ATOM     27  H   UNL     1      -0.133  -7.889  -0.345  0.00  0.00    +0.144 HD
ENDROOT
BRANCH   6  28
ATOM     28  C   UNL     1      -0.783  -4.666   2.115  0.00  0.00    -0.032 A 
ATOM     29  C   UNL     1      -2.031  -4.330   2.608  0.00  0.00    +0.005 A 
ATOM     30  C   UNL     1      -2.409  -4.739   3.873  0.00  0.00    +0.004 A 
ATOM     31  C   UNL     1      -1.541  -5.482   4.649  0.00  0.00    +0.045 A 
ATOM     32  C   UNL     1      -0.289  -5.820   4.157  0.00  0.00    +0.117 A 
ATOM     33  C   UNL     1       0.086  -5.414   2.884  0.00  0.00    +0.050 A 
BRANCH  32  34
ATOM     34  O   UNL     1       0.567  -6.551   4.918  0.00  0.00    -0.507 OA
ATOM     35  H   UNL     1       0.481  -7.507   4.798  0.00  0.00    +0.292 HD
ENDBRANCH  32  34
ENDBRANCH   6  28
TORSDOF 2
