REMARK  Name = ZINC10272765
REMARK  8 active torsions:
REMARK  status: ('A' for Active; 'I' for Inactive)
REMARK    1  A    between atoms: C_1  and  C_2
REMARK    2  A    between atoms: C_2  and  C_3
REMARK    3  A    between atoms: C_6  and  N_9
REMARK    4  A    between atoms: C_10  and  C_12
REMARK    5  A    between atoms: C_12  and  S_13
REMARK    6  A    between atoms: S_13  and  C_14
REMARK    7  A    between atoms: C_18  and  S_21
REMARK    8  A    between atoms: S_21  and  C_24
REMARK                            x       y       z     vdW  Elec       q    Type
REMARK                         _______ _______ _______ _____ _____    ______ ____
ROOT
ATOM      1  C   UNL     1      -9.752  -3.102  -2.608  0.00  0.00    +0.192 A 
ATOM      2  N   UNL     1     -10.503  -3.264  -3.687  0.00  0.00    -0.182 NA
ATOM      3  C   UNL     1     -11.774  -3.631  -3.578  0.00  0.00    +0.299 A 
ATOM      4  O   UNL     1     -12.539  -3.796  -4.684  0.00  0.00    -0.264 OA
ATOM      5  C   UNL     1     -12.310  -3.846  -2.309  0.00  0.00    +0.177 A 
ATOM      6  C   UNL     1     -11.493  -3.667  -1.208  0.00  0.00    +0.146 A 
ATOM      7  N   UNL     1     -10.233  -3.304  -1.390  0.00  0.00    -0.228 NA
ENDROOT
BRANCH   5   8
ATOM      8  S   UNL     1     -13.992  -4.335  -2.113  0.00  0.00    +0.032 S 
ATOM      9  O   UNL     1     -14.206  -5.420  -3.006  0.00  0.00    -0.164 OA
ATOM     10  O   UNL     1     -14.223  -4.441  -0.715  0.00  0.00    -0.164 OA
BRANCH   8  11
ATOM     11  C   UNL     1     -14.992  -3.003  -2.689  0.00  0.00    +0.095 A 
ATOM     12  C   UNL     1     -15.388  -2.008  -1.815  0.00  0.00    +0.027 A 
ATOM     13  C   UNL     1     -16.172  -0.963  -2.267  0.00  0.00    +0.003 A 
ATOM     14  C   UNL     1     -16.562  -0.913  -3.592  0.00  0.00    +0.020 A 
ATOM     15  C   UNL     1     -16.166  -1.909  -4.467  0.00  0.00    +0.043 A 
ATOM     16  C   UNL     1     -15.376  -2.952  -4.016  0.00  0.00    +0.047 A 
ATOM     17 CL   UNL     1     -16.655  -1.847  -6.131  0.00  0.00    -0.083 Cl
ENDBRANCH   8  11
ENDBRANCH   5   8
BRANCH   1  18
ATOM     18  S   UNL     1      -8.069  -2.613  -2.797  0.00  0.00    -0.077 S 
BRANCH  18  19
ATOM     19  C   UNL     1      -7.446  -2.518  -1.097  0.00  0.00    +0.173 C 
BRANCH  19  21
ATOM     20  N   UNL     1      -5.320  -1.968   0.042  0.00  0.00    -0.285 N 
ATOM     21  C   UNL     1      -5.997  -2.104  -1.115  0.00  0.00    +0.227 C 
ATOM     22  O   UNL     1      -5.440  -1.894  -2.172  0.00  0.00    -0.275 OA
ATOM     23  H   UNL     1      -5.742  -2.209   0.882  0.00  0.00    +0.155 HD
BRANCH  20  27
ATOM     24  C   UNL     1      -1.419  -0.507   0.015  0.00  0.00    -0.048 A 
ATOM     25  C   UNL     1      -2.333  -0.051  -0.916  0.00  0.00    +0.005 A 
ATOM     26  C   UNL     1      -3.627  -0.533  -0.910  0.00  0.00    +0.023 A 
ATOM     27  C   UNL     1      -4.010  -1.478   0.033  0.00  0.00    +0.033 A 
ATOM     28  C   UNL     1      -3.089  -1.935   0.967  0.00  0.00    +0.023 A 
ATOM     29  C   UNL     1      -1.795  -1.452   0.952  0.00  0.00    +0.005 A 
BRANCH  24  31
ATOM     30  C   UNL     1       0.858  -0.854  -0.904  0.00  0.00    +0.009 C 
ATOM     31  C   UNL     1      -0.007   0.021   0.005  0.00  0.00    +0.032 C 
ENDBRANCH  24  31
ENDBRANCH  20  27
ENDBRANCH  19  21
ENDBRANCH  18  19
ENDBRANCH   1  18
TORSDOF 7
