REMARK  Name = ZINC39678327
REMARK  10 active torsions:
REMARK  status: ('A' for Active; 'I' for Inactive)
REMARK    1  A    between atoms: C_1  and  C_2
REMARK    2  A    between atoms: C_2  and  C_3
REMARK    3  A    between atoms: C_3  and  C_4
REMARK    4  A    between atoms: C_4  and  C_5
REMARK    5  A    between atoms: C_5  and  C_6
REMARK    6  A    between atoms: C_6  and  C_7
REMARK    7  A    between atoms: C_11  and  C_20
REMARK    8  A    between atoms: N_22  and  C_23
REMARK    9  A    between atoms: C_23  and  C_24
REMARK   10  A    between atoms: C_29  and  N_30
REMARK                            x       y       z     vdW  Elec       q    Type
REMARK                         _______ _______ _______ _____ _____    ______ ____
ROOT
ATOM      1  C   UNL     1       2.074  -4.407   3.593  0.00  0.00    +0.216 C 
ATOM      2  O   UNL     1       2.442  -3.673   4.486  0.00  0.00    -0.276 OA
ATOM      3  N   UNL     1       2.077  -5.743   3.775  0.00  0.00    -0.300 N 
ATOM      4  C   UNL     1       1.585  -6.787   2.845  0.00  0.00    +0.121 C 
ATOM      5  C   UNL     1       2.615  -7.932   2.964  0.00  0.00    +0.100 C 
ATOM      6  C   UNL     1       3.259  -7.739   4.347  0.00  0.00    -0.004 C 
ATOM      7  C   UNL     1       2.579  -6.500   4.947  0.00  0.00    +0.115 C 
ATOM      8  C   UNL     1       3.002  -8.961   5.224  0.00  0.00    -0.010 C 
ATOM      9  C   UNL     1       3.701  -8.770   6.574  0.00  0.00    -0.082 C 
ATOM     10  N   UNL     1       5.142  -8.591   6.360  0.00  0.00    +0.379 N 
ATOM     11  C   UNL     1       5.385  -7.363   5.593  0.00  0.00    -0.082 C 
ATOM     12  C   UNL     1       4.758  -7.494   4.202  0.00  0.00    -0.010 C 
ATOM     13  H   UNL     1       5.607  -8.527   7.253  0.00  0.00    -0.086 HD
ATOM     14  H   UNL     1       5.505  -9.382   5.850  0.00  0.00    -0.086 HD
ENDROOT
BRANCH   5  15
ATOM     15  C   UNL     1       3.654  -7.818   1.878  0.00  0.00    +0.218 C 
ATOM     16  O   UNL     1       3.992  -6.725   1.475  0.00  0.00    -0.275 OA
ATOM     17  N   UNL     1       4.208  -8.930   1.355  0.00  0.00    -0.311 N 
ATOM     18  H   UNL     1       3.890  -9.804   1.629  0.00  0.00    +0.149 HD
BRANCH  17  19
ATOM     19  C   UNL     1       5.290  -8.817   0.375  0.00  0.00    +0.141 C 
BRANCH  19  20
ATOM     20  C   UNL     1       5.647 -10.188  -0.139  0.00  0.00    -0.009 A 
ATOM     21  C   UNL     1       6.767 -10.838   0.344  0.00  0.00    +0.007 A 
ATOM     22  C   UNL     1       7.095 -12.096  -0.127  0.00  0.00    +0.000 A 
ATOM     23  C   UNL     1       6.304 -12.708  -1.082  0.00  0.00    +0.002 A 
ATOM     24  C   UNL     1       5.184 -12.065  -1.569  0.00  0.00    +0.023 A 
ATOM     25  C   UNL     1       4.848 -10.803  -1.094  0.00  0.00    +0.034 A 
BRANCH  25  26
ATOM     26  N   UNL     1       3.712 -10.152  -1.580  0.00  0.00    -0.330 N 
ATOM     27  C   UNL     1       3.779  -9.347  -2.808  0.00  0.00    +0.105 C 
ATOM     28  C   UNL     1       2.695  -9.832  -3.775  0.00  0.00    +0.019 C 
ATOM     29  C   UNL     1       1.336  -9.796  -3.072  0.00  0.00    +0.003 C 
ATOM     30  C   UNL     1       1.359 -10.734  -1.863  0.00  0.00    +0.019 C 
ATOM     31  C   UNL     1       2.427 -10.263  -0.877  0.00  0.00    +0.105 C 
ENDBRANCH  25  26
ENDBRANCH  19  20
ENDBRANCH  17  19
ENDBRANCH   5  15
BRANCH   1  32
ATOM     32  C   UNL     1       1.614  -3.826   2.281  0.00  0.00    +0.096 C 
BRANCH  32  33
ATOM     33  C   UNL     1       1.827  -2.311   2.292  0.00  0.00    +0.009 C 
BRANCH  33  34
ATOM     34  C   UNL     1       1.254  -1.707   1.008  0.00  0.00    +0.000 C 
BRANCH  34  35
ATOM     35  C   UNL     1       1.358  -0.181   1.073  0.00  0.00    -0.000 C 
BRANCH  35  37
ATOM     36  C   UNL     1       0.889   1.948  -0.147  0.00  0.00    +0.004 C 
ATOM     37  C   UNL     1       0.785   0.423  -0.211  0.00  0.00    -0.003 C 
ENDBRANCH  35  37
ENDBRANCH  34  35
ENDBRANCH  33  34
ENDBRANCH  32  33
ENDBRANCH   1  32
TORSDOF 9
