REMARK  Name = ZINC08767668
REMARK  8 active torsions:
REMARK  status: ('A' for Active; 'I' for Inactive)
REMARK    1  A    between atoms: C_1  and  C_2
REMARK    2  A    between atoms: C_5  and  C_8
REMARK    3  A    between atoms: C_8  and  O_37
REMARK    4  A    between atoms: C_9  and  C_31
REMARK    5  A    between atoms: C_11  and  C_17
REMARK    6  A    between atoms: C_20  and  C_22
REMARK    7  A    between atoms: C_26  and  N_28
REMARK    8  A    between atoms: C_31  and  C_33
REMARK                            x       y       z     vdW  Elec       q    Type
REMARK                         _______ _______ _______ _____ _____    ______ ____
ROOT
ATOM      1  C   UNL     1       2.390   6.284  -1.357  0.00  0.00    +0.172 C 
ATOM      2  C   UNL     1       1.640   4.949  -1.424  0.00  0.00    +0.147 C 
ATOM      3  C   UNL     1       1.476   4.410   0.001  0.00  0.00    +0.156 C 
ATOM      4  N   UNL     1       0.810   5.420   0.824  0.00  0.00    -0.289 N 
ATOM      5  C   UNL     1       0.942   6.729   0.563  0.00  0.00    +0.303 C 
ATOM      6  O   UNL     1       0.375   7.528   1.284  0.00  0.00    -0.253 OA
ATOM      7  N   UNL     1       1.674   7.193  -0.461  0.00  0.00    -0.267 N 
ATOM      8  H   UNL     1       0.261   5.138   1.572  0.00  0.00    +0.151 HD
ATOM      9  H   UNL     1       1.731   8.149  -0.610  0.00  0.00    +0.153 HD
ENDROOT
BRANCH   1  14
ATOM     10  C   UNL     1       7.732   5.394   0.659  0.00  0.00    +0.044 C 
ATOM     11  C   UNL     1       6.339   5.626   0.133  0.00  0.00    -0.050 A 
ATOM     12  C   UNL     1       5.305   5.892   1.011  0.00  0.00    +0.004 A 
ATOM     13  C   UNL     1       4.027   6.105   0.528  0.00  0.00    +0.008 A 
ATOM     14  C   UNL     1       3.784   6.052  -0.831  0.00  0.00    +0.003 A 
ATOM     15  C   UNL     1       4.817   5.781  -1.708  0.00  0.00    +0.008 A 
ATOM     16  C   UNL     1       6.096   5.574  -1.227  0.00  0.00    +0.004 A 
ENDBRANCH   1  14
BRANCH   3  17
ATOM     17  C   UNL     1       0.643   3.154  -0.028  0.00  0.00    +0.127 A 
ATOM     18  C   UNL     1       1.121   1.894  -0.045  0.00  0.00    +0.047 A 
ATOM     19  C   UNL     1       0.008   1.031  -0.070  0.00  0.00    +0.050 A 
ATOM     20  C   UNL     1      -1.100   1.820  -0.071  0.00  0.00    +0.135 A 
ATOM     21  O   UNL     1      -0.699   3.105  -0.040  0.00  0.00    -0.458 OA
BRANCH  20  22
ATOM     22  C   UNL     1      -2.500   1.348  -0.099  0.00  0.00    +0.019 A 
ATOM     23  C   UNL     1      -2.779  -0.019  -0.126  0.00  0.00    +0.012 A 
ATOM     24  C   UNL     1      -4.088  -0.452  -0.152  0.00  0.00    +0.003 A 
ATOM     25  C   UNL     1      -5.124   0.465  -0.151  0.00  0.00    +0.033 A 
ATOM     26  C   UNL     1      -4.855   1.822  -0.123  0.00  0.00    +0.127 A 
ATOM     27  C   UNL     1      -3.550   2.268  -0.092  0.00  0.00    +0.044 A 
BRANCH  26  28
ATOM     28  N   UNL     1      -5.969   2.796  -0.122  0.00  0.00    +0.056 N 
ATOM     29  O   UNL     1      -7.122   2.404  -0.146  0.00  0.00    -0.126 OA
ATOM     30  O   UNL     1      -5.733   3.991  -0.098  0.00  0.00    -0.126 OA
ENDBRANCH  26  28
ENDBRANCH  20  22
ENDBRANCH   3  17
BRANCH   2  31
ATOM     31  C   UNL     1       0.283   5.161  -2.044  0.00  0.00    +0.245 C 
ATOM     32  O   UNL     1      -0.635   5.554  -1.366  0.00  0.00    -0.287 OA
BRANCH  31  33
ATOM     33  C   UNL     1       0.072   4.882  -3.510  0.00  0.00    +0.451 C 
ATOM     34  F   UNL     1      -1.226   5.255  -3.873  0.00  0.00    -0.163 F 
ATOM     35  F   UNL     1       0.996   5.617  -4.261  0.00  0.00    -0.163 F 
ATOM     36  F   UNL     1       0.252   3.517  -3.755  0.00  0.00    -0.163 F 
ENDBRANCH  31  33
ENDBRANCH   2  31
BRANCH   1  37
ATOM     37  O   UNL     1       2.461   6.858  -2.663  0.00  0.00    -0.367 OA
ATOM     38  H   UNL     1       2.919   7.709  -2.695  0.00  0.00    +0.212 HD
ENDBRANCH   1  37
TORSDOF 7
