REMARK  Name = ZINC01160026
REMARK  6 active torsions:
REMARK  status: ('A' for Active; 'I' for Inactive)
REMARK    1  A    between atoms: C_1  and  C_2
REMARK    2  A    between atoms: C_2  and  N_3
REMARK    3  A    between atoms: C_4  and  C_6
REMARK    4  A    between atoms: C_10  and  N_11
REMARK    5  A    between atoms: C_12  and  C_14
REMARK    6  A    between atoms: C_15  and  C_16
REMARK                            x       y       z     vdW  Elec       q    Type
REMARK                         _______ _______ _______ _____ _____    ______ ____
ROOT
ATOM      1  C   UNL     1      -2.742   5.453   0.050  0.00  0.00    +0.069 A 
ATOM      2  C   UNL     1      -4.121   5.910   0.054  0.00  0.00    -0.023 A 
ATOM      3  C   UNL     1      -5.051   4.931   0.054  0.00  0.00    -0.004 A 
ATOM      4  S   UNL     1      -4.122   3.424   0.041  0.00  0.00    -0.077 S 
ATOM      5  C   UNL     1      -2.520   4.083   0.036  0.00  0.00    +0.085 A 
ATOM      6  C   UNL     1      -6.540   5.098   0.063  0.00  0.00    +0.043 C 
ATOM      7  C   UNL     1      -6.860   6.549   0.451  0.00  0.00    +0.005 C 
ATOM      8  C   UNL     1      -5.986   7.488  -0.385  0.00  0.00    +0.005 C 
ATOM      9  C   UNL     1      -4.528   7.378   0.064  0.00  0.00    +0.037 C 
ENDROOT
BRANCH   1  11
ATOM     10  N   UNL     1      -1.110   6.829   1.228  0.00  0.00    -0.312 N 
ATOM     11  C   UNL     1      -1.626   6.404   0.058  0.00  0.00    +0.247 C 
ATOM     12  O   UNL     1      -1.165   6.809  -0.993  0.00  0.00    -0.270 OA
ATOM     13  H   UNL     1      -1.478   6.506   2.066  0.00  0.00    +0.149 HD
BRANCH  10  15
ATOM     14  C   UNL     1       0.396   8.095   2.680  0.00  0.00    +0.024 C 
ATOM     15  C   UNL     1       0.005   7.779   1.235  0.00  0.00    +0.101 C 
ENDBRANCH  10  15
ENDBRANCH   1  11
BRANCH   5  16
ATOM     16  N   UNL     1      -1.311   3.407   0.027  0.00  0.00    -0.276 N 
ATOM     17  C   UNL     1      -1.293   2.059   0.019  0.00  0.00    +0.241 C 
ATOM     18  O   UNL     1      -2.339   1.436   0.021  0.00  0.00    -0.270 OA
ATOM     19  H   UNL     1      -0.478   3.903   0.025  0.00  0.00    +0.156 HD
BRANCH  17  20
ATOM     20  C   UNL     1      -0.016   1.345   0.009  0.00  0.00    +0.068 C 
ATOM     21  C   UNL     1       0.002  -0.004   0.002  0.00  0.00    +0.013 C 
BRANCH  21  22
ATOM     22  C   UNL     1       1.286  -0.722  -0.014  0.00  0.00    -0.025 A 
ATOM     23  C   UNL     1       2.490  -0.010  -0.028  0.00  0.00    +0.009 A 
ATOM     24  C   UNL     1       3.689  -0.689  -0.038  0.00  0.00    +0.020 A 
ATOM     25  C   UNL     1       3.704  -2.075  -0.045  0.00  0.00    +0.041 A 
ATOM     26  C   UNL     1       2.515  -2.787  -0.037  0.00  0.00    +0.020 A 
ATOM     27  C   UNL     1       1.309  -2.121  -0.022  0.00  0.00    +0.009 A 
ATOM     28 CL   UNL     1       5.219  -2.922  -0.064  0.00  0.00    -0.084 Cl
ENDBRANCH  21  22
ENDBRANCH  17  20
ENDBRANCH   5  16
TORSDOF 5
