REMARK  Name = ZINC23140490
REMARK  7 active torsions:
REMARK  status: ('A' for Active; 'I' for Inactive)
REMARK    1  A    between atoms: C_1  and  C_2
REMARK    2  A    between atoms: C_2  and  C_3
REMARK    3  A    between atoms: C_2  and  C_4
REMARK    4  A    between atoms: C_2  and  C_5
REMARK    5  A    between atoms: C_5  and  C_6
REMARK    6  A    between atoms: C_9  and  C_11
REMARK    7  A    between atoms: N_20  and  C_21
REMARK                            x       y       z     vdW  Elec       q    Type
REMARK                         _______ _______ _______ _____ _____    ______ ____
ROOT
ATOM      1  C   UNL     1      -0.731   1.577   1.267  0.00  0.00    +0.094 C 
ATOM      2  C   UNL     1      -0.016   1.083   0.008  0.00  0.00    +0.016 C 
ATOM      3  C   UNL     1      -0.755   1.591  -1.232  0.00  0.00    +0.020 C 
ATOM      4  C   UNL     1      -0.743   3.123  -1.238  0.00  0.00    +0.109 C 
ATOM      5  N   UNL     1      -1.297   3.605   0.034  0.00  0.00    -0.285 N 
ATOM      6  C   UNL     1      -0.718   3.109   1.290  0.00  0.00    +0.122 C 
ATOM      7  C   UNL     1      -2.316   4.487   0.049  0.00  0.00    +0.302 C 
ATOM      8  O   UNL     1      -2.726   4.960  -0.994  0.00  0.00    -0.253 OA
ATOM      9  N   UNL     1      -2.882   4.844   1.219  0.00  0.00    -0.296 N 
ATOM     10  H   UNL     1      -2.459   4.481   2.167  0.00  0.00    +0.151 HD
ENDROOT
BRANCH   9  11
ATOM     11  C   UNL     1      -4.060   5.714   1.228  0.00  0.00    +0.074 C 
ATOM     12  C   UNL     1      -3.614   7.176   1.166  0.00  0.00    +0.022 C 
ATOM     13  C   UNL     1      -4.844   8.086   1.175  0.00  0.00    +0.002 C 
ATOM     14  C   UNL     1      -5.643   7.850   2.458  0.00  0.00    +0.000 C 
ATOM     15  C   UNL     1      -6.089   6.388   2.520  0.00  0.00    +0.002 C 
ATOM     16  C   UNL     1      -4.859   5.479   2.511  0.00  0.00    +0.022 C 
ENDBRANCH   9  11
BRANCH   1  20
ATOM     17  C   UNL     1       0.425   0.037   4.332  0.00  0.00    +0.218 A 
ATOM     18  N   UNL     1       1.486   0.670   3.919  0.00  0.00    -0.112 NA
ATOM     19  N   UNL     1       1.219   1.276   2.816  0.00  0.00    -0.112 NA
ATOM     20  C   UNL     1      -0.022   1.051   2.488  0.00  0.00    +0.222 A 
ATOM     21  O   UNL     1      -0.554   0.267   3.441  0.00  0.00    -0.424 OA
BRANCH  17  22
ATOM     22  C   UNL     1       0.314  -0.795   5.584  0.00  0.00    +0.104 C 
BRANCH  22  24
ATOM     23  C   UNL     1      -1.492   0.712   6.426  0.00  0.00    +0.011 C 
ATOM     24  C   UNL     1      -0.131   0.092   6.748  0.00  0.00    -0.029 C 
ATOM     25  C   UNL     1      -0.244  -0.753   8.019  0.00  0.00    +0.011 C 
ATOM     26  C   UNL     1       0.898   1.203   6.965  0.00  0.00    +0.011 C 
ENDBRANCH  22  24
ENDBRANCH  17  22
ENDBRANCH   1  20
TORSDOF 4
