REMARK  Name = ZINC35476088
REMARK  5 active torsions:
REMARK  status: ('A' for Active; 'I' for Inactive)
REMARK    1  A    between atoms: C_1  and  C_2
REMARK    2  A    between atoms: C_2  and  C_3
REMARK    3  A    between atoms: C_4  and  C_12
REMARK    4  A    between atoms: C_12  and  C_13
REMARK    5  A    between atoms: N_21  and  C_24
REMARK                            x       y       z     vdW  Elec       q    Type
REMARK                         _______ _______ _______ _____ _____    ______ ____
ROOT
ATOM      1  C   UNL     1      -1.711  -0.626  -2.516  0.00  0.00    +0.056 C 
ENDROOT
BRANCH   1   2
ATOM      2  C   UNL     1      -1.065  -1.924  -3.007  0.00  0.00    +0.112 C 
ATOM      3  C   UNL     1      -0.694  -1.811  -4.467  0.00  0.00    -0.014 A 
ATOM      4  C   UNL     1      -1.435  -1.600  -5.608  0.00  0.00    +0.006 A 
ATOM      5  C   UNL     1      -0.805  -1.542  -6.839  0.00  0.00    +0.000 A 
ATOM      6  C   UNL     1       0.567  -1.697  -6.918  0.00  0.00    +0.002 A 
ATOM      7  C   UNL     1       1.311  -1.908  -5.777  0.00  0.00    +0.024 A 
ATOM      8  C   UNL     1       0.684  -1.968  -4.533  0.00  0.00    +0.040 A 
ATOM      9  N   UNL     1       1.209  -2.167  -3.256  0.00  0.00    -0.274 N 
ATOM     10  C   UNL     1       0.255  -2.158  -2.305  0.00  0.00    +0.227 C 
ATOM     11  O   UNL     1       0.421  -2.307  -1.113  0.00  0.00    -0.275 OA
ATOM     12  C   UNL     1       2.634  -2.366  -2.980  0.00  0.00    +0.138 C 
ENDBRANCH   1   2
BRANCH   1  14
ATOM     13  C   UNL     1      -1.412  -0.526   0.013  0.00  0.00    +0.109 A 
ATOM     14  C   UNL     1      -2.140  -0.790  -1.081  0.00  0.00    +0.002 A 
ATOM     15  C   UNL     1      -3.440  -1.272  -0.599  0.00  0.00    +0.024 A 
ATOM     16  C   UNL     1      -4.612  -1.702  -1.221  0.00  0.00    +0.012 A 
ATOM     17  C   UNL     1      -5.677  -2.098  -0.460  0.00  0.00    +0.001 A 
ATOM     18  C   UNL     1      -5.598  -2.074   0.925  0.00  0.00    +0.004 A 
ATOM     19  C   UNL     1      -4.448  -1.652   1.557  0.00  0.00    +0.047 A 
ATOM     20  C   UNL     1      -3.354  -1.246   0.803  0.00  0.00    +0.135 A 
ATOM     21  O   UNL     1      -2.123  -0.798   1.121  0.00  0.00    -0.459 OA
BRANCH  13  23
ATOM     22  C   UNL     1      -0.019   1.526   0.010  0.00  0.00    +0.012 C 
ATOM     23  C   UNL     1       0.002  -0.004   0.002  0.00  0.00    +0.071 C 
ENDBRANCH  13  23
ENDBRANCH   1  14
TORSDOF 3
