REMARK  Name = ZINC35430566
REMARK  3 active torsions:
REMARK  status: ('A' for Active; 'I' for Inactive)
REMARK    1  A    between atoms: C_2  and  C_17
REMARK    2  A    between atoms: N_19  and  C_20
REMARK    3  A    between atoms: C_20  and  C_21
REMARK                            x       y       z     vdW  Elec       q    Type
REMARK                         _______ _______ _______ _____ _____    ______ ____
ROOT
ATOM      1  C   UNL     1      -0.016   1.318   0.030  0.00  0.00    +0.132 A 
ATOM      2  C   UNL     1       1.201   2.008   0.004  0.00  0.00    +0.119 A 
ATOM      3  C   UNL     1       2.407   1.274  -0.027  0.00  0.00    +0.271 A 
ATOM      4  O   UNL     1       3.479   1.853  -0.049  0.00  0.00    -0.266 OA
ATOM      5  N   UNL     1       2.363  -0.092  -0.031  0.00  0.00    -0.258 N 
ATOM      6  C   UNL     1       3.482  -0.927  -0.042  0.00  0.00    +0.039 A 
ATOM      7  C   UNL     1       3.247  -2.226  -0.086  0.00  0.00    +0.013 A 
ATOM      8  S   UNL     1       1.465  -2.319  -0.025  0.00  0.00    -0.054 S 
ATOM      9  C   UNL     1       1.137  -0.677  -0.006  0.00  0.00    +0.180 A 
ATOM     10  N   UNL     1       0.002  -0.004   0.025  0.00  0.00    -0.230 NA
ATOM     11  C   UNL     1       4.132  -3.433  -0.234  0.00  0.00    +0.044 C 
ATOM     12  C   UNL     1       5.606  -3.052  -0.379  0.00  0.00    +0.005 C 
ATOM     13  C   UNL     1       6.215  -2.725   0.976  0.00  0.00    +0.000 C 
ATOM     14  C   UNL     1       5.254  -1.984   1.886  0.00  0.00    +0.000 C 
ATOM     15  C   UNL     1       5.345  -0.497   1.528  0.00  0.00    +0.006 C 
ATOM     16  C   UNL     1       4.864  -0.306   0.087  0.00  0.00    +0.055 C 
ENDROOT
BRANCH   2  17
ATOM     17  C   UNL     1       1.224   3.475   0.007  0.00  0.00    +0.251 C 
ATOM     18  O   UNL     1       0.183   4.101  -0.075  0.00  0.00    -0.270 OA
ATOM     19  N   UNL     1       2.398   4.131   0.101  0.00  0.00    -0.309 N 
ATOM     20  H   UNL     1       3.232   3.636   0.092  0.00  0.00    +0.149 HD
BRANCH  19  21
ATOM     21  C   UNL     1       2.415   5.591   0.217  0.00  0.00    +0.136 C 
BRANCH  21  22
ATOM     22  C   UNL     1       3.862   6.079   0.308  0.00  0.00    +0.135 C 
ATOM     23  C   UNL     1       3.901   7.620   0.466  0.00  0.00    +0.035 C 
ATOM     24  C   UNL     1       5.276   7.810   1.164  0.00  0.00    +0.031 C 
ATOM     25  C   UNL     1       5.373   6.546   2.045  0.00  0.00    +0.160 C 
ATOM     26  O   UNL     1       4.489   5.562   1.492  0.00  0.00    -0.375 OA
ENDBRANCH  21  22
ENDBRANCH  19  21
ENDBRANCH   2  17
TORSDOF 3
