REMARK  Name = ZINC08767690
REMARK  11 active torsions:
REMARK  status: ('A' for Active; 'I' for Inactive)
REMARK    1  A    between atoms: C_1  and  C_2
REMARK    2  A    between atoms: C_13  and  O_15
REMARK    3  A    between atoms: O_15  and  C_16
REMARK    4  A    between atoms: C_16  and  C_18
REMARK    5  A    between atoms: C_18  and  C_19
REMARK    6  A    between atoms: C_19  and  C_20
REMARK    7  A    between atoms: N_22  and  C_23
REMARK    8  A    between atoms: C_23  and  C_24
REMARK    9  A    between atoms: C_24  and  C_25
REMARK   10  A    between atoms: C_28  and  O_31
REMARK   11  A    between atoms: C_40  and  C_41
REMARK                            x       y       z     vdW  Elec       q    Type
REMARK                         _______ _______ _______ _____ _____    ______ ____
ROOT
ATOM      1  C   UNL     1       8.277   3.359   0.262  0.00  0.00    +0.015 C 
ATOM      2  C   UNL     1       8.426   1.889   0.658  0.00  0.00    +0.008 C 
ATOM      3  C   UNL     1       8.420   1.744   2.161  0.00  0.00    +0.011 C 
ATOM      4  C   UNL     1       9.860   1.563   2.680  0.00  0.00    +0.005 C 
ATOM      5  C   UNL     1      10.777   2.469   1.874  0.00  0.00    +0.002 C 
ATOM      6  C   UNL     1      10.955   1.882   0.467  0.00  0.00    -0.003 C 
ATOM      7  C   UNL     1       9.675   1.245   0.027  0.00  0.00    +0.002 C 
ATOM      8  C   UNL     1       9.345   1.297  -1.471  0.00  0.00    +0.008 C 
ATOM      9  C   UNL     1       7.830   0.953  -1.510  0.00  0.00    +0.045 C 
ATOM     10  C   UNL     1       7.305   1.109  -0.062  0.00  0.00    +0.183 C 
ATOM     11  C   UNL     1      11.531   2.964  -0.435  0.00  0.00    +0.008 C 
ATOM     12  C   UNL     1      12.949   3.271   0.076  0.00  0.00    +0.032 C 
ATOM     13  C   UNL     1      12.904   3.612   1.553  0.00  0.00    -0.060 C 
ATOM     14  C   UNL     1      13.537   4.716   1.947  0.00  0.00    +0.046 C 
ATOM     15  C   UNL     1      13.593   5.100   3.358  0.00  0.00    +0.156 C 
ATOM     16  O   UNL     1      13.959   6.207   3.700  0.00  0.00    -0.293 OA
ATOM     17  C   UNL     1      13.199   4.052   4.379  0.00  0.00    +0.080 C 
ATOM     18  C   UNL     1      11.944   3.349   3.874  0.00  0.00    +0.019 C 
ATOM     19  C   UNL     1      12.148   2.716   2.504  0.00  0.00    -0.007 C 
ATOM     20  C   UNL     1      12.903   1.406   2.686  0.00  0.00    +0.016 C 
ENDROOT
BRANCH  10  21
ATOM     21  O   UNL     1       6.080   1.881  -0.046  0.00  0.00    -0.461 OA
BRANCH  21  22
ATOM     22  C   UNL     1       4.926   1.194  -0.039  0.00  0.00    +0.308 C 
ATOM     23  O   UNL     1       4.943  -0.014  -0.045  0.00  0.00    -0.251 OA
BRANCH  22  24
ATOM     24  C   UNL     1       3.611   1.930  -0.022  0.00  0.00    +0.130 C 
BRANCH  24  25
ATOM     25  C   UNL     1       2.462   0.920  -0.017  0.00  0.00    +0.107 C 
BRANCH  25  26
ATOM     26  C   UNL     1       1.147   1.655   0.000  0.00  0.00    +0.214 C 
ATOM     27  O   UNL     1       1.130   2.868   0.007  0.00  0.00    -0.276 OA
ATOM     28  N   UNL     1      -0.011   0.966   0.007  0.00  0.00    -0.315 N 
ATOM     29  H   UNL     1       0.002  -0.004   0.002  0.00  0.00    +0.149 HD
BRANCH  28  30
ATOM     30  C   UNL     1      -1.290   1.681   0.017  0.00  0.00    +0.109 C 
BRANCH  30  31
ATOM     31  C   UNL     1      -2.439   0.671   0.017  0.00  0.00    +0.054 C 
BRANCH  31  32
ATOM     32  C   UNL     1      -3.754   1.407   0.028  0.00  0.00    -0.046 A 
ATOM     33  C   UNL     1      -4.354   1.732   1.230  0.00  0.00    +0.007 A 
ATOM     34  C   UNL     1      -5.556   2.412   1.242  0.00  0.00    +0.045 A 
ATOM     35  C   UNL     1      -6.168   2.757   0.046  0.00  0.00    +0.117 A 
ATOM     36  C   UNL     1      -5.568   2.425  -1.159  0.00  0.00    +0.045 A 
ATOM     37  C   UNL     1      -4.362   1.750  -1.166  0.00  0.00    +0.007 A 
BRANCH  35  38
ATOM     38  O   UNL     1      -7.354   3.421   0.056  0.00  0.00    -0.507 OA
ATOM     39  H   UNL     1      -8.129   2.842   0.056  0.00  0.00    +0.292 HD
ENDBRANCH  35  38
ENDBRANCH  31  32
ENDBRANCH  30  31
ENDBRANCH  28  30
ENDBRANCH  25  26
ENDBRANCH  24  25
ENDBRANCH  22  24
ENDBRANCH  21  22
ENDBRANCH  10  21
TORSDOF 9
