REMARK  Name = ZINC35790246
REMARK  9 active torsions:
REMARK  status: ('A' for Active; 'I' for Inactive)
REMARK    1  A    between atoms: C_1  and  C_2
REMARK    2  A    between atoms: C_5  and  C_9
REMARK    3  A    between atoms: C_6  and  C_8
REMARK    4  A    between atoms: C_9  and  N_10
REMARK    5  A    between atoms: C_19  and  C_21
REMARK    6  A    between atoms: C_23  and  O_29
REMARK    7  A    between atoms: C_25  and  O_27
REMARK    8  A    between atoms: O_27  and  C_28
REMARK    9  A    between atoms: O_29  and  C_30
REMARK                            x       y       z     vdW  Elec       q    Type
REMARK                         _______ _______ _______ _____ _____    ______ ____
ROOT
ATOM      1  N   UNL     1      -0.310  -4.837   0.074  0.00  0.00    +0.391 N 
ATOM      2  C   UNL     1      -1.309  -5.101  -0.964  0.00  0.00    -0.075 C 
ATOM      3  C   UNL     1      -2.682  -5.350  -0.354  0.00  0.00    +0.003 C 
ATOM      4  C   UNL     1      -2.851  -4.495   0.906  0.00  0.00    +0.119 C 
ATOM      5  N   UNL     1      -2.337  -5.241   2.060  0.00  0.00    -0.352 N 
ATOM      6  C   UNL     1      -2.949  -5.386   3.268  0.00  0.00    +0.086 A 
ATOM      7  C   UNL     1      -2.147  -6.124   4.062  0.00  0.00    +0.019 A 
ATOM      8  C   UNL     1      -0.998  -6.451   3.314  0.00  0.00    +0.021 A 
ATOM      9  C   UNL     1      -1.143  -5.904   2.091  0.00  0.00    +0.009 A 
ATOM     10  C   UNL     1      -0.167  -6.012   0.945  0.00  0.00    +0.011 C 
ATOM     11  H   UNL     1      -0.605  -4.045   0.626  0.00  0.00    -0.080 HD
ENDROOT
BRANCH  10  12
ATOM     12  C   UNL     1       1.239  -6.069   1.485  0.00  0.00    -0.048 A 
ATOM     13  C   UNL     1       1.729  -5.024   2.244  0.00  0.00    +0.048 A 
ATOM     14  C   UNL     1       3.024  -5.075   2.743  0.00  0.00    +0.124 A 
ATOM     15  C   UNL     1       3.825  -6.175   2.478  0.00  0.00    +0.091 A 
ATOM     16  C   UNL     1       3.330  -7.222   1.716  0.00  0.00    +0.124 A 
ATOM     17  C   UNL     1       2.033  -7.170   1.225  0.00  0.00    +0.048 A 
BRANCH  16  18
ATOM     18  O   UNL     1       4.113  -8.302   1.454  0.00  0.00    -0.495 OA
ATOM     19  C   UNL     1       5.435  -8.291   1.997  0.00  0.00    +0.277 C 
ENDBRANCH  16  18
BRANCH  14  20
ATOM     20  O   UNL     1       3.506  -4.047   3.489  0.00  0.00    -0.495 OA
ATOM     21  C   UNL     1       4.846  -4.166   3.969  0.00  0.00    +0.277 C 
ENDBRANCH  14  20
ENDBRANCH  10  12
BRANCH   1  22
ATOM     22  C   UNL     1       0.982  -4.538  -0.557  0.00  0.00    -0.041 C 
BRANCH  22  27
ATOM     23  C   UNL     1       0.433   0.104  -3.955  0.00  0.00    +0.044 C 
ATOM     24  C   UNL     1       0.576  -1.107  -3.069  0.00  0.00    -0.050 A 
ATOM     25  C   UNL     1       0.622  -2.371  -3.627  0.00  0.00    +0.003 A 
ATOM     26  C   UNL     1       0.754  -3.481  -2.814  0.00  0.00    +0.002 A 
ATOM     27  C   UNL     1       0.840  -3.327  -1.443  0.00  0.00    -0.061 A 
ATOM     28  C   UNL     1       0.795  -2.064  -0.885  0.00  0.00    -0.049 A 
ATOM     29  C   UNL     1       0.668  -0.953  -1.699  0.00  0.00    +0.007 A 
ATOM     30  C   UNL     1       0.888  -1.896   0.610  0.00  0.00    +0.044 C 
ENDBRANCH  22  27
ENDBRANCH   1  22
TORSDOF 5
