REMARK  Name = ZINC00926689
REMARK  11 active torsions:
REMARK  status: ('A' for Active; 'I' for Inactive)
REMARK    1  A    between atoms: C_1  and  C_2
REMARK    2  A    between atoms: C_4  and  C_31
REMARK    3  A    between atoms: C_9  and  C_14
REMARK    4  A    between atoms: C_14  and  N_65
REMARK    5  A    between atoms: C_15  and  C_16
REMARK    6  A    between atoms: C_15  and  N_65
REMARK    7  A    between atoms: N_20  and  C_21
REMARK    8  A    between atoms: C_21  and  C_22
REMARK    9  A    between atoms: C_21  and  C_23
REMARK   10  A    between atoms: C_21  and  C_24
REMARK   11  A    between atoms: C_25  and  N_65
REMARK                            x       y       z     vdW  Elec       q    Type
REMARK                         _______ _______ _______ _____ _____    ______ ____
ROOT
ATOM      1  N   UNL     1      -0.663   0.642  -3.252  0.00  0.00    +0.389 N 
ATOM      2  H   UNL     1      -0.823  -0.367  -3.145  0.00  0.00    -0.080 HD
ENDROOT
BRANCH   1   3
ATOM      3  C   UNL     1      -1.312   1.352  -2.130  0.00  0.00    -0.068 C 
ATOM      4  C   UNL     1      -0.929   2.833  -2.139  0.00  0.00    -0.015 C 
ATOM      5  C   UNL     1      -1.610   3.544  -0.968  0.00  0.00    -0.002 C 
ATOM      6  C   UNL     1      -1.156   2.908   0.348  0.00  0.00    -0.000 C 
ATOM      7  C   UNL     1      -1.539   1.427   0.357  0.00  0.00    -0.002 C 
ATOM      8  C   UNL     1      -0.859   0.716  -0.814  0.00  0.00    -0.015 C 
ENDBRANCH   1   3
BRANCH   1   9
ATOM      9  C   UNL     1      -1.245   1.087  -4.536  0.00  0.00    -0.037 C 
BRANCH   9  18
ATOM     10  C   UNL     1      -8.686   1.013  -4.045  0.00  0.00    +0.044 C 
ATOM     11  C   UNL     1      -7.386   0.344  -4.412  0.00  0.00    -0.050 A 
ATOM     12  C   UNL     1      -7.399  -0.939  -4.940  0.00  0.00    +0.008 A 
ATOM     13  C   UNL     1      -6.223  -1.570  -5.283  0.00  0.00    -0.026 A 
ATOM     14  C   UNL     1      -5.009  -0.916  -5.098  0.00  0.00    +0.052 A 
ATOM     15  C   UNL     1      -5.000   0.386  -4.561  0.00  0.00    -0.001 A 
ATOM     16  C   UNL     1      -6.207   1.006  -4.221  0.00  0.00    +0.013 A 
ATOM     17  C   UNL     1      -3.718   1.066  -4.370  0.00  0.00    +0.017 A 
ATOM     18  C   UNL     1      -2.581   0.415  -4.719  0.00  0.00    +0.001 A 
ATOM     19  C   UNL     1      -2.645  -0.888  -5.258  0.00  0.00    +0.251 A 
ATOM     20  O   UNL     1      -1.611  -1.453  -5.570  0.00  0.00    -0.268 OA
ATOM     21  N   UNL     1      -3.817  -1.523  -5.432  0.00  0.00    -0.322 N 
ATOM     22  H   UNL     1      -3.825  -2.449  -5.810  0.00  0.00    +0.169 HD
ATOM     23  C   UNL     1      -6.251  -2.964  -5.856  0.00  0.00    +0.046 C 
ENDBRANCH   9  18
ENDBRANCH   1   9
BRANCH   1  24
ATOM     24  C   UNL     1       0.792   0.901  -3.240  0.00  0.00    +0.001 C 
BRANCH  24  25
ATOM     25  C   UNL     1       1.449   0.038  -4.286  0.00  0.00    +0.136 A 
ATOM     26  N   UNL     1       1.583   0.318  -5.559  0.00  0.00    -0.115 NA
ATOM     27  N   UNL     1       2.197  -0.666  -6.120  0.00  0.00    -0.023 NA
ATOM     28  N   UNL     1       2.459  -1.566  -5.237  0.00  0.00    -0.043 NA
ATOM     29  N   UNL     1       2.018  -1.166  -4.093  0.00  0.00    -0.226 N 
BRANCH  29  30
ATOM     30  C   UNL     1       2.116  -1.889  -2.822  0.00  0.00    +0.059 C 
ATOM     31  C   UNL     1       0.722  -2.028  -2.206  0.00  0.00    +0.036 C 
ATOM     32  C   UNL     1       2.706  -3.278  -3.069  0.00  0.00    +0.036 C 
ATOM     33  C   UNL     1       3.022  -1.113  -1.863  0.00  0.00    +0.036 C 
ENDBRANCH  29  30
ENDBRANCH  24  25
ENDBRANCH   1  24
TORSDOF 6
