REMARK  Name = ZINC53929932
REMARK  9 active torsions:
REMARK  status: ('A' for Active; 'I' for Inactive)
REMARK    1  A    between atoms: C_1  and  C_2
REMARK    2  A    between atoms: C_2  and  C_3
REMARK    3  A    between atoms: C_2  and  C_4
REMARK    4  A    between atoms: C_2  and  C_5
REMARK    5  A    between atoms: C_11  and  C_14
REMARK    6  A    between atoms: C_14  and  N_15
REMARK    7  A    between atoms: N_15  and  C_16
REMARK    8  A    between atoms: N_15  and  C_17
REMARK    9  A    between atoms: C_17  and  C_18
REMARK                            x       y       z     vdW  Elec       q    Type
REMARK                         _______ _______ _______ _____ _____    ______ ____
ROOT
ATOM      1  C   UNL     1       0.718  -0.497  -1.257  0.00  0.00    -0.005 C 
ATOM      2  C   UNL     1      -0.025   0.007  -2.495  0.00  0.00    +0.011 C 
ATOM      3  C   UNL     1       0.638  -0.563  -3.754  0.00  0.00    +0.075 C 
ATOM      4  C   UNL     1       2.109  -0.212  -3.723  0.00  0.00    +0.135 C 
ATOM      5  O   UNL     1       2.639   0.316  -4.671  0.00  0.00    -0.297 OA
ATOM      6  C   UNL     1       2.899  -0.541  -2.476  0.00  0.00    +0.039 C 
ATOM      7  C   UNL     1       2.154   0.030  -1.264  0.00  0.00    +0.013 C 
ENDROOT
BRANCH   1   9
ATOM      8  C   UNL     1      -0.019   1.526   0.010  0.00  0.00    +0.011 C 
ATOM      9  C   UNL     1       0.002  -0.004   0.002  0.00  0.00    -0.035 C 
ATOM     10  C   UNL     1       0.742  -0.511   1.242  0.00  0.00    +0.011 C 
ATOM     11  C   UNL     1      -1.433  -0.534   0.013  0.00  0.00    +0.011 C 
ENDBRANCH   1   9
BRANCH   6  12
ATOM     12  C   UNL     1       3.032  -2.059  -2.336  0.00  0.00    -0.068 C 
BRANCH  12  13
ATOM     13  N   UNL     1       3.832  -2.585  -3.451  0.00  0.00    +0.381 N 
ATOM     14  C   UNL     1       5.202  -2.065  -3.358  0.00  0.00    -0.096 C 
ATOM     15  H   UNL     1       3.421  -2.296  -4.326  0.00  0.00    -0.082 HD
BRANCH  13  16
ATOM     16  C   UNL     1       3.859  -4.052  -3.384  0.00  0.00    -0.040 C 
BRANCH  16  17
ATOM     17  C   UNL     1       4.575  -4.597  -4.593  0.00  0.00    -0.026 A 
ATOM     18  C   UNL     1       3.991  -4.940  -5.834  0.00  0.00    +0.043 A 
ATOM     19  C   UNL     1       4.986  -5.381  -6.624  0.00  0.00    +0.195 A 
ATOM     20  O   UNL     1       6.135  -5.324  -5.931  0.00  0.00    -0.471 OA
ATOM     21  C   UNL     1       5.892  -4.844  -4.700  0.00  0.00    +0.196 A 
ENDBRANCH  16  17
ENDBRANCH  13  16
ENDBRANCH  12  13
ENDBRANCH   6  12
TORSDOF 5
