REMARK  Name = ZINC45102720
REMARK  4 active torsions:
REMARK  status: ('A' for Active; 'I' for Inactive)
REMARK    1  A    between atoms: C_4  and  O_8
REMARK    2  A    between atoms: O_8  and  C_9
REMARK    3  A    between atoms: C_9  and  C_10
REMARK    4  A    between atoms: C_12  and  C_15
REMARK                            x       y       z     vdW  Elec       q    Type
REMARK                         _______ _______ _______ _____ _____    ______ ____
ROOT
ATOM      1  C   UNL     1       4.167  -0.955   1.230  0.00  0.00    +0.308 C 
ENDROOT
BRANCH   1   2
ATOM      2  C   UNL     1       5.469  -1.682   1.015  0.00  0.00    +0.209 A 
ATOM      3  N   UNL     1       5.607  -3.004   0.900  0.00  0.00    -0.186 NA
ATOM      4  C   UNL     1       6.876  -3.310   0.721  0.00  0.00    +0.294 A 
ATOM      5  O   UNL     1       7.582  -2.163   0.720  0.00  0.00    -0.329 OA
ATOM      6  N   UNL     1       6.640  -1.119   0.907  0.00  0.00    -0.057 NA
BRANCH   4   7
ATOM      7  C   UNL     1       7.424  -4.662   0.554  0.00  0.00    +0.192 A 
ATOM      8  C   UNL     1       8.739  -4.977   0.375  0.00  0.00    +0.055 A 
ATOM      9  C   UNL     1       8.807  -6.376   0.262  0.00  0.00    +0.042 A 
ATOM     10  C   UNL     1       7.547  -6.846   0.376  0.00  0.00    +0.196 A 
ATOM     11  O   UNL     1       6.716  -5.809   0.558  0.00  0.00    -0.458 OA
ENDBRANCH   4   7
ENDBRANCH   1   2
BRANCH   1  12
ATOM     12  O   UNL     1       3.587  -0.632  -0.036  0.00  0.00    -0.481 OA
BRANCH  12  16
ATOM     13  C   UNL     1      -0.017   1.378   0.010  0.00  0.00    +0.003 A 
ATOM     14  C   UNL     1       1.170   2.088   0.002  0.00  0.00    +0.024 A 
ATOM     15  C   UNL     1       2.378   1.418  -0.013  0.00  0.00    +0.084 A 
ATOM     16  C   UNL     1       2.400   0.030  -0.021  0.00  0.00    +0.158 A 
ATOM     17  C   UNL     1       1.208  -0.680  -0.013  0.00  0.00    +0.084 A 
ATOM     18  C   UNL     1       0.002  -0.004   0.002  0.00  0.00    +0.024 A 
ATOM     19 CL   UNL     1       1.230  -2.416  -0.023  0.00  0.00    -0.080 Cl
ATOM     20 CL   UNL     1       3.867   2.310  -0.023  0.00  0.00    -0.080 Cl
ENDBRANCH  12  16
ENDBRANCH   1  12
TORSDOF 4
