REMARK  Name = ZINC20690709
REMARK  8 active torsions:
REMARK  status: ('A' for Active; 'I' for Inactive)
REMARK    1  A    between atoms: C_1  and  C_2
REMARK    2  A    between atoms: C_2  and  C_4
REMARK    3  A    between atoms: C_4  and  O_5
REMARK    4  A    between atoms: O_5  and  C_6
REMARK    5  A    between atoms: C_13  and  C_22
REMARK    6  A    between atoms: C_25  and  O_29
REMARK    7  A    between atoms: C_26  and  O_28
REMARK    8  A    between atoms: O_29  and  C_30
REMARK                            x       y       z     vdW  Elec       q    Type
REMARK                         _______ _______ _______ _____ _____    ______ ____
ROOT
ATOM      1  C   UNL     1       0.324   5.067   0.028  0.00  0.00    +0.142 A 
ATOM      2  C   UNL     1      -0.787   5.887   0.038  0.00  0.00    +0.047 A 
ATOM      3  C   UNL     1      -0.638   7.262   0.045  0.00  0.00    +0.004 A 
ATOM      4  C   UNL     1       0.630   7.812   0.050  0.00  0.00    +0.006 A 
ATOM      5  C   UNL     1       1.747   7.001   0.048  0.00  0.00    -0.016 A 
ATOM      6  C   UNL     1       1.614   5.612   0.031  0.00  0.00    +0.074 A 
ATOM      7  N   UNL     1       2.690   4.724  -0.011  0.00  0.00    -0.334 N 
ATOM      8  C   UNL     1       4.036   5.310   0.094  0.00  0.00    +0.105 C 
ATOM      9  C   UNL     1       4.028   6.593  -0.711  0.00  0.00    +0.029 C 
ATOM     10  C   UNL     1       3.115   7.563   0.091  0.00  0.00    +0.049 C 
ATOM     11  C   UNL     1       3.483   8.899  -0.450  0.00  0.00    -0.023 C 
ATOM     12  C   UNL     1       4.727   8.850  -0.915  0.00  0.00    -0.030 C 
ATOM     13  C   UNL     1       5.302   7.445  -0.720  0.00  0.00    +0.033 C 
ATOM     14  H   UNL     1       2.571   3.636  -0.118  0.00  0.00    +0.147 HD
ENDROOT
BRANCH   8  15
ATOM     15  C   UNL     1       5.058   4.357  -0.469  0.00  0.00    -0.023 A 
ATOM     16  C   UNL     1       4.771   3.636  -1.614  0.00  0.00    +0.009 A 
ATOM     17  C   UNL     1       5.707   2.765  -2.139  0.00  0.00    +0.050 A 
ATOM     18  C   UNL     1       6.931   2.602  -1.510  0.00  0.00    +0.161 A 
ATOM     19  C   UNL     1       7.218   3.323  -0.354  0.00  0.00    +0.159 A 
ATOM     20  C   UNL     1       6.277   4.199   0.163  0.00  0.00    +0.054 A 
BRANCH  19  21
ATOM     21  O   UNL     1       8.418   3.168   0.266  0.00  0.00    -0.503 OA
ATOM     22  H   UNL     1       8.643   3.738   1.179  0.00  0.00    +0.292 HD
ENDBRANCH  19  21
BRANCH  18  23
ATOM     23  O   UNL     1       7.851   1.741  -2.021  0.00  0.00    -0.491 OA
ATOM     24  C   UNL     1       7.488   1.035  -3.210  0.00  0.00    +0.277 C 
ENDBRANCH  18  23
ENDBRANCH   8  15
BRANCH   1  25
ATOM     25  O   UNL     1       0.164   3.717   0.021  0.00  0.00    -0.486 OA
BRANCH  25  26
ATOM     26  C   UNL     1      -1.176   3.222   0.025  0.00  0.00    +0.259 C 
BRANCH  26  28
ATOM     27  C   UNL     1      -2.451   0.944   0.019  0.00  0.00    +0.042 C 
ATOM     28  C   UNL     1      -1.156   1.715   0.017  0.00  0.00    -0.043 C 
ATOM     29  C   UNL     1      -0.013   1.076   0.008  0.00  0.00    +0.011 C 
ENDBRANCH  26  28
ENDBRANCH  25  26
ENDBRANCH   1  25
TORSDOF 6
