REMARK  Name = ZINC08905450
REMARK  14 active torsions:
REMARK  status: ('A' for Active; 'I' for Inactive)
REMARK    1  A    between atoms: C_1  and  C_2
REMARK    2  A    between atoms: C_2  and  C_3
REMARK    3  A    between atoms: C_3  and  O_4
REMARK    4  A    between atoms: O_4  and  C_5
REMARK    5  A    between atoms: C_8  and  C_11
REMARK    6  A    between atoms: C_14  and  C_15
REMARK    7  A    between atoms: C_14  and  O_22
REMARK    8  A    between atoms: N_27  and  C_28
REMARK    9  A    between atoms: C_28  and  C_29
REMARK   10  A    between atoms: C_29  and  N_64
REMARK   11  A    between atoms: C_30  and  C_31
REMARK   12  A    between atoms: C_30  and  N_64
REMARK   13  A    between atoms: C_32  and  C_33
REMARK   14  A    between atoms: C_32  and  N_64
REMARK                            x       y       z     vdW  Elec       q    Type
REMARK                         _______ _______ _______ _____ _____    ______ ____
ROOT
ATOM      1  C   UNL     1       1.728   0.596  -0.539  0.00  0.00    +0.144 C 
ATOM      2  C   UNL     1       0.882  -0.635  -0.309  0.00  0.00    +0.071 C 
ATOM      3  C   UNL     1       1.328  -1.935  -0.182  0.00  0.00    +0.133 C 
ATOM      4  C   UNL     1      -0.448  -0.190  -0.250  0.00  0.00    +0.249 C 
ATOM      5  O   UNL     1      -1.429  -0.890  -0.076  0.00  0.00    -0.282 OA
ATOM      6  C   UNL     1      -0.452   1.286  -0.438  0.00  0.00    +0.288 C 
ATOM      7  O   UNL     1      -1.445   1.984  -0.446  0.00  0.00    -0.266 OA
ATOM      8  N   UNL     1       0.804   1.733  -0.604  0.00  0.00    -0.285 N 
ENDROOT
BRANCH   3   9
ATOM      9  C   UNL     1       0.379  -3.010   0.155  0.00  0.00    +0.017 A 
ATOM     10  C   UNL     1      -0.510  -2.853   1.224  0.00  0.00    +0.012 A 
ATOM     11  C   UNL     1      -1.399  -3.860   1.530  0.00  0.00    +0.016 A 
ATOM     12  C   UNL     1      -1.407  -5.031   0.788  0.00  0.00    +0.018 A 
ATOM     13  C   UNL     1      -0.525  -5.195  -0.268  0.00  0.00    +0.016 A 
ATOM     14  C   UNL     1       0.366  -4.194  -0.589  0.00  0.00    +0.012 A 
ATOM     15 BR   UNL     1      -2.626  -6.410   1.220  0.00  0.00    -0.050 Br
ENDBRANCH   3   9
BRANCH   1  19
ATOM     16  C   UNL     1       3.866   0.236  -4.222  0.00  0.00    +0.121 A 
ATOM     17  C   UNL     1       4.512   0.000  -3.017  0.00  0.00    +0.046 A 
ATOM     18  C   UNL     1       3.819   0.118  -1.828  0.00  0.00    +0.009 A 
ATOM     19  C   UNL     1       2.482   0.469  -1.838  0.00  0.00    -0.022 A 
ATOM     20  C   UNL     1       1.834   0.699  -3.038  0.00  0.00    +0.009 A 
ATOM     21  C   UNL     1       2.524   0.589  -4.229  0.00  0.00    +0.046 A 
BRANCH  16  22
ATOM     22  O   UNL     1       4.545   0.120  -5.393  0.00  0.00    -0.492 OA
BRANCH  22  23
ATOM     23  C   UNL     1       3.816   0.378  -6.595  0.00  0.00    +0.229 C 
BRANCH  23  25
ATOM     24  C   UNL     1       3.960   0.475  -9.087  0.00  0.00    +0.007 C 
ATOM     25  C   UNL     1       4.741   0.200  -7.800  0.00  0.00    +0.038 C 
ENDBRANCH  23  25
ENDBRANCH  22  23
ENDBRANCH  16  22
ENDBRANCH   1  19
BRANCH   3  26
ATOM     26  O   UNL     1       2.635  -2.221  -0.366  0.00  0.00    -0.506 OA
ATOM     27  H   UNL     1       2.782  -3.202  -0.237  0.00  0.00    +0.292 HD
ENDBRANCH   3  26
BRANCH   8  28
ATOM     28  C   UNL     1       1.190   3.131  -0.816  0.00  0.00    +0.090 C 
BRANCH  28  29
ATOM     29  C   UNL     1       1.448   3.799   0.536  0.00  0.00    -0.060 C 
BRANCH  29  30
ATOM     30  N   UNL     1       1.855   5.201   0.305  0.00  0.00    +0.380 N 
ATOM     31  H   UNL     1       2.626   5.216  -0.373  0.00  0.00    -0.082 HD
BRANCH  30  32
ATOM     32  C   UNL     1       0.720   5.973  -0.241  0.00  0.00    -0.082 C 
ATOM     33  C   UNL     1      -0.469   5.934   0.722  0.00  0.00    -0.017 C 
ENDBRANCH  30  32
BRANCH  30  34
ATOM     34  C   UNL     1       2.317   5.808   1.571  0.00  0.00    -0.082 C 
ATOM     35  C   UNL     1       2.935   7.174   1.266  0.00  0.00    -0.017 C 
ENDBRANCH  30  34
ENDBRANCH  29  30
ENDBRANCH  28  29
ENDBRANCH   8  28
TORSDOF 11
