REMARK  Name = ZINC45626250
REMARK  5 active torsions:
REMARK  status: ('A' for Active; 'I' for Inactive)
REMARK    1  A    between atoms: C_4  and  N_7
REMARK    2  A    between atoms: C_8  and  C_23
REMARK    3  A    between atoms: N_9  and  N_10
REMARK    4  A    between atoms: C_11  and  C_12
REMARK    5  A    between atoms: C_21  and  O_22
REMARK                            x       y       z     vdW  Elec       q    Type
REMARK                         _______ _______ _______ _____ _____    ______ ____
ROOT
ATOM      1  N   UNL     1       3.541  -0.949  -0.731  0.00  0.00    -0.297 N 
ATOM      2  C   UNL     1       3.540  -2.308  -0.472  0.00  0.00    +0.160 C 
ATOM      3  N   UNL     1       2.406  -2.931  -0.229  0.00  0.00    -0.261 N 
ATOM      4  H   UNL     1       2.779  -0.538  -1.170  0.00  0.00    +0.154 HD
ATOM      5  H   UNL     1       2.413  -3.866   0.029  0.00  0.00    +0.190 HD
ENDROOT
BRANCH   2   6
ATOM      6  C   UNL     1       4.807  -3.056  -0.468  0.00  0.00    +0.172 A 
ATOM      7  N   UNL     1       4.926  -4.406  -0.255  0.00  0.00    -0.336 N 
ATOM      8  H   UNL     1       4.203  -5.029  -0.083  0.00  0.00    +0.167 HD
ATOM      9  C   UNL     1       6.270  -4.710  -0.332  0.00  0.00    +0.067 A 
ATOM     10  C   UNL     1       7.001  -5.884  -0.206  0.00  0.00    +0.028 A 
ATOM     11  C   UNL     1       8.373  -5.853  -0.341  0.00  0.00    +0.002 A 
ATOM     12  C   UNL     1       9.028  -4.656  -0.601  0.00  0.00    +0.002 A 
ATOM     13  C   UNL     1       8.328  -3.491  -0.728  0.00  0.00    +0.030 A 
ATOM     14  C   UNL     1       6.934  -3.497  -0.596  0.00  0.00    +0.090 A 
ATOM     15  N   UNL     1       5.994  -2.534  -0.672  0.00  0.00    -0.225 NA
ENDBRANCH   2   6
BRANCH   1  19
ATOM     16  C   UNL     1       6.812   1.380   0.369  0.00  0.00    +0.000 A 
ATOM     17  C   UNL     1       6.134   1.654  -0.804  0.00  0.00    +0.002 A 
ATOM     18  C   UNL     1       5.048   0.884  -1.173  0.00  0.00    +0.023 A 
ATOM     19  C   UNL     1       4.638  -0.168  -0.362  0.00  0.00    +0.032 A 
ATOM     20  C   UNL     1       5.321  -0.440   0.816  0.00  0.00    +0.023 A 
ATOM     21  C   UNL     1       6.406   0.335   1.179  0.00  0.00    +0.002 A 
ENDBRANCH   1  19
BRANCH   3  22
ATOM     22  N   UNL     1       1.287  -2.298  -0.335  0.00  0.00    -0.180 NA
ATOM     23  C   UNL     1       0.166  -2.889   0.003  0.00  0.00    +0.144 C 
BRANCH  23  24
ATOM     24  C   UNL     1      -1.113  -2.215  -0.222  0.00  0.00    +0.044 A 
ATOM     25  C   UNL     1      -2.378  -2.908   0.023  0.00  0.00    -0.006 A 
ATOM     26  C   UNL     1      -2.409  -4.230   0.479  0.00  0.00    +0.009 A 
ATOM     27  C   UNL     1      -3.609  -4.841   0.696  0.00  0.00    +0.001 A 
ATOM     28  C   UNL     1      -4.806  -4.166   0.470  0.00  0.00    +0.001 A 
ATOM     29  C   UNL     1      -4.811  -2.878   0.026  0.00  0.00    +0.008 A 
ATOM     30  C   UNL     1      -3.592  -2.218  -0.207  0.00  0.00    -0.017 A 
ATOM     31  C   UNL     1      -3.559  -0.888  -0.664  0.00  0.00    +0.012 A 
ATOM     32  C   UNL     1      -2.376  -0.257  -0.888  0.00  0.00    +0.046 A 
ATOM     33  C   UNL     1      -1.153  -0.890  -0.671  0.00  0.00    +0.126 A 
BRANCH  33  34
ATOM     34  O   UNL     1       0.004  -0.220  -0.902  0.00  0.00    -0.506 OA
ATOM     35  H   UNL     1       0.294  -0.243  -1.824  0.00  0.00    +0.292 HD
ENDBRANCH  33  34
ENDBRANCH  23  24
ENDBRANCH   3  22
TORSDOF 5
