REMARK  Name = ZINC08687986
REMARK  11 active torsions:
REMARK  status: ('A' for Active; 'I' for Inactive)
REMARK    1  A    between atoms: C_1  and  C_2
REMARK    2  A    between atoms: C_5  and  S_23
REMARK    3  A    between atoms: C_7  and  N_8
REMARK    4  A    between atoms: N_8  and  C_9
REMARK    5  A    between atoms: C_9  and  N_11
REMARK    6  A    between atoms: N_11  and  C_12
REMARK    7  A    between atoms: C_17  and  C_22
REMARK    8  A    between atoms: C_19  and  C_21
REMARK    9  A    between atoms: S_23  and  N_26
REMARK   10  A    between atoms: N_26  and  C_27
REMARK   11  A    between atoms: N_26  and  C_28
REMARK                            x       y       z     vdW  Elec       q    Type
REMARK                         _______ _______ _______ _____ _____    ______ ____
ROOT
ATOM      1  N   UNL     1       0.026  -0.015   2.417  0.00  0.00    -0.297 N 
ATOM      2  H   UNL     1       0.076   0.954   2.425  0.00  0.00    +0.154 HD
ENDROOT
BRANCH   1   9
ATOM      3  C   UNL     1      -1.703   0.884   0.343  0.00  0.00    +0.045 C 
ATOM      4  C   UNL     1      -0.790  -0.301   0.162  0.00  0.00    -0.029 A 
ATOM      5  C   UNL     1      -0.772  -0.982  -1.040  0.00  0.00    +0.007 A 
ATOM      6  C   UNL     1       0.066  -2.070  -1.207  0.00  0.00    +0.029 A 
ATOM      7  C   UNL     1       0.887  -2.479  -0.172  0.00  0.00    +0.107 A 
ATOM      8  C   UNL     1       0.873  -1.803   1.032  0.00  0.00    +0.052 A 
ATOM      9  C   UNL     1       0.037  -0.706   1.201  0.00  0.00    +0.037 A 
BRANCH   7  10
ATOM     10  S   UNL     1       1.952  -3.866  -0.390  0.00  0.00    +0.060 S 
ATOM     11  O   UNL     1       2.220  -4.380   0.907  0.00  0.00    -0.153 OA
ATOM     12  O   UNL     1       1.380  -4.660  -1.421  0.00  0.00    -0.153 OA
BRANCH  10  13
ATOM     13  N   UNL     1       3.390  -3.292  -0.977  0.00  0.00    -0.183 NA
ATOM     14  C   UNL     1       4.454  -2.896  -0.051  0.00  0.00    +0.131 C 
ATOM     15  C   UNL     1       3.598  -3.180  -2.423  0.00  0.00    +0.131 C 
ENDBRANCH  10  13
ENDBRANCH   7  10
ENDBRANCH   1   9
BRANCH   1  16
ATOM     16  C   UNL     1      -0.056  -0.695   3.578  0.00  0.00    +0.135 C 
ATOM     17  S   UNL     1      -0.034  -2.406   3.571  0.00  0.00    -0.019 S 
BRANCH  16  18
ATOM     18  N   UNL     1      -0.155  -0.027   4.744  0.00  0.00    -0.323 N 
ATOM     19  H   UNL     1      -0.168   0.943   4.748  0.00  0.00    +0.148 HD
BRANCH  18  20
ATOM     20  C   UNL     1      -0.244  -0.766   6.006  0.00  0.00    +0.075 C 
ATOM     21  C   UNL     1      -1.701  -1.150   6.271  0.00  0.00    +0.022 C 
ATOM     22  C   UNL     1      -2.554   0.117   6.361  0.00  0.00    +0.002 C 
ATOM     23  C   UNL     1      -2.042   0.997   7.504  0.00  0.00    +0.003 C 
ATOM     24  C   UNL     1      -0.585   1.381   7.239  0.00  0.00    -0.009 C 
ATOM     25  C   UNL     1       0.268   0.114   7.149  0.00  0.00    +0.009 C 
ATOM     26  C   UNL     1       1.725   0.498   6.884  0.00  0.00    +0.009 C 
ATOM     27  C   UNL     1      -0.073   2.260   8.382  0.00  0.00    +0.008 C 
ENDBRANCH  18  20
ENDBRANCH  16  18
ENDBRANCH   1  16
TORSDOF 6
