REMARK  Name = ZINC13107620
REMARK  7 active torsions:
REMARK  status: ('A' for Active; 'I' for Inactive)
REMARK    1  A    between atoms: C_1  and  C_2
REMARK    2  A    between atoms: C_2  and  O_3
REMARK    3  A    between atoms: O_3  and  C_4
REMARK    4  A    between atoms: C_4  and  C_6
REMARK    5  A    between atoms: C_6  and  N_7
REMARK    6  A    between atoms: N_16  and  C_17
REMARK    7  A    between atoms: C_17  and  C_19
REMARK                            x       y       z     vdW  Elec       q    Type
REMARK                         _______ _______ _______ _____ _____    ______ ____
ROOT
ATOM      1  N   UNL     1       0.074   1.569  -0.104  0.00  0.00    -0.308 N 
ATOM      2  C   UNL     1       1.130   2.461  -0.200  0.00  0.00    +0.094 A 
ATOM      3  C   UNL     1       1.068   3.867  -0.189  0.00  0.00    +0.151 A 
ATOM      4  C   UNL     1       2.211   4.625  -0.294  0.00  0.00    +0.078 A 
ATOM      5  C   UNL     1       3.458   4.032  -0.412  0.00  0.00    +0.127 A 
ATOM      6  C   UNL     1       3.549   2.650  -0.425  0.00  0.00    +0.055 A 
ATOM      7  C   UNL     1       2.405   1.892  -0.321  0.00  0.00    +0.044 A 
ATOM      8  S   UNL     1       2.081   0.145  -0.298  0.00  0.00    -0.052 S 
ATOM      9  C   UNL     1       0.305   0.226  -0.131  0.00  0.00    +0.167 A 
ATOM     10  N   UNL     1      -0.569  -0.770  -0.054  0.00  0.00    -0.149 NA
ATOM     11  F   UNL     1       4.571   4.792  -0.515  0.00  0.00    -0.205 F 
ATOM     12  F   UNL     1      -0.131   4.480  -0.074  0.00  0.00    -0.203 F 
ENDROOT
BRANCH  10  13
ATOM     13  C   UNL     1      -0.143  -2.040  -0.099  0.00  0.00    +0.307 C 
ATOM     14  O   UNL     1       1.048  -2.281  -0.211  0.00  0.00    -0.265 OA
BRANCH  13  15
ATOM     15  C   UNL     1      -1.110  -3.143  -0.013  0.00  0.00    +0.219 C 
ATOM     16  C   UNL     1      -2.411  -2.861   0.115  0.00  0.00    +0.238 C 
ATOM     17  O   UNL     1      -3.344  -3.835   0.200  0.00  0.00    -0.492 OA
ATOM     18  C   UNL     1      -2.946  -5.148  -0.213  0.00  0.00    +0.269 C 
ATOM     19  C   UNL     1      -1.566  -5.441   0.392  0.00  0.00    +0.270 C 
ATOM     20  O   UNL     1      -0.660  -4.427  -0.060  0.00  0.00    -0.481 OA
ENDBRANCH  13  15
ENDBRANCH  10  13
BRANCH   1  21
ATOM     21  C   UNL     1      -1.296   2.071   0.019  0.00  0.00    +0.244 C 
BRANCH  21  22
ATOM     22  C   UNL     1      -1.437   2.833   1.312  0.00  0.00    +0.327 C 
ATOM     23  O   UNL     1      -0.522   2.860   2.100  0.00  0.00    -0.249 OA
BRANCH  22  24
ATOM     24  O   UNL     1      -2.579   3.482   1.587  0.00  0.00    -0.464 OA
BRANCH  24  26
ATOM     25  C   UNL     1      -4.012   4.868   2.987  0.00  0.00    +0.048 C 
ATOM     26  C   UNL     1      -2.644   4.195   2.851  0.00  0.00    +0.229 C 
ENDBRANCH  24  26
ENDBRANCH  22  24
ENDBRANCH  21  22
ENDBRANCH   1  21
TORSDOF 6
