REMARK  Name = ZINC02322451
REMARK  9 active torsions:
REMARK  status: ('A' for Active; 'I' for Inactive)
REMARK    1  A    between atoms: C_1  and  C_2
REMARK    2  A    between atoms: C_5  and  C_8
REMARK    3  A    between atoms: C_8  and  S_9
REMARK    4  A    between atoms: S_9  and  C_10
REMARK    5  A    between atoms: C_13  and  S_15
REMARK    6  A    between atoms: S_15  and  C_16
REMARK    7  A    between atoms: C_16  and  C_17
REMARK    8  A    between atoms: N_19  and  N_20
REMARK    9  A    between atoms: C_21  and  C_22
REMARK                            x       y       z     vdW  Elec       q    Type
REMARK                         _______ _______ _______ _____ _____    ______ ____
ROOT
ATOM      1  C   UNL     1      -5.663  -9.975  -0.000  0.00  0.00    +0.160 A 
ATOM      2  N   UNL     1      -5.982  -8.696   0.009  0.00  0.00    -0.134 NA
ATOM      3  N   UNL     1      -4.991  -7.742   0.006  0.00  0.00    -0.134 NA
ATOM      4  C   UNL     1      -3.725  -8.112  -0.007  0.00  0.00    +0.160 A 
ATOM      5  S   UNL     1      -3.878  -9.892  -0.023  0.00  0.00    -0.033 S 
ENDROOT
BRANCH   1   6
ATOM      6  S   UNL     1      -6.714 -11.389   0.001  0.00  0.00    -0.092 S 
BRANCH   6   7
ATOM      7  C   UNL     1      -8.388 -10.691   0.020  0.00  0.00    +0.111 C 
BRANCH   7  12
ATOM      8  C   UNL     1     -12.264 -14.977   0.029  0.00  0.00    +0.044 C 
ATOM      9  C   UNL     1     -11.253 -13.859   0.027  0.00  0.00    -0.050 A 
ATOM     10  C   UNL     1     -10.779 -13.354   1.223  0.00  0.00    +0.003 A 
ATOM     11  C   UNL     1      -9.852 -12.328   1.221  0.00  0.00    +0.005 A 
ATOM     12  C   UNL     1      -9.399 -11.809   0.022  0.00  0.00    -0.037 A 
ATOM     13  C   UNL     1      -9.877 -12.311  -1.173  0.00  0.00    +0.005 A 
ATOM     14  C   UNL     1     -10.801 -13.339  -1.171  0.00  0.00    +0.003 A 
ENDBRANCH   7  12
ENDBRANCH   6   7
ENDBRANCH   1   6
BRANCH   4  15
ATOM     15  S   UNL     1      -2.271  -7.117  -0.015  0.00  0.00    -0.088 S 
BRANCH  15  16
ATOM     16  C   UNL     1      -2.902  -5.417  -0.000  0.00  0.00    +0.173 C 
BRANCH  16  17
ATOM     17  C   UNL     1      -1.746  -4.451  -0.006  0.00  0.00    +0.242 C 
ATOM     18  O   UNL     1      -0.607  -4.869  -0.018  0.00  0.00    -0.273 OA
ATOM     19  N   UNL     1      -1.976  -3.123   0.003  0.00  0.00    -0.206 N 
ATOM     20  H   UNL     1      -2.887  -2.789   0.014  0.00  0.00    +0.177 HD
BRANCH  19  21
ATOM     21  N   UNL     1      -0.901  -2.225  -0.002  0.00  0.00    -0.187 NA
ATOM     22  C   UNL     1      -1.123  -0.944   0.007  0.00  0.00    +0.145 C 
BRANCH  22  23
ATOM     23  C   UNL     1       0.002  -0.004   0.002  0.00  0.00    +0.033 A 
ATOM     24  C   UNL     1      -0.017   1.380   0.010  0.00  0.00    +0.018 A 
ATOM     25  C   UNL     1       1.184   2.050   0.002  0.00  0.00    +0.023 A 
ATOM     26  C   UNL     1       2.343   1.338  -0.013  0.00  0.00    +0.055 A 
ATOM     27  S   UNL     1       1.754  -0.347  -0.017  0.00  0.00    -0.080 S 
ATOM     28 BR   UNL     1       4.124   1.973  -0.027  0.00  0.00    -0.043 Br
ENDBRANCH  22  23
ENDBRANCH  19  21
ENDBRANCH  16  17
ENDBRANCH  15  16
ENDBRANCH   4  15
TORSDOF 8
