REMARK  Name = ZINC63294223
REMARK  6 active torsions:
REMARK  status: ('A' for Active; 'I' for Inactive)
REMARK    1  A    between atoms: C_1  and  C_2
REMARK    2  A    between atoms: C_4  and  C_15
REMARK    3  A    between atoms: C_7  and  N_10
REMARK    4  A    between atoms: N_17  and  C_18
REMARK    5  A    between atoms: C_18  and  C_19
REMARK    6  A    between atoms: C_19  and  C_20
REMARK                            x       y       z     vdW  Elec       q    Type
REMARK                         _______ _______ _______ _____ _____    ______ ____
ROOT
ATOM      1  C   UNL     1      -2.055  -1.051  -1.249  0.00  0.00    +0.228 C 
ATOM      2  O   UNL     1      -1.297  -1.541  -2.059  0.00  0.00    -0.275 OA
ATOM      3  N   UNL     1      -3.360  -0.901  -1.553  0.00  0.00    -0.314 N 
ATOM      4  H   UNL     1      -3.967  -0.509  -0.905  0.00  0.00    +0.149 HD
ENDROOT
BRANCH   1   7
ATOM      5  C   UNL     1      -0.180   1.483  -0.024  0.00  0.00    +0.025 C 
ATOM      6  C   UNL     1      -0.102  -0.045  -0.011  0.00  0.00    +0.075 C 
ATOM      7  C   UNL     1      -1.539  -0.610   0.096  0.00  0.00    +0.152 C 
ATOM      8  S   UNL     1      -1.235  -2.055   1.207  0.00  0.00    -0.106 S 
ATOM      9  C   UNL     1       0.197  -1.323   2.115  0.00  0.00    +0.216 C 
ATOM     10  N   UNL     1       0.784  -0.453   1.072  0.00  0.00    -0.284 NA
ATOM     11  H   UNL     1       1.637  -0.853   0.710  0.00  0.00    +0.125 HD
BRANCH   9  12
ATOM     12  N   UNL     1      -0.255  -0.534   3.264  0.00  0.00    -0.329 N 
ATOM     13  C   UNL     1       0.035  -0.795   4.570  0.00  0.00    +0.088 A 
ATOM     14  C   UNL     1      -0.558   0.149   5.330  0.00  0.00    +0.019 A 
ATOM     15  C   UNL     1      -1.238   1.024   4.461  0.00  0.00    +0.019 A 
ATOM     16  C   UNL     1      -1.031   0.585   3.202  0.00  0.00    +0.088 A 
ENDBRANCH   9  12
ENDBRANCH   1   7
BRANCH   3  17
ATOM     17  C   UNL     1      -3.862  -1.330  -2.861  0.00  0.00    +0.108 C 
BRANCH  17  18
ATOM     18  C   UNL     1      -5.364  -1.050  -2.947  0.00  0.00    +0.052 C 
BRANCH  18  19
ATOM     19  C   UNL     1      -5.880  -1.491  -4.293  0.00  0.00    -0.040 C 
ATOM     20  C   UNL     1      -6.455  -2.677  -4.593  0.00  0.00    +0.002 A 
ATOM     21  C   UNL     1      -6.761  -3.866  -3.789  0.00  0.00    +0.048 A 
ATOM     22  C   UNL     1      -7.355  -4.927  -4.385  0.00  0.00    +0.124 A 
ATOM     23  C   UNL     1      -7.685  -4.917  -5.749  0.00  0.00    +0.040 A 
ATOM     24  C   UNL     1      -7.435  -3.861  -6.551  0.00  0.00    +0.029 A 
ATOM     25  C   UNL     1      -6.814  -2.693  -6.030  0.00  0.00    +0.043 A 
ATOM     26  N   UNL     1      -6.473  -1.560  -6.595  0.00  0.00    -0.380 N 
ATOM     27  C   UNL     1      -5.865  -0.694  -5.578  0.00  0.00    +0.144 C 
ATOM     28  F   UNL     1      -7.637  -6.023  -3.647  0.00  0.00    -0.205 F 
ATOM     29  H   UNL     1      -6.604  -1.331  -7.528  0.00  0.00    +0.160 HD
ENDBRANCH  18  19
ENDBRANCH  17  18
ENDBRANCH   3  17
TORSDOF 5
