REMARK  Name = ZINC39687057
REMARK  11 active torsions:
REMARK  status: ('A' for Active; 'I' for Inactive)
REMARK    1  A    between atoms: C_1  and  C_2
REMARK    2  A    between atoms: C_2  and  C_3
REMARK    3  A    between atoms: C_3  and  C_4
REMARK    4  A    between atoms: C_4  and  C_5
REMARK    5  A    between atoms: C_5  and  C_6
REMARK    6  A    between atoms: C_6  and  C_7
REMARK    7  A    between atoms: C_11  and  C_20
REMARK    8  A    between atoms: N_22  and  C_23
REMARK    9  A    between atoms: C_23  and  C_25
REMARK   10  A    between atoms: C_23  and  C_26
REMARK   11  A    between atoms: C_26  and  C_27
REMARK                            x       y       z     vdW  Elec       q    Type
REMARK                         _______ _______ _______ _____ _____    ______ ____
ROOT
ATOM      1  C   UNL     1       2.095  -4.625  -3.202  0.00  0.00    +0.216 C 
ATOM      2  O   UNL     1       2.530  -3.700  -3.855  0.00  0.00    -0.276 OA
ATOM      3  N   UNL     1       2.268  -5.892  -3.631  0.00  0.00    -0.300 N 
ATOM      4  C   UNL     1       1.807  -7.141  -2.980  0.00  0.00    +0.121 C 
ATOM      5  C   UNL     1       1.337  -8.038  -4.147  0.00  0.00    +0.100 C 
ATOM      6  C   UNL     1       2.098  -7.515  -5.376  0.00  0.00    -0.004 C 
ATOM      7  C   UNL     1       2.955  -6.349  -4.862  0.00  0.00    +0.115 C 
ATOM      8  C   UNL     1       1.117  -7.015  -6.432  0.00  0.00    -0.010 C 
ATOM      9  C   UNL     1       1.896  -6.553  -7.667  0.00  0.00    -0.082 C 
ATOM     10  N   UNL     1       2.687  -7.670  -8.195  0.00  0.00    +0.379 N 
ATOM     11  C   UNL     1       3.691  -8.085  -7.208  0.00  0.00    -0.082 C 
ATOM     12  C   UNL     1       2.988  -8.611  -5.953  0.00  0.00    -0.010 C 
ATOM     13  H   UNL     1       2.076  -8.447  -8.398  0.00  0.00    -0.086 HD
ATOM     14  H   UNL     1       3.151  -7.381  -9.043  0.00  0.00    -0.086 HD
ENDROOT
BRANCH   5  15
ATOM     15  C   UNL     1      -0.150  -7.899  -4.349  0.00  0.00    +0.218 C 
ATOM     16  O   UNL     1      -0.691  -6.830  -4.155  0.00  0.00    -0.275 OA
ATOM     17  N   UNL     1      -0.879  -8.961  -4.746  0.00  0.00    -0.312 N 
ATOM     18  H   UNL     1      -0.446  -9.815  -4.901  0.00  0.00    +0.149 HD
BRANCH  17  19
ATOM     19  C   UNL     1      -2.324  -8.825  -4.943  0.00  0.00    +0.074 C 
ATOM     20  C   UNL     1      -3.041  -9.018  -3.605  0.00  0.00    +0.028 C 
BRANCH  19  21
ATOM     21  C   UNL     1      -2.805  -9.884  -5.936  0.00  0.00    +0.060 C 
BRANCH  21  22
ATOM     22  C   UNL     1      -2.192  -9.620  -7.288  0.00  0.00    -0.010 A 
ATOM     23  C   UNL     1      -2.887  -8.887  -8.231  0.00  0.00    +0.006 A 
ATOM     24  C   UNL     1      -2.325  -8.645  -9.470  0.00  0.00    +0.000 A 
ATOM     25  C   UNL     1      -1.068  -9.136  -9.768  0.00  0.00    +0.003 A 
ATOM     26  C   UNL     1      -0.371  -9.869  -8.827  0.00  0.00    +0.038 A 
ATOM     27  C   UNL     1      -0.930 -10.108  -7.583  0.00  0.00    +0.127 A 
ATOM     28  F   UNL     1      -0.248 -10.820  -6.660  0.00  0.00    -0.205 F 
ENDBRANCH  21  22
ENDBRANCH  19  21
ENDBRANCH  17  19
ENDBRANCH   5  15
BRANCH   1  29
ATOM     29  C   UNL     1       1.363  -4.359  -1.913  0.00  0.00    +0.096 C 
BRANCH  29  30
ATOM     30  C   UNL     1       1.306  -2.851  -1.660  0.00  0.00    +0.009 C 
BRANCH  30  31
ATOM     31  C   UNL     1       0.562  -2.581  -0.350  0.00  0.00    +0.000 C 
BRANCH  31  32
ATOM     32  C   UNL     1       0.506  -1.073  -0.098  0.00  0.00    -0.000 C 
BRANCH  32  34
ATOM     33  C   UNL     1      -0.294   0.705   1.465  0.00  0.00    +0.004 C 
ATOM     34  C   UNL     1      -0.238  -0.803   1.212  0.00  0.00    -0.003 C 
ENDBRANCH  32  34
ENDBRANCH  31  32
ENDBRANCH  30  31
ENDBRANCH  29  30
ENDBRANCH   1  29
TORSDOF 9
