REMARK  Name = ZINC66701382
REMARK  10 active torsions:
REMARK  status: ('A' for Active; 'I' for Inactive)
REMARK    1  A    between atoms: C_1  and  C_2
REMARK    2  A    between atoms: C_3  and  C_7
REMARK    3  A    between atoms: C_7  and  N_8
REMARK    4  A    between atoms: N_8  and  C_9
REMARK    5  A    between atoms: N_12  and  C_13
REMARK    6  A    between atoms: C_13  and  C_15
REMARK    7  A    between atoms: C_13  and  C_16
REMARK    8  A    between atoms: C_16  and  N_17
REMARK    9  A    between atoms: C_19  and  C_26
REMARK   10  A    between atoms: C_22  and  C_25
REMARK                            x       y       z     vdW  Elec       q    Type
REMARK                         _______ _______ _______ _____ _____    ______ ____
ROOT
ATOM      1  N   UNL     1       1.368  -0.036  -3.052  0.00  0.00    -0.284 N 
ATOM      2  C   UNL     1       2.071  -1.145  -3.701  0.00  0.00    +0.134 C 
ATOM      3  C   UNL     1       1.988   1.150  -2.885  0.00  0.00    +0.302 C 
ATOM      4  O   UNL     1       1.405   2.070  -2.346  0.00  0.00    -0.253 OA
ATOM      5  N   UNL     1       3.254   1.314  -3.316  0.00  0.00    -0.298 N 
ATOM      6  H   UNL     1       3.720   0.580  -3.746  0.00  0.00    +0.150 HD
ENDROOT
BRANCH   5   7
ATOM      7  C   UNL     1       3.928   2.603  -3.135  0.00  0.00    +0.055 C 
ATOM      8  C   UNL     1       3.568   3.534  -4.295  0.00  0.00    +0.026 C 
BRANCH   7   9
ATOM      9  C   UNL     1       5.442   2.386  -3.106  0.00  0.00    -0.057 C 
BRANCH   9  10
ATOM     10  N   UNL     1       5.777   1.400  -2.070  0.00  0.00    +0.381 N 
ATOM     11  C   UNL     1       5.428   1.941  -0.751  0.00  0.00    -0.076 C 
ATOM     12  C   UNL     1       5.698   0.887   0.325  0.00  0.00    -0.031 C 
ATOM     13  C   UNL     1       7.183   0.511   0.301  0.00  0.00    +0.003 C 
ATOM     14  C   UNL     1       7.553   0.018  -1.100  0.00  0.00    -0.031 C 
ATOM     15  C   UNL     1       7.213   1.105  -2.123  0.00  0.00    -0.076 C 
ATOM     16  C   UNL     1       9.051  -0.287  -1.156  0.00  0.00    +0.005 C 
ATOM     17  C   UNL     1       4.851  -0.356   0.046  0.00  0.00    +0.005 C 
ATOM     18  H   UNL     1       5.254   0.553  -2.233  0.00  0.00    -0.082 HD
ENDBRANCH   9  10
ENDBRANCH   7   9
ENDBRANCH   5   7
BRANCH   1  19
ATOM     19  C   UNL     1      -0.008  -0.215  -2.583  0.00  0.00    +0.153 C 
BRANCH  19  22
ATOM     20  C   UNL     1      -0.018   1.503   0.010  0.00  0.00    +0.066 C 
ATOM     21  C   UNL     1       0.002  -0.004   0.002  0.00  0.00    +0.050 A 
ATOM     22  C   UNL     1       0.006  -0.708  -1.159  0.00  0.00    +0.029 A 
ATOM     23  S   UNL     1       0.032  -2.379  -0.531  0.00  0.00    -0.079 S 
ATOM     24  C   UNL     1       0.036  -2.009   1.111  0.00  0.00    +0.156 A 
ATOM     25  N   UNL     1       0.023  -0.699   1.122  0.00  0.00    -0.252 NA
ENDBRANCH  19  22
ENDBRANCH   1  19
TORSDOF 5
