REMARK  Name = ZINC58394209
REMARK  5 active torsions:
REMARK  status: ('A' for Active; 'I' for Inactive)
REMARK    1  A    between atoms: C_1  and  C_2
REMARK    2  A    between atoms: C_13  and  C_15
REMARK    3  A    between atoms: C_15  and  N_16
REMARK    4  A    between atoms: N_16  and  C_17
REMARK    5  A    between atoms: C_20  and  N_23
REMARK                            x       y       z     vdW  Elec       q    Type
REMARK                         _______ _______ _______ _____ _____    ______ ____
ROOT
ATOM      1  C   UNL     1       1.630  -0.169   3.423  0.00  0.00    +0.198 C 
ENDROOT
BRANCH   1  13
ATOM      2  C   UNL     1       1.800  -2.235   2.384  0.00  0.00    +0.028 C 
ATOM      3  C   UNL     1       1.565  -1.661   0.986  0.00  0.00    +0.079 C 
ATOM      4  C   UNL     1       0.695  -2.625   0.168  0.00  0.00    +0.027 C 
ATOM      5  C   UNL     1       0.533  -2.066  -1.245  0.00  0.00    +0.039 C 
ATOM      6  C   UNL     1       0.069  -0.634  -1.196  0.00  0.00    -0.026 A 
ATOM      7  C   UNL     1      -0.543  -0.089  -2.313  0.00  0.00    +0.005 A 
ATOM      8  C   UNL     1      -0.978   1.222  -2.300  0.00  0.00    +0.000 A 
ATOM      9  C   UNL     1      -0.803   2.000  -1.170  0.00  0.00    +0.002 A 
ATOM     10  C   UNL     1      -0.195   1.465  -0.052  0.00  0.00    +0.024 A 
ATOM     11  C   UNL     1       0.240   0.144  -0.063  0.00  0.00    +0.040 A 
ATOM     12  N   UNL     1       0.849  -0.382   1.085  0.00  0.00    -0.267 N 
ATOM     13  C   UNL     1       0.777   0.272   2.261  0.00  0.00    +0.237 C 
ATOM     14  O   UNL     1       0.025   1.216   2.385  0.00  0.00    -0.274 OA
ENDBRANCH   1  13
BRANCH   1  15
ATOM     15  N   UNL     1       1.549   0.828   4.494  0.00  0.00    -0.335 N 
ATOM     16  H   UNL     1       1.002   1.621   4.379  0.00  0.00    +0.147 HD
BRANCH  15  17
ATOM     17  C   UNL     1       2.261   0.637   5.681  0.00  0.00    +0.028 A 
ATOM     18  C   UNL     1       3.049  -0.496   5.844  0.00  0.00    +0.025 A 
ATOM     19  C   UNL     1       3.752  -0.684   7.016  0.00  0.00    +0.031 A 
ATOM     20  C   UNL     1       3.672   0.258   8.034  0.00  0.00    +0.086 A 
ATOM     21  C   UNL     1       2.884   1.390   7.871  0.00  0.00    +0.031 A 
ATOM     22  C   UNL     1       2.185   1.582   6.697  0.00  0.00    +0.025 A 
BRANCH  20  23
ATOM     23  N   UNL     1       4.386   0.066   9.226  0.00  0.00    -0.150 N 
ATOM     24  N   UNL     1       5.144  -0.944   9.468  0.00  0.00    -0.156 NA
ATOM     25  C   UNL     1       5.656  -0.808  10.671  0.00  0.00    +0.156 A 
ATOM     26  C   UNL     1       5.146   0.393  11.170  0.00  0.00    +0.156 A 
ATOM     27  N   UNL     1       4.375   0.878  10.222  0.00  0.00    -0.156 NA
ENDBRANCH  20  23
ENDBRANCH  15  17
ENDBRANCH   1  15
TORSDOF 4
