REMARK  Name = ZINC39436108
REMARK  9 active torsions:
REMARK  status: ('A' for Active; 'I' for Inactive)
REMARK    1  A    between atoms: C_1  and  O_2
REMARK    2  A    between atoms: O_2  and  C_3
REMARK    3  A    between atoms: C_8  and  C_13
REMARK    4  A    between atoms: C_13  and  C_35
REMARK    5  A    between atoms: C_14  and  C_15
REMARK    6  A    between atoms: C_18  and  O_21
REMARK    7  A    between atoms: O_21  and  C_22
REMARK    8  A    between atoms: C_25  and  C_31
REMARK    9  A    between atoms: C_27  and  N_28
REMARK                            x       y       z     vdW  Elec       q    Type
REMARK                         _______ _______ _______ _____ _____    ______ ____
ROOT
ATOM      1  C   UNL     1       3.192  -6.311  -5.238  0.00  0.00    -0.024 A 
ATOM      2  C   UNL     1       3.914  -5.686  -4.215  0.00  0.00    +0.011 A 
ATOM      3  C   UNL     1       5.168  -6.146  -3.882  0.00  0.00    +0.047 A 
ATOM      4  C   UNL     1       5.717  -7.229  -4.559  0.00  0.00    +0.129 A 
ATOM      5  C   UNL     1       5.003  -7.853  -5.576  0.00  0.00    +0.047 A 
ATOM      6  C   UNL     1       3.746  -7.405  -5.913  0.00  0.00    +0.011 A 
ENDROOT
BRANCH   1   8
ATOM      7  C   UNL     1       1.609  -4.498  -5.661  0.00  0.00    +0.072 C 
ATOM      8  C   UNL     1       1.851  -5.825  -5.598  0.00  0.00    +0.026 C 
BRANCH   7  14
ATOM      9  C   UNL     1       2.192   0.961  -4.563  0.00  0.00    +0.122 A 
ATOM     10  C   UNL     1       2.336   1.041  -6.011  0.00  0.00    +0.048 A 
ATOM     11  C   UNL     1       2.527  -0.055  -6.768  0.00  0.00    +0.031 A 
ATOM     12  C   UNL     1       2.594  -1.380  -6.132  0.00  0.00    +0.061 A 
ATOM     13  N   UNL     1       2.765  -2.576  -6.617  0.00  0.00    -0.359 N 
ATOM     14  C   UNL     1       2.741  -3.517  -5.491  0.00  0.00    +0.216 C 
ATOM     15  N   UNL     1       2.532  -2.712  -4.282  0.00  0.00    -0.359 N 
ATOM     16  C   UNL     1       2.446  -1.463  -4.654  0.00  0.00    +0.064 A 
ATOM     17  C   UNL     1       2.247  -0.222  -3.903  0.00  0.00    +0.073 A 
ATOM     18  H   UNL     1       2.886  -2.804  -7.552  0.00  0.00    +0.162 HD
ATOM     19  H   UNL     1       2.470  -3.045  -3.373  0.00  0.00    +0.162 HD
BRANCH   9  21
ATOM     20  C   UNL     1       1.950   3.323  -4.595  0.00  0.00    +0.277 C 
ATOM     21  O   UNL     1       2.001   2.102  -3.855  0.00  0.00    -0.495 OA
ENDBRANCH   9  21
ENDBRANCH   7  14
BRANCH   7  22
ATOM     22  C   UNL     1       0.278  -4.024  -5.890  0.00  0.00    +0.099 C 
ATOM     23  N   UNL     1      -0.778  -3.647  -6.071  0.00  0.00    -0.191 NA
ENDBRANCH   7  22
ENDBRANCH   1   8
BRANCH   4  24
ATOM     24  O   UNL     1       6.954  -7.678  -4.227  0.00  0.00    -0.454 OA
BRANCH  24  25
ATOM     25  C   UNL     1       7.099  -8.332  -3.045  0.00  0.00    +0.159 A 
ATOM     26  C   UNL     1       5.989  -8.596  -2.255  0.00  0.00    +0.049 A 
ATOM     27  C   UNL     1       6.139  -9.261  -1.054  0.00  0.00    +0.016 A 
ATOM     28  C   UNL     1       7.395  -9.665  -0.639  0.00  0.00    +0.057 A 
ATOM     29  C   UNL     1       8.503  -9.404  -1.423  0.00  0.00    +0.048 A 
ATOM     30  C   UNL     1       8.357  -8.744  -2.628  0.00  0.00    +0.169 A 
BRANCH  28  31
ATOM     31  C   UNL     1       7.556 -10.391   0.672  0.00  0.00    +0.417 C 
ATOM     32  F   UNL     1       6.304 -10.537   1.281  0.00  0.00    -0.166 F 
ATOM     33  F   UNL     1       8.112 -11.654   0.441  0.00  0.00    -0.166 F 
ATOM     34  F   UNL     1       8.400  -9.657   1.512  0.00  0.00    -0.166 F 
ENDBRANCH  28  31
BRANCH  30  35
ATOM     35  N   UNL     1       9.543  -8.470  -3.471  0.00  0.00    +0.060 N 
ATOM     36  O   UNL     1      10.639  -8.829  -3.107  0.00  0.00    -0.126 OA
ATOM     37  O   UNL     1       9.416  -7.887  -4.522  0.00  0.00    -0.126 OA
ENDBRANCH  30  35
ENDBRANCH  24  25
ENDBRANCH   4  24
TORSDOF 8
