REMARK  Name = ZINC20412376
REMARK  8 active torsions:
REMARK  status: ('A' for Active; 'I' for Inactive)
REMARK    1  A    between atoms: C_4  and  C_7
REMARK    2  A    between atoms: C_13  and  O_32
REMARK    3  A    between atoms: C_14  and  C_22
REMARK    4  A    between atoms: C_17  and  C_18
REMARK    5  A    between atoms: C_22  and  N_23
REMARK    6  A    between atoms: N_26  and  C_29
REMARK    7  A    between atoms: C_29  and  C_30
REMARK    8  A    between atoms: C_30  and  O_31
REMARK                            x       y       z     vdW  Elec       q    Type
REMARK                         _______ _______ _______ _____ _____    ______ ____
ROOT
ATOM      1  C   UNL     1      -2.407   4.378  -0.064  0.00  0.00    +0.076 A 
ATOM      2  C   UNL     1      -1.104   4.898  -0.511  0.00  0.00    +0.201 A 
ATOM      3  O   UNL     1      -1.005   5.972  -1.079  0.00  0.00    -0.286 OA
ATOM      4  C   UNL     1       0.076   4.057  -0.238  0.00  0.00    +0.065 A 
ATOM      5  C   UNL     1       1.356   4.459  -0.621  0.00  0.00    +0.019 A 
ATOM      6  C   UNL     1       2.427   3.656  -0.353  0.00  0.00    +0.046 A 
ATOM      7  C   UNL     1       2.248   2.439   0.301  0.00  0.00    +0.122 A 
ATOM      8  C   UNL     1       0.984   2.026   0.687  0.00  0.00    +0.020 A 
ATOM      9  C   UNL     1      -0.117   2.828   0.417  0.00  0.00    +0.144 A 
ATOM     10  O   UNL     1      -1.354   2.444   0.791  0.00  0.00    -0.450 OA
ATOM     11  C   UNL     1      -2.449   3.174   0.564  0.00  0.00    +0.219 A 
ENDROOT
BRANCH   1  15
ATOM     12  C   UNL     1      -5.971   6.600  -0.725  0.00  0.00    +0.000 A 
ATOM     13  C   UNL     1      -5.055   7.031   0.217  0.00  0.00    +0.001 A 
ATOM     14  C   UNL     1      -3.896   6.314   0.436  0.00  0.00    +0.009 A 
ATOM     15  C   UNL     1      -3.650   5.153  -0.295  0.00  0.00    -0.011 A 
ATOM     16  C   UNL     1      -4.574   4.726  -1.247  0.00  0.00    +0.009 A 
ATOM     17  C   UNL     1      -5.732   5.448  -1.453  0.00  0.00    +0.001 A 
ENDBRANCH   1  15
BRANCH  11  18
ATOM     18  C   UNL     1      -3.782   2.641   1.022  0.00  0.00    +0.451 C 
ATOM     19  F   UNL     1      -4.571   2.338  -0.093  0.00  0.00    -0.163 F 
ATOM     20  F   UNL     1      -3.585   1.484   1.782  0.00  0.00    -0.163 F 
ATOM     21  F   UNL     1      -4.427   3.607   1.801  0.00  0.00    -0.163 F 
ENDBRANCH  11  18
BRANCH   7  22
ATOM     22  O   UNL     1       3.321   1.651   0.562  0.00  0.00    -0.506 OA
ATOM     23  H   UNL     1       3.185   0.689   1.078  0.00  0.00    +0.292 HD
ENDBRANCH   7  22
BRANCH   8  24
ATOM     24  C   UNL     1       0.803   0.707   1.393  0.00  0.00    -0.035 C 
BRANCH  24  25
ATOM     25  N   UNL     1       0.911   0.909   2.844  0.00  0.00    +0.384 N 
ATOM     26  C   UNL     1       2.272   1.319   3.218  0.00  0.00    -0.063 C 
ATOM     27  C   UNL     1       2.322   1.595   4.723  0.00  0.00    +0.066 C 
ATOM     28  N   UNL     1       1.919   0.387   5.455  0.00  0.00    -0.304 NA
ATOM     29  C   UNL     1       0.558  -0.023   5.080  0.00  0.00    +0.066 C 
ATOM     30  C   UNL     1       0.508  -0.300   3.575  0.00  0.00    -0.063 C 
ATOM     31  H   UNL     1       0.223   1.721   3.123  0.00  0.00    -0.081 HD
BRANCH  28  32
ATOM     32  C   UNL     1       2.027   0.589   6.905  0.00  0.00    +0.112 C 
BRANCH  32  33
ATOM     33  C   UNL     1       2.086  -0.770   7.607  0.00  0.00    +0.171 C 
BRANCH  33  34
ATOM     34  O   UNL     1       3.294  -1.441   7.245  0.00  0.00    -0.394 OA
ATOM     35  H   UNL     1       3.513  -2.439   7.654  0.00  0.00    +0.209 HD
ENDBRANCH  33  34
ENDBRANCH  32  33
ENDBRANCH  28  32
ENDBRANCH  24  25
ENDBRANCH   8  24
TORSDOF 8
