REMARK  Name = ZINC04589923
REMARK  4 active torsions:
REMARK  status: ('A' for Active; 'I' for Inactive)
REMARK    1  A    between atoms: C_1  and  C_2
REMARK    2  A    between atoms: C_5  and  C_8
REMARK    3  A    between atoms: C_9  and  C_10
REMARK    4  A    between atoms: C_13  and  C_14
REMARK                            x       y       z     vdW  Elec       q    Type
REMARK                         _______ _______ _______ _____ _____    ______ ____
ROOT
ATOM      1  C   UNL     1      -4.711   3.668   5.911  0.00  0.00    +0.225 C 
ATOM      2  N   UNL     1      -6.000   3.880   5.988  0.00  0.00    -0.206 NA
ATOM      3  C   UNL     1      -6.310   4.289   7.250  0.00  0.00    +0.152 C 
ATOM      4  C   UNL     1      -7.557   4.614   7.740  0.00  0.00    +0.043 C 
ATOM      5  C   UNL     1      -5.028   4.311   7.982  0.00  0.00    +0.364 C 
ATOM      6  O   UNL     1      -4.848   4.618   9.146  0.00  0.00    -0.243 OA
ATOM      7  O   UNL     1      -4.100   3.911   7.088  0.00  0.00    -0.403 OA
ENDROOT
BRANCH   4   8
ATOM      8  C   UNL     1      -8.713   4.645   6.839  0.00  0.00    -0.023 A 
ATOM      9  C   UNL     1      -9.958   5.090   7.305  0.00  0.00    +0.009 A 
ATOM     10  C   UNL     1     -11.037   5.122   6.451  0.00  0.00    +0.020 A 
ATOM     11  C   UNL     1     -10.898   4.705   5.136  0.00  0.00    +0.041 A 
ATOM     12  C   UNL     1      -9.672   4.258   4.668  0.00  0.00    +0.020 A 
ATOM     13  C   UNL     1      -8.581   4.226   5.508  0.00  0.00    +0.009 A 
ATOM     14 CL   UNL     1     -12.267   4.742   4.069  0.00  0.00    -0.084 Cl
ENDBRANCH   4   8
BRANCH   1  16
ATOM     15  C   UNL     1      -2.686   3.026   4.719  0.00  0.00    +0.013 C 
ATOM     16  C   UNL     1      -4.021   3.218   4.702  0.00  0.00    +0.068 C 
BRANCH  15  21
ATOM     17  C   UNL     1       0.024   1.255  -0.031  0.00  0.00    +0.044 C 
ATOM     18  C   UNL     1      -0.686   1.720   1.214  0.00  0.00    -0.050 A 
ATOM     19  C   UNL     1      -2.056   1.921   1.191  0.00  0.00    +0.004 A 
ATOM     20  C   UNL     1      -2.714   2.340   2.328  0.00  0.00    +0.008 A 
ATOM     21  C   UNL     1      -1.992   2.573   3.503  0.00  0.00    -0.025 A 
ATOM     22  C   UNL     1      -0.608   2.373   3.516  0.00  0.00    +0.008 A 
ATOM     23  C   UNL     1       0.035   1.948   2.373  0.00  0.00    +0.004 A 
ENDBRANCH  15  21
ENDBRANCH   1  16
TORSDOF 3
