REMARK  Name = ZINC35926408
REMARK  6 active torsions:
REMARK  status: ('A' for Active; 'I' for Inactive)
REMARK    1  A    between atoms: C_1  and  C_2
REMARK    2  A    between atoms: C_2  and  C_3
REMARK    3  A    between atoms: C_3  and  C_4
REMARK    4  A    between atoms: C_19  and  C_21
REMARK    5  A    between atoms: C_21  and  N_22
REMARK    6  A    between atoms: N_25  and  C_28
REMARK                            x       y       z     vdW  Elec       q    Type
REMARK                         _______ _______ _______ _____ _____    ______ ____
ROOT
ATOM      1  C   UNL     1       0.739  -2.004  -1.265  0.00  0.00    +0.216 C 
ATOM      2  O   UNL     1       0.231  -2.623  -0.354  0.00  0.00    -0.276 OA
ATOM      3  N   UNL     1       1.322  -2.665  -2.285  0.00  0.00    -0.300 N 
ATOM      4  C   UNL     1       1.308  -4.127  -2.246  0.00  0.00    +0.109 C 
ATOM      5  C   UNL     1       0.155  -4.608  -3.104  0.00  0.00    +0.038 C 
ATOM      6  C   UNL     1       0.595  -4.734  -4.565  0.00  0.00    +0.109 C 
ATOM      7  N   UNL     1       1.452  -3.619  -4.995  0.00  0.00    -0.300 N 
ATOM      8  C   UNL     1       1.183  -2.232  -4.657  0.00  0.00    +0.127 C 
ATOM      9  C   UNL     1       1.902  -1.893  -3.328  0.00  0.00    +0.126 C 
ATOM     10  C   UNL     1       2.557  -3.902  -5.752  0.00  0.00    +0.198 A 
ATOM     11  N   UNL     1       3.368  -2.887  -6.157  0.00  0.00    -0.295 N 
ATOM     12  H   UNL     1       3.162  -1.972  -5.910  0.00  0.00    +0.172 HD
ATOM     13  C   UNL     1       4.460  -3.158  -6.902  0.00  0.00    +0.253 A 
ATOM     14  O   UNL     1       5.198  -2.260  -7.274  0.00  0.00    -0.268 OA
ATOM     15  C   UNL     1       4.731  -4.496  -7.242  0.00  0.00    +0.091 A 
ATOM     16  C   UNL     1       3.882  -5.472  -6.808  0.00  0.00    +0.034 A 
ATOM     17  N   UNL     1       2.821  -5.154  -6.070  0.00  0.00    -0.223 NA
ENDROOT
BRANCH   1  18
ATOM     18  C   UNL     1       0.718  -0.497  -1.257  0.00  0.00    +0.096 C 
BRANCH  18  20
ATOM     19  C   UNL     1      -0.019   1.526   0.010  0.00  0.00    +0.004 C 
ATOM     20  C   UNL     1       0.002  -0.004   0.002  0.00  0.00    +0.006 C 
ENDBRANCH  18  20
ENDBRANCH   1  18
BRANCH  16  21
ATOM     21  C   UNL     1       4.151  -6.913  -7.158  0.00  0.00    -0.022 C 
BRANCH  21  22
ATOM     22  N   UNL     1       4.440  -7.669  -5.933  0.00  0.00    +0.385 N 
ATOM     23  C   UNL     1       5.682  -7.167  -5.332  0.00  0.00    -0.059 C 
ATOM     24  C   UNL     1       5.924  -7.876  -3.995  0.00  0.00    +0.086 C 
ATOM     25  N   UNL     1       5.905  -9.329  -4.227  0.00  0.00    -0.332 N 
ATOM     26  C   UNL     1       4.770  -9.897  -4.970  0.00  0.00    +0.086 C 
ATOM     27  C   UNL     1       4.583  -9.093  -6.261  0.00  0.00    -0.059 C 
ATOM     28  H   UNL     1       3.681  -7.550  -5.278  0.00  0.00    -0.081 HD
BRANCH  25  29
ATOM     29  C   UNL     1       6.937 -10.145  -3.755  0.00  0.00    +0.048 A 
ATOM     30  C   UNL     1       6.851 -10.714  -2.491  0.00  0.00    +0.024 A 
ATOM     31  C   UNL     1       7.872 -11.521  -2.027  0.00  0.00    +0.002 A 
ATOM     32  C   UNL     1       8.979 -11.763  -2.820  0.00  0.00    +0.002 A 
ATOM     33  C   UNL     1       9.068 -11.199  -4.079  0.00  0.00    +0.022 A 
ATOM     34  C   UNL     1       8.048 -10.395  -4.552  0.00  0.00    +0.062 A 
ATOM     35 CL   UNL     1       8.157  -9.692  -6.136  0.00  0.00    -0.082 Cl
ENDBRANCH  25  29
ENDBRANCH  21  22
ENDBRANCH  16  21
TORSDOF 5
