REMARK  Name = ZINC41515177
REMARK  13 active torsions:
REMARK  status: ('A' for Active; 'I' for Inactive)
REMARK    1  A    between atoms: C_1  and  C_2
REMARK    2  A    between atoms: C_4  and  O_36
REMARK    3  A    between atoms: C_5  and  C_25
REMARK    4  A    between atoms: C_11  and  C_12
REMARK    5  A    between atoms: C_14  and  O_22
REMARK    6  A    between atoms: C_15  and  O_20
REMARK    7  A    between atoms: C_16  and  O_18
REMARK    8  A    between atoms: O_18  and  C_19
REMARK    9  A    between atoms: O_20  and  C_21
REMARK   10  A    between atoms: O_22  and  C_23
REMARK   11  A    between atoms: C_25  and  N_26
REMARK   12  A    between atoms: C_28  and  C_35
REMARK   13  A    between atoms: C_31  and  C_34
REMARK                            x       y       z     vdW  Elec       q    Type
REMARK                         _______ _______ _______ _____ _____    ______ ____
ROOT
ATOM      1  C   UNL     1       1.099   1.373   0.036  0.00  0.00    +0.045 C 
ATOM      2  C   UNL     1       0.708  -0.083   0.018  0.00  0.00    -0.033 A 
ATOM      3  C   UNL     1       0.590  -0.744  -1.172  0.00  0.00    +0.050 A 
ATOM      4  C   UNL     1       0.229  -2.088  -1.192  0.00  0.00    +0.122 A 
ATOM      5  C   UNL     1      -0.013  -2.771  -0.010  0.00  0.00    +0.020 A 
ATOM      6  C   UNL     1       0.103  -2.113   1.208  0.00  0.00    +0.145 A 
ATOM      7  C   UNL     1       0.473  -0.758   1.216  0.00  0.00    +0.071 A 
ATOM      8  C   UNL     1       0.520  -0.348   2.631  0.00  0.00    +0.232 C 
ATOM      9  O   UNL     1       0.794   0.751   3.080  0.00  0.00    -0.283 OA
ATOM     10  C   UNL     1       0.160  -1.561   3.378  0.00  0.00    +0.176 C 
ATOM     11  C   UNL     1       0.068  -1.674   4.728  0.00  0.00    +0.058 C 
ATOM     12  O   UNL     1      -0.076  -2.543   2.476  0.00  0.00    -0.451 OA
ENDROOT
BRANCH  11  13
ATOM     13  C   UNL     1       0.170  -0.478   5.573  0.00  0.00    -0.014 A 
ATOM     14  C   UNL     1      -0.451   0.714   5.180  0.00  0.00    +0.057 A 
ATOM     15  C   UNL     1      -0.353   1.837   5.979  0.00  0.00    +0.166 A 
ATOM     16  C   UNL     1       0.362   1.786   7.173  0.00  0.00    +0.204 A 
ATOM     17  C   UNL     1       0.981   0.602   7.567  0.00  0.00    +0.166 A 
ATOM     18  C   UNL     1       0.883  -0.527   6.777  0.00  0.00    +0.057 A 
BRANCH  17  19
ATOM     19  O   UNL     1       1.678   0.556   8.734  0.00  0.00    -0.491 OA
ATOM     20  C   UNL     1       2.288  -0.690   9.077  0.00  0.00    +0.277 C 
ENDBRANCH  17  19
BRANCH  16  21
ATOM     21  O   UNL     1       0.456   2.893   7.955  0.00  0.00    -0.488 OA
ATOM     22  C   UNL     1      -0.557   3.075   8.947  0.00  0.00    +0.277 C 
ENDBRANCH  16  21
BRANCH  15  23
ATOM     23  O   UNL     1      -0.956   2.996   5.598  0.00  0.00    -0.491 OA
ATOM     24  C   UNL     1      -1.672   2.978   4.361  0.00  0.00    +0.277 C 
ENDBRANCH  15  23
ENDBRANCH  11  13
BRANCH   4  25
ATOM     25  O   UNL     1       0.113  -2.737  -2.378  0.00  0.00    -0.506 OA
ATOM     26  H   UNL     1       0.932  -3.154  -2.680  0.00  0.00    +0.292 HD
ENDBRANCH   4  25
BRANCH   5  27
ATOM     27  C   UNL     1      -0.403  -4.226  -0.046  0.00  0.00    -0.036 C 
BRANCH  27  28
ATOM     28  N   UNL     1       0.806  -5.058   0.008  0.00  0.00    +0.383 N 
ATOM     29  C   UNL     1       1.608  -4.832  -1.200  0.00  0.00    -0.075 C 
ATOM     30  C   UNL     1       2.908  -5.636  -1.111  0.00  0.00    -0.031 C 
ATOM     31  C   UNL     1       2.574  -7.125  -0.990  0.00  0.00    +0.003 C 
ATOM     32  C   UNL     1       1.675  -7.339   0.232  0.00  0.00    -0.031 C 
ATOM     33  C   UNL     1       0.421  -6.472   0.093  0.00  0.00    -0.075 C 
ATOM     34  C   UNL     1       1.272  -8.812   0.318  0.00  0.00    +0.005 C 
ATOM     35  C   UNL     1       3.703  -5.188   0.117  0.00  0.00    +0.005 C 
ATOM     36  H   UNL     1       1.348  -4.809   0.821  0.00  0.00    -0.081 HD
ENDBRANCH  27  28
ENDBRANCH   5  27
TORSDOF 7
