REMARK  Name = ZINC06659369
REMARK  8 active torsions:
REMARK  status: ('A' for Active; 'I' for Inactive)
REMARK    1  A    between atoms: C_1  and  C_2
REMARK    2  A    between atoms: C_4  and  C_27
REMARK    3  A    between atoms: C_14  and  C_17
REMARK    4  A    between atoms: C_18  and  C_26
REMARK    5  A    between atoms: C_19  and  C_24
REMARK    6  A    between atoms: C_22  and  C_23
REMARK    7  A    between atoms: C_27  and  O_28
REMARK    8  A    between atoms: O_28  and  C_29
REMARK                            x       y       z     vdW  Elec       q    Type
REMARK                         _______ _______ _______ _____ _____    ______ ____
ROOT
ATOM      1  C   UNL     1      -3.594  -3.813   2.236  0.00  0.00    +0.065 C 
ATOM      2  C   UNL     1      -2.664  -2.775   1.663  0.00  0.00    +0.040 A 
ATOM      3  C   UNL     1      -2.955  -1.436   1.857  0.00  0.00    +0.029 A 
ATOM      4  C   UNL     1      -2.148  -0.429   1.360  0.00  0.00    -0.009 A 
ATOM      5  C   UNL     1      -1.002  -0.853   0.637  0.00  0.00    +0.035 A 
ATOM      6  C   UNL     1      -0.008   0.000   0.017  0.00  0.00    +0.058 A 
ATOM      7  C   UNL     1       1.035  -0.651  -0.635  0.00  0.00    +0.097 A 
ATOM      8  S   UNL     1       0.698  -2.374  -0.442  0.00  0.00    -0.062 S 
ATOM      9  C   UNL     1      -0.796  -2.253   0.496  0.00  0.00    +0.111 A 
ATOM     10  N   UNL     1      -1.594  -3.176   0.988  0.00  0.00    -0.245 NA
ATOM     11  C   UNL     1       2.098   0.012  -1.275  0.00  0.00    +0.254 C 
ATOM     12  O   UNL     1       2.892  -0.568  -1.993  0.00  0.00    -0.270 OA
ATOM     13  N   UNL     1       2.175   1.349  -1.032  0.00  0.00    -0.289 N 
ATOM     14  C   UNL     1       1.335   1.950   0.002  0.00  0.00    +0.192 C 
ATOM     15  N   UNL     1      -0.023   1.405   0.024  0.00  0.00    -0.321 N 
ATOM     16  H   UNL     1       2.785   1.902  -1.545  0.00  0.00    +0.151 HD
ATOM     17  H   UNL     1      -0.569   1.764  -0.745  0.00  0.00    +0.148 HD
ENDROOT
BRANCH  14  18
ATOM     18  C   UNL     1       1.258   3.436  -0.239  0.00  0.00    +0.015 A 
ATOM     19  C   UNL     1       0.797   4.059  -1.404  0.00  0.00    -0.008 A 
ATOM     20  C   UNL     1       0.895   5.419  -1.202  0.00  0.00    +0.121 A 
ATOM     21  N   UNL     1       1.405   5.615   0.060  0.00  0.00    -0.350 N 
ATOM     22  H   UNL     1       1.582   6.476   0.472  0.00  0.00    +0.166 HD
ATOM     23  C   UNL     1       1.617   4.404   0.636  0.00  0.00    +0.021 A 
ATOM     24  C   UNL     1       2.163   4.175   2.022  0.00  0.00    +0.064 C 
ATOM     25  C   UNL     1       0.288   3.373  -2.645  0.00  0.00    +0.047 C 
BRANCH  20  26
ATOM     26  C   UNL     1       0.532   6.442  -2.136  0.00  0.00    +0.117 C 
ATOM     27  N   UNL     1       0.244   7.253  -2.878  0.00  0.00    -0.189 NA
ENDBRANCH  20  26
ENDBRANCH  14  18
BRANCH   4  28
ATOM     28  C   UNL     1      -2.466   1.028   1.573  0.00  0.00    +0.195 C 
BRANCH  28  29
ATOM     29  O   UNL     1      -3.671   1.148   2.331  0.00  0.00    -0.378 OA
ATOM     30  C   UNL     1      -4.063   2.497   2.591  0.00  0.00    +0.194 C 
ENDBRANCH  28  29
ENDBRANCH   4  28
TORSDOF 4
