REMARK  Name = ZINC21131976
REMARK  7 active torsions:
REMARK  status: ('A' for Active; 'I' for Inactive)
REMARK    1  A    between atoms: C_1  and  C_2
REMARK    2  A    between atoms: C_2  and  C_3
REMARK    3  A    between atoms: C_3  and  C_5
REMARK    4  A    between atoms: C_3  and  N_6
REMARK    5  A    between atoms: C_11  and  C_14
REMARK    6  A    between atoms: C_14  and  C_15
REMARK    7  A    between atoms: N_17  and  C_18
REMARK                            x       y       z     vdW  Elec       q    Type
REMARK                         _______ _______ _______ _____ _____    ______ ____
ROOT
ATOM      1  C   UNL     1      -0.009   1.091   0.008  0.00  0.00    +0.120 C 
ENDROOT
BRANCH   1   7
ATOM      2  N   UNL     1      -2.745  -0.848   3.752  0.00  0.00    -0.260 NA
ATOM      3  C   UNL     1      -1.974  -0.070   3.047  0.00  0.00    +0.157 C 
ATOM      4  N   UNL     1      -0.683   0.333   3.329  0.00  0.00    -0.264 N 
ATOM      5  C   UNL     1      -0.002   1.131   2.525  0.00  0.00    +0.232 C 
ATOM      6  O   UNL     1       1.131   1.483   2.776  0.00  0.00    -0.274 OA
ATOM      7  C   UNL     1      -0.727   1.581   1.267  0.00  0.00    +0.149 C 
ATOM      8  S   UNL     1      -2.337   0.727   1.489  0.00  0.00    -0.077 S 
ATOM      9  H   UNL     1      -0.188  -0.011   4.248  0.00  0.00    +0.157 HD
BRANCH   2  10
ATOM     10  C   UNL     1      -2.262  -1.410   5.016  0.00  0.00    +0.104 C 
ATOM     11  C   UNL     1      -2.280  -2.937   4.935  0.00  0.00    +0.032 C 
BRANCH  10  13
ATOM     12  C   UNL     1      -3.054   0.569   6.319  0.00  0.00    +0.006 C 
ATOM     13  C   UNL     1      -3.168  -0.948   6.159  0.00  0.00    +0.023 C 
ENDBRANCH  10  13
ENDBRANCH   2  10
ENDBRANCH   1   7
BRANCH   1  14
ATOM     14  C   UNL     1      -0.743   1.583  -1.213  0.00  0.00    +0.219 C 
ATOM     15  O   UNL     1      -1.742   2.260  -1.088  0.00  0.00    -0.275 OA
ATOM     16  N   UNL     1      -0.288   1.272  -2.443  0.00  0.00    -0.285 N 
ATOM     17  H   UNL     1       0.658   0.724  -2.558  0.00  0.00    +0.155 HD
BRANCH  16  18
ATOM     18  C   UNL     1      -1.022   1.646  -3.575  0.00  0.00    +0.036 A 
ATOM     19  C   UNL     1      -1.045   0.822  -4.692  0.00  0.00    +0.043 A 
ATOM     20  C   UNL     1      -1.774   1.192  -5.807  0.00  0.00    +0.044 A 
ATOM     21  C   UNL     1      -2.472   2.387  -5.814  0.00  0.00    +0.040 A 
ATOM     22  C   UNL     1      -2.446   3.212  -4.704  0.00  0.00    +0.044 A 
ATOM     23  C   UNL     1      -1.722   2.845  -3.584  0.00  0.00    +0.043 A 
ATOM     24 CL   UNL     1      -3.322   4.711  -4.717  0.00  0.00    -0.083 Cl
ATOM     25 CL   UNL     1      -1.808   0.159  -7.202  0.00  0.00    -0.083 Cl
ENDBRANCH  16  18
ENDBRANCH   1  14
TORSDOF 5
