REMARK  Name = ZINC05375271
REMARK  8 active torsions:
REMARK  status: ('A' for Active; 'I' for Inactive)
REMARK    1  A    between atoms: C_1  and  C_2
REMARK    2  A    between atoms: C_6  and  O_24
REMARK    3  A    between atoms: C_7  and  N_8
REMARK    4  A    between atoms: N_8  and  C_9
REMARK    5  A    between atoms: C_14  and  O_22
REMARK    6  A    between atoms: C_15  and  O_20
REMARK    7  A    between atoms: O_20  and  C_21
REMARK    8  A    between atoms: O_22  and  C_23
REMARK                            x       y       z     vdW  Elec       q    Type
REMARK                         _______ _______ _______ _____ _____    ______ ____
ROOT
ATOM      1  C   UNL     1       1.456  -0.407  -0.014  0.00  0.00    +0.296 C 
ATOM      2  C   UNL     1       0.002  -0.004   0.002  0.00  0.00    +0.029 A 
ATOM      3  C   UNL     1      -1.173  -0.716   0.009  0.00  0.00    +0.013 A 
ATOM      4  C   UNL     1      -2.390  -0.051   0.025  0.00  0.00    +0.050 A 
ATOM      5  C   UNL     1      -2.429   1.333   0.032  0.00  0.00    +0.162 A 
ATOM      6  C   UNL     1      -1.246   2.066   0.030  0.00  0.00    +0.176 A 
ATOM      7  C   UNL     1      -0.017   1.395   0.010  0.00  0.00    +0.112 A 
ATOM      8  C   UNL     1       1.375   1.871  -0.001  0.00  0.00    +0.345 C 
ATOM      9  O   UNL     1       1.710   3.039   0.002  0.00  0.00    -0.245 OA
ATOM     10  O   UNL     1       2.223   0.828  -0.015  0.00  0.00    -0.435 OA
ENDROOT
BRANCH   1  11
ATOM     11  N   UNL     1       1.750  -1.185  -1.224  0.00  0.00    -0.303 N 
ATOM     12  H   UNL     1       2.131  -0.596  -1.950  0.00  0.00    +0.150 HD
BRANCH  11  19
ATOM     13  C   UNL     1       4.254  -1.283  -2.568  0.00  0.00    +0.046 C 
ATOM     14  C   UNL     1       3.843  -2.336  -1.572  0.00  0.00    -0.026 A 
ATOM     15  C   UNL     1       4.696  -3.386  -1.284  0.00  0.00    +0.005 A 
ATOM     16  C   UNL     1       4.320  -4.356  -0.374  0.00  0.00    +0.004 A 
ATOM     17  C   UNL     1       3.092  -4.280   0.257  0.00  0.00    +0.047 A 
ATOM     18  C   UNL     1       2.234  -3.229  -0.022  0.00  0.00    +0.138 A 
ATOM     19  C   UNL     1       2.612  -2.250  -0.939  0.00  0.00    +0.075 A 
BRANCH  18  20
ATOM     20  O   UNL     1       1.026  -3.152   0.597  0.00  0.00    -0.505 OA
ATOM     21  H   UNL     1       0.312  -3.601   0.123  0.00  0.00    +0.292 HD
ENDBRANCH  18  20
ENDBRANCH  11  19
ENDBRANCH   1  11
BRANCH   6  22
ATOM     22  O   UNL     1      -1.284   3.423   0.038  0.00  0.00    -0.491 OA
ATOM     23  C   UNL     1      -1.319   4.078  -1.231  0.00  0.00    +0.277 C 
ENDBRANCH   6  22
BRANCH   5  24
ATOM     24  O   UNL     1      -3.627   1.977   0.048  0.00  0.00    -0.491 OA
ATOM     25  C   UNL     1      -4.801   1.164   0.055  0.00  0.00    +0.277 C 
ENDBRANCH   5  24
TORSDOF 5
