REMARK  Name = ZINC66481606
REMARK  5 active torsions:
REMARK  status: ('A' for Active; 'I' for Inactive)
REMARK    1  A    between atoms: C_4  and  C_7
REMARK    2  A    between atoms: C_10  and  S_13
REMARK    3  A    between atoms: S_13  and  C_14
REMARK    4  A    between atoms: C_14  and  C_15
REMARK    5  A    between atoms: C_15  and  O_21
REMARK                            x       y       z     vdW  Elec       q    Type
REMARK                         _______ _______ _______ _____ _____    ______ ____
ROOT
ATOM      1  C   UNL     1       3.699  -0.689  -0.037  0.00  0.00    +0.182 A 
ATOM      2  N   UNL     1       3.849  -2.021  -0.046  0.00  0.00    -0.201 NA
ATOM      3  H   UNL     1       6.796  -1.072  -0.071  0.00  0.00    +0.191 HD
ATOM      4  C   UNL     1       5.130  -2.321  -0.061  0.00  0.00    +0.185 A 
ATOM      5  N   UNL     1       5.830  -1.165  -0.062  0.00  0.00    -0.253 N 
ATOM      6  N   UNL     1       4.886  -0.127  -0.052  0.00  0.00    -0.152 NA
ENDROOT
BRANCH   1  10
ATOM      7  C   UNL     1      -0.017   1.379   0.010  0.00  0.00    +0.000 A 
ATOM      8  C   UNL     1       1.169   2.092   0.002  0.00  0.00    +0.001 A 
ATOM      9  C   UNL     1       2.377   1.426  -0.013  0.00  0.00    +0.011 A 
ATOM     10  C   UNL     1       2.402   0.033  -0.021  0.00  0.00    +0.021 A 
ATOM     11  C   UNL     1       1.205  -0.680  -0.013  0.00  0.00    +0.011 A 
ATOM     12  C   UNL     1       0.002  -0.004   0.002  0.00  0.00    +0.001 A 
ENDBRANCH   1  10
BRANCH   4  13
ATOM     13  S   UNL     1       5.812  -3.946  -0.076  0.00  0.00    -0.084 S 
BRANCH  13  14
ATOM     14  C   UNL     1       4.360  -5.032  -0.067  0.00  0.00    +0.112 C 
BRANCH  14  15
ATOM     15  C   UNL     1       4.815  -6.493  -0.079  0.00  0.00    +0.075 C 
ATOM     16  C   UNL     1       5.745  -6.727  -1.271  0.00  0.00    +0.035 C 
ATOM     17  C   UNL     1       6.200  -8.188  -1.283  0.00  0.00    +0.003 C 
ATOM     18  C   UNL     1       4.979  -9.102  -1.401  0.00  0.00    +0.000 C 
ATOM     19  C   UNL     1       4.050  -8.867  -0.209  0.00  0.00    +0.003 C 
ATOM     20  C   UNL     1       3.594  -7.407  -0.197  0.00  0.00    +0.035 C 
BRANCH  15  21
ATOM     21  O   UNL     1       5.513  -6.784   1.134  0.00  0.00    -0.388 OA
ATOM     22  H   UNL     1       6.300  -6.241   1.275  0.00  0.00    +0.210 HD
ENDBRANCH  15  21
ENDBRANCH  14  15
ENDBRANCH  13  14
ENDBRANCH   4  13
TORSDOF 5
