REMARK  Name = ZINC24985665
REMARK  7 active torsions:
REMARK  status: ('A' for Active; 'I' for Inactive)
REMARK    1  A    between atoms: C_1  and  C_2
REMARK    2  A    between atoms: C_4  and  C_14
REMARK    3  A    between atoms: C_5  and  C_13
REMARK    4  A    between atoms: C_9  and  C_12
REMARK    5  A    between atoms: C_19  and  C_21
REMARK    6  A    between atoms: C_24  and  O_27
REMARK    7  A    between atoms: O_27  and  C_28
REMARK                            x       y       z     vdW  Elec       q    Type
REMARK                         _______ _______ _______ _____ _____    ______ ____
ROOT
ATOM      1  C   UNL     1       2.459   1.752  -0.186  0.00  0.00    +0.044 C 
ATOM      2  C   UNL     1       1.296   2.096  -0.847  0.00  0.00    +0.152 C 
ATOM      3  C   UNL     1       0.375   1.195  -1.558  0.00  0.00    +0.364 C 
ATOM      4  O   UNL     1       0.476  -0.011  -1.689  0.00  0.00    -0.243 OA
ATOM      5  O   UNL     1      -0.603   1.993  -2.039  0.00  0.00    -0.402 OA
ATOM      6  C   UNL     1      -0.345   3.262  -1.670  0.00  0.00    +0.232 C 
ATOM      7  N   UNL     1       0.758   3.344  -0.978  0.00  0.00    -0.205 NA
ENDROOT
BRANCH   1  11
ATOM      8  C   UNL     1       2.107  -3.282   0.508  0.00  0.00    +0.064 C 
ATOM      9  C   UNL     1       2.633  -1.885   0.303  0.00  0.00    +0.023 A 
ATOM     10  C   UNL     1       1.878  -0.781   0.175  0.00  0.00    +0.031 A 
ATOM     11  C   UNL     1       2.807   0.344  -0.004  0.00  0.00    -0.002 A 
ATOM     12  C   UNL     1       4.078  -0.203   0.028  0.00  0.00    +0.030 A 
ATOM     13  N   UNL     1       3.954  -1.540   0.218  0.00  0.00    -0.299 N 
ATOM     14  C   UNL     1       5.022  -2.438   0.309  0.00  0.00    +0.181 A 
ATOM     15  C   UNL     1       6.200  -2.285   1.087  0.00  0.00    +0.094 A 
ATOM     16  C   UNL     1       6.907  -3.409   0.833  0.00  0.00    +0.136 A 
ATOM     17  O   UNL     1       6.176  -4.136  -0.025  0.00  0.00    -0.358 OA
ATOM     18  N   UNL     1       5.134  -3.588  -0.301  0.00  0.00    -0.060 NA
ATOM     19  C   UNL     1       8.254  -3.775   1.402  0.00  0.00    +0.089 C 
ATOM     20  C   UNL     1       5.372   0.554  -0.120  0.00  0.00    +0.064 C 
ENDBRANCH   1  11
BRANCH   6  21
ATOM     21  C   UNL     1      -1.200   4.416  -2.010  0.00  0.00    +0.037 A 
ATOM     22  C   UNL     1      -0.849   5.699  -1.581  0.00  0.00    +0.017 A 
ATOM     23  C   UNL     1      -1.647   6.774  -1.905  0.00  0.00    +0.046 A 
ATOM     24  C   UNL     1      -2.805   6.582  -2.648  0.00  0.00    +0.120 A 
ATOM     25  C   UNL     1      -3.161   5.308  -3.072  0.00  0.00    +0.046 A 
ATOM     26  C   UNL     1      -2.366   4.228  -2.757  0.00  0.00    +0.017 A 
BRANCH  24  27
ATOM     27  O   UNL     1      -3.592   7.644  -2.962  0.00  0.00    -0.495 OA
ATOM     28  C   UNL     1      -3.168   8.926  -2.494  0.00  0.00    +0.277 C 
ENDBRANCH  24  27
ENDBRANCH   6  21
TORSDOF 3
