REMARK  Name = ZINC41085330
REMARK  7 active torsions:
REMARK  status: ('A' for Active; 'I' for Inactive)
REMARK    1  A    between atoms: C_1  and  C_2
REMARK    2  A    between atoms: C_5  and  N_9
REMARK    3  A    between atoms: C_6  and  C_8
REMARK    4  A    between atoms: C_10  and  C_36
REMARK    5  A    between atoms: C_12  and  C_15
REMARK    6  A    between atoms: C_13  and  C_14
REMARK    7  A    between atoms: C_27  and  C_28
REMARK                            x       y       z     vdW  Elec       q    Type
REMARK                         _______ _______ _______ _____ _____    ______ ____
ROOT
ATOM      1  C   UNL     1       1.657  -7.384  -0.058  0.00  0.00    +0.026 C 
ATOM      2  C   UNL     1       1.118  -8.651   0.039  0.00  0.00    +0.085 A 
ATOM      3  C   UNL     1       1.976  -9.863   0.159  0.00  0.00    +0.160 A 
ATOM      4  N   UNL     1       3.124  -9.872   0.783  0.00  0.00    -0.281 NA
ATOM      5  N   UNL     1       1.426 -11.000  -0.468  0.00  0.00    -0.212 N 
ATOM      6  C   UNL     1       0.054 -11.041  -0.626  0.00  0.00    +0.199 A 
ATOM      7  N   UNL     1      -0.800 -10.087  -0.375  0.00  0.00    -0.182 NA
ATOM      8  C   UNL     1      -0.346  -8.879   0.036  0.00  0.00    +0.283 A 
ATOM      9  O   UNL     1      -1.118  -8.004   0.389  0.00  0.00    -0.265 OA
ATOM     10  S   UNL     1      -0.231 -12.677  -1.249  0.00  0.00    -0.031 S 
ATOM     11  C   UNL     1       1.475 -13.192  -1.387  0.00  0.00    +0.101 A 
ATOM     12  N   UNL     1       2.149 -12.081  -0.929  0.00  0.00    -0.283 N 
ATOM     13  C   UNL     1       1.979 -14.379  -1.830  0.00  0.00    +0.102 C 
ATOM     14  H   UNL     1       3.644 -10.690   0.832  0.00  0.00    +0.188 HD
ATOM     15  H   UNL     1       3.119 -12.058  -0.932  0.00  0.00    +0.188 HD
ENDROOT
BRANCH  13  16
ATOM     16  C   UNL     1       3.368 -14.585  -1.859  0.00  0.00    +0.242 C 
ATOM     17  O   UNL     1       4.119 -13.741  -1.400  0.00  0.00    -0.271 OA
ATOM     18  N   UNL     1       3.871 -15.715  -2.394  0.00  0.00    -0.294 N 
ATOM     19  C   UNL     1       5.323 -15.905  -2.535  0.00  0.00    +0.136 C 
ATOM     20  C   UNL     1       5.693 -17.266  -1.935  0.00  0.00    +0.179 C 
ATOM     21  O   UNL     1       4.862 -18.276  -2.511  0.00  0.00    -0.377 OA
ATOM     22  C   UNL     1       3.468 -18.113  -2.238  0.00  0.00    +0.179 C 
ATOM     23  C   UNL     1       2.984 -16.798  -2.848  0.00  0.00    +0.136 C 
ENDBRANCH  13  16
BRANCH   1  27
ATOM     24  N   UNL     1      -0.098  -4.261  -0.299  0.00  0.00    -0.317 N 
ATOM     25  C   UNL     1      -0.803  -4.983  -1.222  0.00  0.00    +0.022 A 
ATOM     26  C   UNL     1      -0.295  -6.225  -1.294  0.00  0.00    +0.031 A 
ATOM     27  C   UNL     1       0.817  -6.275  -0.335  0.00  0.00    -0.003 A 
ATOM     28  C   UNL     1       0.880  -5.016   0.239  0.00  0.00    +0.028 A 
ATOM     29  C   UNL     1       1.868  -4.569   1.286  0.00  0.00    +0.064 C 
ATOM     30  C   UNL     1      -1.966  -4.468  -2.030  0.00  0.00    +0.064 C 
BRANCH  24  35
ATOM     31  C   UNL     1      -1.129   1.153   1.053  0.00  0.00    +0.044 C 
ATOM     32  C   UNL     1      -0.856  -0.285   0.694  0.00  0.00    -0.050 A 
ATOM     33  C   UNL     1       0.021  -0.585  -0.333  0.00  0.00    +0.005 A 
ATOM     34  C   UNL     1       0.275  -1.901  -0.664  0.00  0.00    +0.026 A 
ATOM     35  C   UNL     1      -0.352  -2.925   0.035  0.00  0.00    +0.049 A 
ATOM     36  C   UNL     1      -1.232  -2.620   1.065  0.00  0.00    -0.026 A 
ATOM     37  C   UNL     1      -1.478  -1.302   1.395  0.00  0.00    +0.008 A 
ATOM     38  C   UNL     1      -1.915  -3.728   1.825  0.00  0.00    +0.046 C 
ENDBRANCH  24  35
ENDBRANCH   1  27
TORSDOF 3
