REMARK  Name = ZINC35955331
REMARK  10 active torsions:
REMARK  status: ('A' for Active; 'I' for Inactive)
REMARK    1  A    between atoms: C_1  and  C_2
REMARK    2  A    between atoms: C_4  and  C_11
REMARK    3  A    between atoms: C_6  and  C_10
REMARK    4  A    between atoms: C_7  and  O_8
REMARK    5  A    between atoms: O_8  and  C_9
REMARK    6  A    between atoms: C_17  and  C_21
REMARK    7  A    between atoms: N_23  and  C_24
REMARK    8  A    between atoms: C_24  and  C_25
REMARK    9  A    between atoms: C_24  and  C_26
REMARK   10  A    between atoms: C_24  and  C_27
REMARK                            x       y       z     vdW  Elec       q    Type
REMARK                         _______ _______ _______ _____ _____    ______ ____
ROOT
ATOM      1  C   UNL     1       0.028  -2.816  -2.516  0.00  0.00    +0.039 C 
ATOM      2  C   UNL     1       1.290  -3.678  -2.610  0.00  0.00    +0.017 C 
ATOM      3  C   UNL     1       1.415  -4.239  -4.032  0.00  0.00    +0.075 C 
ATOM      4  C   UNL     1       0.084  -4.840  -4.421  0.00  0.00    +0.111 A 
ATOM      5  N   UNL     1      -0.151  -5.655  -5.403  0.00  0.00    -0.228 NA
ATOM      6  C   UNL     1      -1.475  -5.961  -5.412  0.00  0.00    +0.143 A 
ATOM      7  C   UNL     1      -2.061  -5.290  -4.377  0.00  0.00    +0.120 A 
ATOM      8  N   UNL     1      -1.083  -4.592  -3.763  0.00  0.00    -0.333 N 
ATOM      9  C   UNL     1      -1.212  -3.712  -2.597  0.00  0.00    +0.131 C 
ENDROOT
BRANCH   1  13
ATOM     10  C   UNL     1      -0.018   1.503   0.010  0.00  0.00    +0.047 C 
ATOM     11  C   UNL     1       0.002  -0.004   0.002  0.00  0.00    -0.008 A 
ATOM     12  C   UNL     1       0.006  -0.689  -1.198  0.00  0.00    +0.011 A 
ATOM     13  C   UNL     1       0.024  -2.071  -1.206  0.00  0.00    -0.042 A 
ATOM     14  C   UNL     1       0.040  -2.772  -0.014  0.00  0.00    +0.011 A 
ATOM     15  C   UNL     1       0.036  -2.092   1.188  0.00  0.00    -0.008 A 
ATOM     16  C   UNL     1       0.023  -0.705   1.199  0.00  0.00    +0.126 A 
ATOM     17  C   UNL     1       0.052  -2.856   2.487  0.00  0.00    +0.047 C 
BRANCH  16  18
ATOM     18  O   UNL     1       0.025  -0.033   2.381  0.00  0.00    -0.495 OA
ATOM     19  C   UNL     1      -1.246   0.270   2.957  0.00  0.00    +0.277 C 
ENDBRANCH  16  18
ENDBRANCH   1  13
BRANCH   6  20
ATOM     20  C   UNL     1      -2.155  -6.854  -6.366  0.00  0.00    +0.264 C 
ATOM     21  O   UNL     1      -3.352  -7.049  -6.269  0.00  0.00    -0.268 OA
ATOM     22  N   UNL     1      -1.452  -7.455  -7.346  0.00  0.00    -0.305 N 
ATOM     23  H   UNL     1      -0.497  -7.300  -7.423  0.00  0.00    +0.150 HD
BRANCH  22  24
ATOM     24  C   UNL     1      -2.128  -8.344  -8.294  0.00  0.00    +0.027 C 
ATOM     25  C   UNL     1      -3.210  -7.562  -9.043  0.00  0.00    +0.031 C 
ATOM     26  C   UNL     1      -1.110  -8.891  -9.296  0.00  0.00    +0.031 C 
ATOM     27  C   UNL     1      -2.772  -9.505  -7.535  0.00  0.00    +0.031 C 
ENDBRANCH  22  24
ENDBRANCH   6  20
TORSDOF 4
