REMARK  Name = ZINC07112571
REMARK  6 active torsions:
REMARK  status: ('A' for Active; 'I' for Inactive)
REMARK    1  A    between atoms: C_1  and  O_2
REMARK    2  A    between atoms: O_2  and  C_3
REMARK    3  A    between atoms: C_7  and  C_10
REMARK    4  A    between atoms: C_8  and  O_9
REMARK    5  A    between atoms: N_21  and  C_22
REMARK    6  A    between atoms: C_22  and  C_23
REMARK                            x       y       z     vdW  Elec       q    Type
REMARK                         _______ _______ _______ _____ _____    ______ ____
ROOT
ATOM      1  C   UNL     1       1.150  -0.399  -0.720  0.00  0.00    +0.197 C 
ATOM      2  N   UNL     1       0.007   0.205  -0.026  0.00  0.00    -0.321 N 
ATOM      3  C   UNL     1       0.000   1.582   0.168  0.00  0.00    +0.041 A 
ATOM      4  C   UNL     1      -1.177   2.308   0.226  0.00  0.00    +0.024 A 
ATOM      5  C   UNL     1      -1.127   3.675   0.422  0.00  0.00    +0.002 A 
ATOM      6  C   UNL     1       0.090   4.325   0.551  0.00  0.00    +0.001 A 
ATOM      7  C   UNL     1       1.272   3.616   0.492  0.00  0.00    +0.015 A 
ATOM      8  C   UNL     1       1.237   2.237   0.301  0.00  0.00    +0.058 A 
ATOM      9  C   UNL     1       2.469   1.431   0.236  0.00  0.00    +0.250 C 
ATOM     10  O   UNL     1       3.533   1.904   0.588  0.00  0.00    -0.270 OA
ATOM     11  N   UNL     1       2.404   0.163  -0.218  0.00  0.00    -0.267 N 
ATOM     12  H   UNL     1      -0.727  -0.344   0.291  0.00  0.00    +0.148 HD
ENDROOT
BRANCH   1  17
ATOM     13  C   UNL     1       0.180  -0.696  -4.367  0.00  0.00    +0.162 A 
ATOM     14  C   UNL     1       0.840   0.394  -4.913  0.00  0.00    +0.049 A 
ATOM     15  C   UNL     1       1.596   1.221  -4.103  0.00  0.00    +0.004 A 
ATOM     16  C   UNL     1       1.691   0.966  -2.747  0.00  0.00    +0.011 A 
ATOM     17  C   UNL     1       1.040  -0.122  -2.197  0.00  0.00    +0.036 A 
ATOM     18  C   UNL     1       0.281  -0.955  -3.004  0.00  0.00    +0.165 A 
BRANCH  13  20
ATOM     19  C   UNL     1      -0.621  -1.183  -6.553  0.00  0.00    +0.277 C 
ATOM     20  O   UNL     1      -0.564  -1.510  -5.163  0.00  0.00    -0.491 OA
ENDBRANCH  13  20
BRANCH  18  21
ATOM     21  O   UNL     1      -0.364  -2.023  -2.464  0.00  0.00    -0.503 OA
ATOM     22  H   UNL     1      -1.261  -1.829  -2.159  0.00  0.00    +0.292 HD
ENDBRANCH  18  21
ENDBRANCH   1  17
BRANCH  11  23
ATOM     23  C   UNL     1       3.611  -0.668  -0.207  0.00  0.00    +0.184 C 
BRANCH  23  24
ATOM     24  C   UNL     1       4.348  -0.500  -1.512  0.00  0.00    +0.122 A 
ATOM     25  C   UNL     1       5.279   0.434  -1.774  0.00  0.00    +0.046 A 
ATOM     26  C   UNL     1       5.704   0.225  -3.106  0.00  0.00    +0.041 A 
ATOM     27  C   UNL     1       5.001  -0.819  -3.581  0.00  0.00    +0.195 A 
ATOM     28  O   UNL     1       4.181  -1.254  -2.610  0.00  0.00    -0.466 OA
ENDBRANCH  23  24
ENDBRANCH  11  23
TORSDOF 5
