REMARK  Name = ZINC15071112
REMARK  11 active torsions:
REMARK  status: ('A' for Active; 'I' for Inactive)
REMARK    1  A    between atoms: C_1  and  C_2
REMARK    2  A    between atoms: C_3  and  C_33
REMARK    3  A    between atoms: C_6  and  O_31
REMARK    4  A    between atoms: C_7  and  C_11
REMARK    5  A    between atoms: C_11  and  N_74
REMARK    6  A    between atoms: C_14  and  C_17
REMARK    7  A    between atoms: C_20  and  S_23
REMARK    8  A    between atoms: N_21  and  C_22
REMARK    9  A    between atoms: S_23  and  C_24
REMARK   10  A    between atoms: C_24  and  C_25
REMARK   11  A    between atoms: O_31  and  C_32
REMARK                            x       y       z     vdW  Elec       q    Type
REMARK                         _______ _______ _______ _____ _____    ______ ____
ROOT
ATOM      1  C   UNL     1       5.504   1.821  -1.255  0.00  0.00    -0.078 C 
ATOM      2  C   UNL     1       3.983   1.654  -1.277  0.00  0.00    -0.008 C 
ATOM      3  C   UNL     1       3.539   0.889  -0.027  0.00  0.00    +0.054 C 
ATOM      4  C   UNL     1       4.006   1.648   1.218  0.00  0.00    -0.008 C 
ATOM      5  C   UNL     1       5.526   1.814   1.169  0.00  0.00    -0.078 C 
ATOM      6  N   UNL     1       5.886   2.579  -0.045  0.00  0.00    +0.382 N 
ATOM      7  H   UNL     1       5.379   3.472  -0.038  0.00  0.00    -0.081 HD
ENDROOT
BRANCH   3   8
ATOM      8  C   UNL     1       2.037   0.774  -0.013  0.00  0.00    +0.137 A 
ATOM      9  N   UNL     1       1.187   1.762   0.000  0.00  0.00    -0.133 NA
ATOM     10  N   UNL     1      -0.016   1.309   0.009  0.00  0.00    -0.123 NA
ATOM     11  C   UNL     1       0.002  -0.004   0.002  0.00  0.00    +0.191 A 
ATOM     12  N   UNL     1       1.313  -0.386  -0.013  0.00  0.00    -0.309 N 
ATOM     13  C   UNL     1       1.835  -1.755  -0.025  0.00  0.00    +0.152 C 
BRANCH  11  14
ATOM     14  S   UNL     1      -1.400  -1.071   0.009  0.00  0.00    -0.083 S 
BRANCH  14  15
ATOM     15  C   UNL     1      -2.729   0.157   0.029  0.00  0.00    +0.109 C 
BRANCH  15  16
ATOM     16  C   UNL     1      -4.083  -0.556   0.037  0.00  0.00    +0.129 C 
ATOM     17  C   UNL     1      -5.236   0.477  -0.018  0.00  0.00    +0.034 C 
ATOM     18  C   UNL     1      -6.372  -0.381  -0.637  0.00  0.00    +0.031 C 
ATOM     19  C   UNL     1      -5.596  -1.311  -1.594  0.00  0.00    +0.160 C 
ATOM     20  O   UNL     1      -4.235  -1.351  -1.149  0.00  0.00    -0.376 OA
ENDBRANCH  15  16
ENDBRANCH  14  15
ENDBRANCH  11  14
ENDBRANCH   3   8
BRANCH   6  21
ATOM     21  C   UNL     1       7.338   2.852  -0.057  0.00  0.00    -0.039 C 
BRANCH  21  28
ATOM     22  C   UNL     1       8.851   9.210   3.511  0.00  0.00    +0.087 C 
ATOM     23  C   UNL     1       8.579   7.782   3.111  0.00  0.00    +0.111 A 
ATOM     24  C   UNL     1       8.566   6.728   3.959  0.00  0.00    +0.031 A 
ATOM     25  C   UNL     1       8.258   5.548   3.130  0.00  0.00    +0.032 A 
ATOM     26  C   UNL     1       8.104   4.189   3.395  0.00  0.00    +0.058 A 
ATOM     27  C   UNL     1       7.807   3.322   2.360  0.00  0.00    +0.122 A 
ATOM     28  C   UNL     1       7.662   3.806   1.063  0.00  0.00    -0.019 A 
ATOM     29  C   UNL     1       7.818   5.148   0.794  0.00  0.00    +0.052 A 
ATOM     30  C   UNL     1       8.112   6.035   1.823  0.00  0.00    +0.136 A 
ATOM     31  O   UNL     1       8.312   7.369   1.862  0.00  0.00    -0.459 OA
BRANCH  24  32
ATOM     32  C   UNL     1       8.812   6.753   5.421  0.00  0.00    -0.014 A 
ATOM     33  C   UNL     1       7.789   6.422   6.308  0.00  0.00    +0.008 A 
ATOM     34  C   UNL     1       8.024   6.443   7.667  0.00  0.00    +0.001 A 
ATOM     35  C   UNL     1       9.269   6.803   8.151  0.00  0.00    +0.000 A 
ATOM     36  C   UNL     1      10.287   7.138   7.275  0.00  0.00    +0.001 A 
ATOM     37  C   UNL     1      10.064   7.115   5.913  0.00  0.00    +0.008 A 
ENDBRANCH  24  32
BRANCH  27  38
ATOM     38  O   UNL     1       7.656   1.994   2.610  0.00  0.00    -0.495 OA
ATOM     39  C   UNL     1       7.818   1.566   3.964  0.00  0.00    +0.277 C 
ENDBRANCH  27  38
ENDBRANCH  21  28
ENDBRANCH   6  21
TORSDOF 8
