REMARK  Name = ZINC01644294
REMARK  8 active torsions:
REMARK  status: ('A' for Active; 'I' for Inactive)
REMARK    1  A    between atoms: C_6  and  C_11
REMARK    2  A    between atoms: C_11  and  C_12
REMARK    3  A    between atoms: C_12  and  O_13
REMARK    4  A    between atoms: O_13  and  C_14
REMARK    5  A    between atoms: C_14  and  C_16
REMARK    6  A    between atoms: C_17  and  C_18
REMARK    7  A    between atoms: C_21  and  O_25
REMARK    8  A    between atoms: C_22  and  O_24
REMARK                            x       y       z     vdW  Elec       q    Type
REMARK                         _______ _______ _______ _____ _____    ______ ____
ROOT
ATOM      1  C   UNL     1       1.034   9.985   2.688  0.00  0.00    +0.332 C 
ATOM      2  O   UNL     1       1.052   9.318   3.704  0.00  0.00    -0.246 OA
ENDROOT
BRANCH   1   3
ATOM      3  C   UNL     1       1.015  11.400   2.769  0.00  0.00    +0.092 C 
ATOM      4  C   UNL     1       1.018  12.008   3.976  0.00  0.00    +0.015 C 
BRANCH   4   5
ATOM      5  C   UNL     1       0.999  13.475   4.060  0.00  0.00    -0.021 A 
ATOM      6  C   UNL     1       0.978  14.245   2.892  0.00  0.00    +0.012 A 
ATOM      7  C   UNL     1       0.959  15.620   2.974  0.00  0.00    +0.050 A 
ATOM      8  C   UNL     1       0.962  16.245   4.213  0.00  0.00    +0.158 A 
ATOM      9  C   UNL     1       0.983  15.485   5.382  0.00  0.00    +0.159 A 
ATOM     10  C   UNL     1       0.996  14.106   5.310  0.00  0.00    +0.057 A 
BRANCH   9  11
ATOM     11  O   UNL     1       0.985  16.102   6.594  0.00  0.00    -0.503 OA
ATOM     12  H   UNL     1       0.103  16.268   6.953  0.00  0.00    +0.292 HD
ENDBRANCH   9  11
BRANCH   8  13
ATOM     13  O   UNL     1       0.943  17.601   4.288  0.00  0.00    -0.503 OA
ATOM     14  H   UNL     1       0.054  17.981   4.318  0.00  0.00    +0.292 HD
ENDBRANCH   8  13
ENDBRANCH   4   5
ENDBRANCH   1   3
BRANCH   1  15
ATOM     15  O   UNL     1       1.031   9.379   1.482  0.00  0.00    -0.461 OA
BRANCH  15  16
ATOM     16  C   UNL     1       1.050   7.950   1.475  0.00  0.00    +0.237 C 
BRANCH  16  17
ATOM     17  C   UNL     1       1.044   7.447   0.030  0.00  0.00    +0.076 C 
BRANCH  17  23
ATOM     18  C   UNL     1      -0.013   1.076   0.008  0.00  0.00    +0.001 A 
ATOM     19  C   UNL     1      -1.235   1.746   0.017  0.00  0.00    +0.001 A 
ATOM     20  C   UNL     1      -1.288   3.106   0.030  0.00  0.00    +0.008 A 
ATOM     21  C   UNL     1      -0.096   3.849   0.023  0.00  0.00    -0.018 A 
ATOM     22  C   UNL     1      -0.111   5.254   0.030  0.00  0.00    +0.012 A 
ATOM     23  C   UNL     1       1.064   5.940   0.022  0.00  0.00    -0.044 A 
ATOM     24  C   UNL     1       2.286   5.270   0.008  0.00  0.00    +0.004 A 
ATOM     25  C   UNL     1       2.340   3.910  -0.000  0.00  0.00    +0.009 A 
ATOM     26  C   UNL     1       1.147   3.167   0.008  0.00  0.00    -0.018 A 
ATOM     27  C   UNL     1       1.163   1.762   0.000  0.00  0.00    +0.008 A 
ENDBRANCH  17  23
ENDBRANCH  16  17
ENDBRANCH  15  16
ENDBRANCH   1  15
TORSDOF 8
