REMARK  Name = ZINC02432516
REMARK  9 active torsions:
REMARK  status: ('A' for Active; 'I' for Inactive)
REMARK    1  A    between atoms: C_1  and  C_2
REMARK    2  A    between atoms: C_2  and  C_3
REMARK    3  A    between atoms: C_3  and  C_4
REMARK    4  A    between atoms: C_4  and  N_5
REMARK    5  A    between atoms: C_11  and  C_13
REMARK    6  A    between atoms: C_11  and  C_14
REMARK    7  A    between atoms: C_15  and  C_19
REMARK    8  A    between atoms: C_15  and  C_23
REMARK    9  A    between atoms: C_17  and  O_18
REMARK                            x       y       z     vdW  Elec       q    Type
REMARK                         _______ _______ _______ _____ _____    ______ ____
ROOT
ATOM      1  N   UNL     1       2.117  -2.367  -2.183  0.00  0.00    -0.259 N 
ATOM      2  C   UNL     1       1.227  -2.977  -3.028  0.00  0.00    +0.025 C 
ATOM      3  C   UNL     1       1.544  -3.135  -4.332  0.00  0.00    +0.057 C 
ATOM      4  C   UNL     1       0.661  -3.771  -5.220  0.00  0.00    +0.164 C 
ATOM      5  O   UNL     1       0.974  -3.897  -6.387  0.00  0.00    -0.292 OA
ATOM      6  C   UNL     1      -0.668  -4.298  -4.750  0.00  0.00    +0.086 C 
ATOM      7  C   UNL     1      -0.560  -4.681  -3.270  0.00  0.00    -0.023 C 
ATOM      8  C   UNL     1      -0.093  -3.456  -2.482  0.00  0.00    +0.058 C 
ATOM      9  C   UNL     1       0.454  -5.815  -3.106  0.00  0.00    +0.011 C 
ATOM     10  C   UNL     1      -1.929  -5.132  -2.755  0.00  0.00    +0.011 C 
ATOM     11  C   UNL     1       2.859  -2.624  -4.861  0.00  0.00    +0.284 C 
ATOM     12  N   UNL     1       3.804  -2.372  -3.782  0.00  0.00    -0.207 NA
ATOM     13  C   UNL     1       3.437  -2.248  -2.551  0.00  0.00    +0.284 C 
ENDROOT
BRANCH  11  14
ATOM     14  C   UNL     1       2.618  -1.323  -5.629  0.00  0.00    +0.428 C 
ATOM     15  F   UNL     1       2.054  -0.373  -4.771  0.00  0.00    -0.167 F 
ATOM     16  F   UNL     1       3.834  -0.842  -6.125  0.00  0.00    -0.167 F 
ATOM     17  F   UNL     1       1.744  -1.566  -6.695  0.00  0.00    -0.167 F 
ENDBRANCH  11  14
BRANCH  11  18
ATOM     18  C   UNL     1       3.454  -3.663  -5.814  0.00  0.00    +0.428 C 
ATOM     19  F   UNL     1       2.826  -3.566  -7.060  0.00  0.00    -0.167 F 
ATOM     20  F   UNL     1       4.825  -3.429  -5.963  0.00  0.00    -0.167 F 
ATOM     21  F   UNL     1       3.253  -4.945  -5.289  0.00  0.00    -0.167 F 
ENDBRANCH  11  18
BRANCH  13  22
ATOM     22  O   UNL     1       4.370  -2.002  -1.605  0.00  0.00    -0.481 OA
ATOM     23  H   UNL     1       5.271  -1.933  -1.949  0.00  0.00    +0.295 HD
ENDBRANCH  13  22
BRANCH   1  24
ATOM     24  C   UNL     1       1.663  -1.839  -0.894  0.00  0.00    +0.115 C 
BRANCH  24  25
ATOM     25  C   UNL     1       1.217  -0.386  -1.068  0.00  0.00    +0.019 C 
BRANCH  25  27
ATOM     26  C   UNL     1       0.296   1.619   0.105  0.00  0.00    +0.004 C 
ATOM     27  C   UNL     1       0.742   0.166   0.278  0.00  0.00    -0.002 C 
ENDBRANCH  25  27
ENDBRANCH  24  25
ENDBRANCH   1  24
TORSDOF 6
