REMARK  Name = ZINC58520645
REMARK  7 active torsions:
REMARK  status: ('A' for Active; 'I' for Inactive)
REMARK    1  A    between atoms: C_1  and  C_2
REMARK    2  A    between atoms: C_6  and  C_9
REMARK    3  A    between atoms: C_7  and  N_8
REMARK    4  A    between atoms: C_9  and  O_11
REMARK    5  A    between atoms: O_11  and  C_12
REMARK    6  A    between atoms: C_12  and  C_13
REMARK    7  A    between atoms: C_26  and  C_28
REMARK                            x       y       z     vdW  Elec       q    Type
REMARK                         _______ _______ _______ _____ _____    ______ ____
ROOT
ATOM      1  C   UNL     1      -0.236  -6.739   2.865  0.00  0.00    +0.258 C 
ATOM      2  O   UNL     1      -0.314  -7.046   1.694  0.00  0.00    -0.271 OA
ATOM      3  N   UNL     1      -0.261  -7.694   3.816  0.00  0.00    -0.255 N 
ATOM      4  C   UNL     1      -0.177  -7.353   5.173  0.00  0.00    +0.058 A 
ATOM      5  C   UNL     1      -1.244  -6.746   5.815  0.00  0.00    +0.025 A 
ATOM      6  C   UNL     1      -1.151  -6.438   7.160  0.00  0.00    +0.002 A 
ATOM      7  C   UNL     1       0.000  -6.735   7.866  0.00  0.00    +0.002 A 
ATOM      8  C   UNL     1       1.073  -7.333   7.230  0.00  0.00    +0.025 A 
ATOM      9  C   UNL     1       0.992  -7.635   5.880  0.00  0.00    +0.055 A 
ATOM     10  N   UNL     1       2.083  -8.190   5.202  0.00  0.00    -0.284 N 
ATOM     11  C   UNL     1       1.918  -9.264   4.400  0.00  0.00    +0.219 C 
ATOM     12  O   UNL     1       2.855  -9.684   3.754  0.00  0.00    -0.275 OA
ATOM     13  C   UNL     1       0.578  -9.944   4.303  0.00  0.00    +0.128 C 
ATOM     14  C   UNL     1      -0.382  -9.107   3.450  0.00  0.00    +0.194 C 
ATOM     15  H   UNL     1       2.965  -7.800   5.309  0.00  0.00    +0.155 HD
ENDROOT
BRANCH  14  16
ATOM     16  C   UNL     1      -1.820  -9.573   3.688  0.00  0.00    +0.409 C 
ATOM     17  F   UNL     1      -2.693  -8.810   2.905  0.00  0.00    -0.169 F 
ATOM     18  F   UNL     1      -1.937 -10.922   3.339  0.00  0.00    -0.169 F 
ATOM     19  F   UNL     1      -2.144  -9.411   5.040  0.00  0.00    -0.169 F 
ENDBRANCH  14  16
BRANCH   1  20
ATOM     20  C   UNL     1      -0.111  -5.290   3.257  0.00  0.00    +0.328 C 
BRANCH  20  21
ATOM     21  O   UNL     1      -0.107  -4.477   2.082  0.00  0.00    -0.452 OA
BRANCH  21  22
ATOM     22  C   UNL     1      -0.000  -3.145   2.259  0.00  0.00    +0.341 C 
ATOM     23  O   UNL     1       0.086  -2.687   3.381  0.00  0.00    -0.245 OA
BRANCH  22  29
ATOM     24  C   UNL     1      -0.009   1.480   0.352  0.00  0.00    +0.045 C 
ATOM     25  C   UNL     1       0.006  -0.015   0.166  0.00  0.00    -0.029 A 
ATOM     26  C   UNL     1       0.031  -0.551  -1.105  0.00  0.00    +0.005 A 
ATOM     27  C   UNL     1       0.045  -1.925  -1.288  0.00  0.00    +0.001 A 
ATOM     28  C   UNL     1       0.035  -2.772  -0.202  0.00  0.00    +0.017 A 
ATOM     29  C   UNL     1       0.011  -2.245   1.093  0.00  0.00    +0.080 A 
ATOM     30  C   UNL     1       0.002  -0.853   1.274  0.00  0.00    +0.042 A 
BRANCH  30  31
ATOM     31  N   UNL     1      -0.016  -0.316   2.555  0.00  0.00    -0.357 N 
ATOM     32  H   UNL     1      -0.109   0.642   2.678  0.00  0.00    +0.142 HD
ATOM     33  H   UNL     1       0.063  -0.899   3.326  0.00  0.00    +0.142 HD
ENDBRANCH  30  31
ENDBRANCH  22  29
ENDBRANCH  21  22
ENDBRANCH  20  21
ENDBRANCH   1  20
TORSDOF 6
