REMARK  Name = ZINC52888363
REMARK  5 active torsions:
REMARK  status: ('A' for Active; 'I' for Inactive)
REMARK    1  A    between atoms: C_9  and  S_11
REMARK    2  A    between atoms: S_11  and  C_12
REMARK    3  A    between atoms: C_12  and  C_13
REMARK    4  A    between atoms: C_16  and  C_18
REMARK    5  A    between atoms: C_21  and  C_24
REMARK                            x       y       z     vdW  Elec       q    Type
REMARK                         _______ _______ _______ _____ _____    ______ ____
ROOT
ATOM      1  C   UNL     1       7.836  -1.848  -0.085  0.00  0.00    +0.059 A 
ATOM      2  C   UNL     1       8.482  -2.104   1.086  0.00  0.00    +0.071 A 
ATOM      3  S   UNL     1      10.051  -2.706   0.471  0.00  0.00    -0.075 S 
ATOM      4  C   UNL     1       9.676  -2.551  -1.270  0.00  0.00    +0.109 A 
ATOM      5  N   UNL     1       8.437  -2.079  -1.226  0.00  0.00    -0.243 NA
ENDROOT
BRANCH   4   6
ATOM      6  C   UNL     1      10.517  -2.869  -2.442  0.00  0.00    +0.007 A 
ATOM      7  C   UNL     1      10.023  -2.664  -3.733  0.00  0.00    +0.011 A 
ATOM      8  C   UNL     1      10.807  -2.959  -4.824  0.00  0.00    +0.014 A 
ATOM      9  C   UNL     1      12.097  -3.465  -4.642  0.00  0.00    +0.037 A 
ATOM     10  C   UNL     1      12.591  -3.670  -3.351  0.00  0.00    +0.014 A 
ATOM     11  C   UNL     1      11.809  -3.369  -2.259  0.00  0.00    +0.011 A 
BRANCH   9  12
ATOM     12  C   UNL     1      12.938  -3.782  -5.814  0.00  0.00    +0.242 C 
ATOM     13  O   UNL     1      12.509  -3.604  -6.937  0.00  0.00    -0.270 OA
ATOM     14  N   UNL     1      14.183  -4.269  -5.638  0.00  0.00    -0.325 N 
ATOM     15  H   UNL     1      14.526  -4.412  -4.742  0.00  0.00    +0.145 HD
ATOM     16  H   UNL     1      14.735  -4.478  -6.407  0.00  0.00    +0.145 HD
ENDBRANCH   9  12
ENDBRANCH   4   6
BRANCH   1  17
ATOM     17  C   UNL     1       6.430  -1.306  -0.068  0.00  0.00    +0.131 C 
BRANCH  17  18
ATOM     18  S   UNL     1       5.251  -2.684  -0.064  0.00  0.00    -0.100 S 
BRANCH  18  27
ATOM     19  C   UNL     1      -0.016   1.358   0.009  0.00  0.00    +0.001 A 
ATOM     20  C   UNL     1       1.169   2.088   0.002  0.00  0.00    +0.002 A 
ATOM     21  C   UNL     1       2.379   1.463  -0.013  0.00  0.00    +0.028 A 
ATOM     22  C   UNL     1       2.438   0.059  -0.021  0.00  0.00    +0.072 A 
ATOM     23  C   UNL     1       1.231  -0.681  -0.013  0.00  0.00    +0.000 A 
ATOM     24  C   UNL     1       0.002  -0.004   0.002  0.00  0.00    +0.010 A 
ATOM     25  C   UNL     1       1.290  -2.090  -0.021  0.00  0.00    +0.012 A 
ATOM     26  C   UNL     1       2.515  -2.685  -0.036  0.00  0.00    +0.035 A 
ATOM     27  C   UNL     1       3.675  -1.897  -0.044  0.00  0.00    +0.098 A 
ATOM     28  N   UNL     1       3.613  -0.580  -0.036  0.00  0.00    -0.240 NA
ENDBRANCH  18  27
ENDBRANCH  17  18
ENDBRANCH   1  17
TORSDOF 5
