REMARK  Name = ZINC25446861
REMARK  9 active torsions:
REMARK  status: ('A' for Active; 'I' for Inactive)
REMARK    1  A    between atoms: C_5  and  O_7
REMARK    2  A    between atoms: O_7  and  C_8
REMARK    3  A    between atoms: C_8  and  C_9
REMARK    4  A    between atoms: C_12  and  S_15
REMARK    5  A    between atoms: N_13  and  N_14
REMARK    6  A    between atoms: S_15  and  C_16
REMARK    7  A    between atoms: C_16  and  C_17
REMARK    8  A    between atoms: N_22  and  C_25
REMARK    9  A    between atoms: C_25  and  C_26
REMARK                            x       y       z     vdW  Elec       q    Type
REMARK                         _______ _______ _______ _____ _____    ______ ____
ROOT
ATOM      1  C   UNL     1       3.910  -7.185  -8.246  0.00  0.00    +0.189 A 
ATOM      2  N   UNL     1       3.027  -6.466  -7.612  0.00  0.00    -0.128 NA
ATOM      3  N   UNL     1       3.616  -5.580  -6.890  0.00  0.00    -0.121 NA
ATOM      4  C   UNL     1       4.917  -5.681  -7.032  0.00  0.00    +0.209 A 
ATOM      5  N   UNL     1       5.146  -6.711  -7.899  0.00  0.00    -0.225 N 
ENDROOT
BRANCH   5   6
ATOM      6  N   UNL     1       6.357  -7.172  -8.331  0.00  0.00    -0.295 N 
ATOM      7  H   UNL     1       7.284  -6.700  -7.974  0.00  0.00    +0.163 HD
ATOM      8  H   UNL     1       6.405  -8.015  -9.036  0.00  0.00    +0.163 HD
ENDBRANCH   5   6
BRANCH   1   9
ATOM      9  C   UNL     1       3.624  -8.327  -9.186  0.00  0.00    +0.306 C 
BRANCH   9  10
ATOM     10  O   UNL     1       3.574  -9.550  -8.449  0.00  0.00    -0.481 OA
BRANCH  10  15
ATOM     11  C   UNL     1       2.872 -11.779 -11.239  0.00  0.00    +0.004 A 
ATOM     12  C   UNL     1       2.810 -12.997 -10.587  0.00  0.00    +0.003 A 
ATOM     13  C   UNL     1       3.004 -13.063  -9.220  0.00  0.00    +0.042 A 
ATOM     14  C   UNL     1       3.260 -11.910  -8.500  0.00  0.00    +0.165 A 
ATOM     15  C   UNL     1       3.323 -10.686  -9.153  0.00  0.00    +0.156 A 
ATOM     16  C   UNL     1       3.123 -10.623 -10.524  0.00  0.00    +0.048 A 
ATOM     17  F   UNL     1       3.449 -11.975  -7.164  0.00  0.00    -0.202 F 
ENDBRANCH  10  15
ENDBRANCH   9  10
ENDBRANCH   1   9
BRANCH   4  18
ATOM     18  S   UNL     1       6.137  -4.683  -6.247  0.00  0.00    -0.075 S 
BRANCH  18  19
ATOM     19  C   UNL     1       5.070  -3.580  -5.286  0.00  0.00    +0.173 C 
BRANCH  19  20
ATOM     20  C   UNL     1       5.921  -2.608  -4.510  0.00  0.00    +0.226 C 
ATOM     21  O   UNL     1       7.130  -2.657  -4.596  0.00  0.00    -0.275 OA
ATOM     22  N   UNL     1       5.339  -1.686  -3.718  0.00  0.00    -0.298 N 
ATOM     23  C   UNL     1       6.150  -0.729  -2.951  0.00  0.00    +0.123 C 
ATOM     24  C   UNL     1       5.693  -0.764  -1.489  0.00  0.00    +0.104 C 
ATOM     25  N   UNL     1       4.243  -0.538  -1.427  0.00  0.00    -0.295 NA
ATOM     26  C   UNL     1       3.507  -1.610  -2.111  0.00  0.00    +0.104 C 
ATOM     27  C   UNL     1       3.875  -1.610  -3.599  0.00  0.00    +0.123 C 
BRANCH  25  28
ATOM     28  C   UNL     1       3.792  -0.394  -0.037  0.00  0.00    +0.127 C 
BRANCH  28  29
ATOM     29  C   UNL     1       2.360   0.077  -0.020  0.00  0.00    +0.005 A 
ATOM     30  C   UNL     1       1.221  -0.657  -0.013  0.00  0.00    +0.014 A 
ATOM     31  C   UNL     1       0.002  -0.004   0.002  0.00  0.00    +0.028 A 
ATOM     32  C   UNL     1      -0.016   1.352   0.009  0.00  0.00    +0.078 A 
ATOM     33  S   UNL     1       1.725   1.745  -0.005  0.00  0.00    -0.080 S 
ATOM     34 CL   UNL     1      -1.379   2.427   0.022  0.00  0.00    -0.076 Cl
ENDBRANCH  28  29
ENDBRANCH  25  28
ENDBRANCH  19  20
ENDBRANCH  18  19
ENDBRANCH   4  18
TORSDOF 9
