REMARK  Name = ZINC49704749
REMARK  5 active torsions:
REMARK  status: ('A' for Active; 'I' for Inactive)
REMARK    1  A    between atoms: C_1  and  C_2
REMARK    2  A    between atoms: C_15  and  C_17
REMARK    3  A    between atoms: N_26  and  C_27
REMARK    4  A    between atoms: C_27  and  C_28
REMARK    5  A    between atoms: C_27  and  C_29
REMARK                            x       y       z     vdW  Elec       q    Type
REMARK                         _______ _______ _______ _____ _____    ______ ____
ROOT
ATOM      1  C   UNL     1      -3.061  -2.657   0.229  0.00  0.00    +0.008 C 
ATOM      2  C   UNL     1      -1.601  -2.209   0.133  0.00  0.00    -0.008 C 
ATOM      3  C   UNL     1      -0.839  -2.686   1.371  0.00  0.00    +0.022 C 
ATOM      4  C   UNL     1       0.618  -2.220   1.284  0.00  0.00    +0.108 C 
ATOM      5  N   UNL     1       1.188  -2.673   0.008  0.00  0.00    -0.298 N 
ATOM      6  C   UNL     1       0.483  -2.327  -1.237  0.00  0.00    +0.079 C 
ATOM      7  C   UNL     1      -0.964  -2.811  -1.120  0.00  0.00    +0.012 C 
ATOM      8  C   UNL     1      -1.757  -2.403  -2.359  0.00  0.00    +0.005 C 
ATOM      9  C   UNL     1      -1.732  -0.881  -2.513  0.00  0.00    +0.000 C 
ATOM     10  C   UNL     1      -0.282  -0.413  -2.656  0.00  0.00    +0.002 C 
ATOM     11  C   UNL     1       0.516  -0.806  -1.411  0.00  0.00    +0.023 C 
ATOM     12  C   UNL     1       2.330  -3.388  -0.022  0.00  0.00    +0.220 C 
ATOM     13  O   UNL     1       2.954  -3.576   1.001  0.00  0.00    -0.275 OA
ENDROOT
BRANCH  12  14
ATOM     14  C   UNL     1       2.831  -3.954  -1.326  0.00  0.00    +0.093 C 
ATOM     15  C   UNL     1       3.915  -4.997  -1.047  0.00  0.00    +0.016 C 
ATOM     16  C   UNL     1       4.402  -5.596  -2.368  0.00  0.00    +0.020 C 
ATOM     17  C   UNL     1       5.009  -4.487  -3.234  0.00  0.00    +0.109 C 
ATOM     18  N   UNL     1       4.020  -3.411  -3.386  0.00  0.00    -0.285 N 
ATOM     19  C   UNL     1       3.420  -2.826  -2.179  0.00  0.00    +0.122 C 
ATOM     20  C   UNL     1       3.670  -2.969  -4.610  0.00  0.00    +0.302 C 
ATOM     21  O   UNL     1       2.920  -2.018  -4.722  0.00  0.00    -0.253 OA
ATOM     22  N   UNL     1       4.151  -3.581  -5.711  0.00  0.00    -0.297 N 
ATOM     23  H   UNL     1       4.805  -4.292  -5.624  0.00  0.00    +0.150 HD
BRANCH  22  24
ATOM     24  C   UNL     1       3.686  -3.171  -7.038  0.00  0.00    +0.068 C 
ATOM     25  C   UNL     1       4.510  -1.976  -7.522  0.00  0.00    +0.027 C 
ATOM     26  C   UNL     1       3.852  -4.335  -8.018  0.00  0.00    +0.027 C 
ENDBRANCH  22  24
ENDBRANCH  12  14
TORSDOF 2
