REMARK  Name = ZINC37674928
REMARK  4 active torsions:
REMARK  status: ('A' for Active; 'I' for Inactive)
REMARK    1  A    between atoms: C_1  and  C_2
REMARK    2  A    between atoms: C_7  and  N_8
REMARK    3  A    between atoms: N_8  and  C_9
REMARK    4  A    between atoms: C_9  and  C_10
REMARK                            x       y       z     vdW  Elec       q    Type
REMARK                         _______ _______ _______ _____ _____    ______ ____
ROOT
ATOM      1  C   UNL     1       0.045   0.213   4.831  0.00  0.00    -0.027 A 
ATOM      2  C   UNL     1       1.242   0.677   5.343  0.00  0.00    +0.009 A 
ATOM      3  C   UNL     1       1.248   1.569   6.401  0.00  0.00    +0.050 A 
ATOM      4  C   UNL     1       0.049   1.996   6.945  0.00  0.00    +0.162 A 
ATOM      5  C   UNL     1      -1.153   1.529   6.431  0.00  0.00    +0.162 A 
ATOM      6  C   UNL     1      -1.155   0.641   5.370  0.00  0.00    +0.054 A 
ATOM      7  O   UNL     1      -2.330   1.957   6.975  0.00  0.00    -0.488 OA
ATOM      8  C   UNL     1      -2.603   1.509   8.304  0.00  0.00    +0.232 C 
ATOM      9  C   UNL     1      -1.932   2.412   9.326  0.00  0.00    +0.082 C 
ATOM     10  C   UNL     1      -0.415   2.357   9.240  0.00  0.00    +0.232 C 
ATOM     11  O   UNL     1       0.040   2.876   7.988  0.00  0.00    -0.488 OA
ENDROOT
BRANCH   1  12
ATOM     12  C   UNL     1       0.047  -0.758   3.678  0.00  0.00    +0.137 C 
BRANCH  12  13
ATOM     13  N   UNL     1       0.025  -0.016   2.415  0.00  0.00    -0.340 N 
ATOM     14  H   UNL     1       0.012   0.954   2.422  0.00  0.00    +0.146 HD
BRANCH  13  21
ATOM     15  C   UNL     1      -0.018   1.503   0.010  0.00  0.00    +0.045 C 
ATOM     16  C   UNL     1       0.002  -0.004   0.002  0.00  0.00    -0.030 A 
ATOM     17  C   UNL     1       0.006  -0.689  -1.198  0.00  0.00    +0.005 A 
ATOM     18  C   UNL     1       0.024  -2.071  -1.206  0.00  0.00    +0.000 A 
ATOM     19  C   UNL     1       0.039  -2.773  -0.014  0.00  0.00    +0.002 A 
ATOM     20  C   UNL     1       0.036  -2.095   1.188  0.00  0.00    +0.023 A 
ATOM     21  C   UNL     1       0.023  -0.706   1.200  0.00  0.00    +0.030 A 
ENDBRANCH  13  21
ENDBRANCH  12  13
ENDBRANCH   1  12
TORSDOF 3
