REMARK  Name = ZINC36640332
REMARK  10 active torsions:
REMARK  status: ('A' for Active; 'I' for Inactive)
REMARK    1  A    between atoms: C_1  and  C_2
REMARK    2  A    between atoms: C_2  and  N_3
REMARK    3  A    between atoms: N_3  and  C_4
REMARK    4  A    between atoms: N_3  and  C_6
REMARK    5  A    between atoms: C_4  and  C_5
REMARK    6  A    between atoms: C_6  and  C_7
REMARK    7  A    between atoms: C_7  and  N_8
REMARK    8  A    between atoms: C_12  and  C_19
REMARK    9  A    between atoms: C_14  and  C_18
REMARK   10  A    between atoms: C_20  and  C_22
REMARK                            x       y       z     vdW  Elec       q    Type
REMARK                         _______ _______ _______ _____ _____    ______ ____
ROOT
ATOM      1  N   UNL     1      -2.496  -4.236   0.158  0.00  0.00    -0.248 N 
ATOM      2  C   UNL     1      -2.208  -5.159   1.148  0.00  0.00    +0.168 A 
ATOM      3  N   UNL     1      -2.658  -6.384   1.288  0.00  0.00    -0.224 NA
ATOM      4  C   UNL     1      -2.289  -7.181   2.314  0.00  0.00    +0.083 A 
ATOM      5  C   UNL     1      -2.696  -8.509   2.579  0.00  0.00    -0.024 A 
ATOM      6  C   UNL     1      -2.222  -9.181   3.675  0.00  0.00    +0.009 A 
ATOM      7  C   UNL     1      -1.332  -8.589   4.559  0.00  0.00    -0.049 A 
ATOM      8  C   UNL     1      -0.912  -7.292   4.331  0.00  0.00    +0.020 A 
ATOM      9  C   UNL     1      -1.381  -6.611   3.236  0.00  0.00    +0.041 A 
ATOM     10  S   UNL     1      -1.124  -4.988   2.559  0.00  0.00    -0.052 S 
ATOM     11  C   UNL     1      -0.828  -9.352   5.757  0.00  0.00    +0.044 C 
ATOM     12  C   UNL     1      -3.663  -9.192   1.647  0.00  0.00    +0.046 C 
ATOM     13  C   UNL     1      -3.349  -4.557  -0.835  0.00  0.00    +0.259 C 
ATOM     14  O   UNL     1      -4.185  -5.423  -0.662  0.00  0.00    -0.269 OA
ENDROOT
BRANCH  13  15
ATOM     15  C   UNL     1      -3.270  -3.859  -2.127  0.00  0.00    +0.122 A 
ATOM     16  C   UNL     1      -3.550  -4.513  -3.326  0.00  0.00    +0.032 A 
ATOM     17  C   UNL     1      -3.422  -3.784  -4.524  0.00  0.00    +0.026 A 
ATOM     18  C   UNL     1      -3.905  -4.333  -5.793  0.00  0.00    -0.007 A 
ATOM     19  C   UNL     1      -4.490  -5.599  -5.868  0.00  0.00    +0.009 A 
ATOM     20  C   UNL     1      -4.927  -6.071  -7.072  0.00  0.00    +0.001 A 
ATOM     21  C   UNL     1      -4.797  -5.307  -8.227  0.00  0.00    +0.001 A 
ATOM     22  C   UNL     1      -4.231  -4.067  -8.188  0.00  0.00    +0.008 A 
ATOM     23  C   UNL     1      -3.772  -3.552  -6.965  0.00  0.00    -0.017 A 
ATOM     24  C   UNL     1      -3.183  -2.274  -6.887  0.00  0.00    +0.012 A 
ATOM     25  C   UNL     1      -2.731  -1.781  -5.706  0.00  0.00    +0.047 A 
ATOM     26  C   UNL     1      -2.829  -2.512  -4.519  0.00  0.00    +0.140 A 
ATOM     27  O   UNL     1      -2.333  -2.004  -3.365  0.00  0.00    -0.422 OA
ATOM     28  C   UNL     1      -2.896  -2.437  -2.211  0.00  0.00    +0.350 A 
ATOM     29  O   UNL     1      -3.084  -1.680  -1.276  0.00  0.00    -0.244 OA
ENDBRANCH  13  15
BRANCH   1  30
ATOM     30  C   UNL     1      -1.872  -2.911   0.188  0.00  0.00    +0.097 C 
BRANCH  30  31
ATOM     31  C   UNL     1      -2.662  -1.997   1.127  0.00  0.00    -0.059 C 
BRANCH  31  32
ATOM     32  N   UNL     1      -2.099  -2.082   2.481  0.00  0.00    +0.380 N 
ATOM     33  H   UNL     1      -2.028  -3.051   2.755  0.00  0.00    -0.082 HD
BRANCH  32  35
ATOM     34  C   UNL     1      -0.128  -1.669   3.873  0.00  0.00    -0.017 C 
ATOM     35  C   UNL     1      -0.764  -1.469   2.496  0.00  0.00    -0.082 C 
ENDBRANCH  32  35
BRANCH  32  36
ATOM     36  C   UNL     1      -2.976  -1.371   3.421  0.00  0.00    -0.082 C 
ATOM     37  C   UNL     1      -4.309  -2.112   3.536  0.00  0.00    -0.017 C 
ENDBRANCH  32  36
ENDBRANCH  31  32
ENDBRANCH  30  31
ENDBRANCH   1  30
TORSDOF 6
