REMARK  Name = ZINC37806615
REMARK  6 active torsions:
REMARK  status: ('A' for Active; 'I' for Inactive)
REMARK    1  A    between atoms: C_1  and  C_2
REMARK    2  A    between atoms: C_2  and  C_4
REMARK    3  A    between atoms: C_2  and  N_12
REMARK    4  A    between atoms: N_12  and  C_13
REMARK    5  A    between atoms: C_14  and  C_16
REMARK    6  A    between atoms: C_19  and  O_23
REMARK                            x       y       z     vdW  Elec       q    Type
REMARK                         _______ _______ _______ _____ _____    ______ ____
ROOT
ATOM      1  N   UNL     1       0.625  -0.362  -1.276  0.00  0.00    -0.299 N 
ATOM      2  C   UNL     1       0.113   0.204  -2.526  0.00  0.00    +0.132 C 
ATOM      3  C   UNL     1       1.672  -1.211  -1.300  0.00  0.00    +0.202 C 
ATOM      4  O   UNL     1       2.096  -1.679  -0.265  0.00  0.00    -0.277 OA
ENDROOT
BRANCH   3   5
ATOM      5  C   UNL     1       2.316  -1.576  -2.612  0.00  0.00    +0.019 C 
ATOM      6  C   UNL     1       1.484  -2.666  -3.320  0.00  0.00    +0.023 C 
ATOM      7  C   UNL     1       2.568  -3.579  -3.950  0.00  0.00    +0.097 C 
ATOM      8  C   UNL     1       3.684  -3.528  -2.877  0.00  0.00    -0.050 C 
ATOM      9  N   UNL     1       3.660  -2.135  -2.373  0.00  0.00    +0.388 N 
ATOM     10  H   UNL     1       4.349  -1.583  -2.862  0.00  0.00    -0.085 HD
ATOM     11  H   UNL     1       3.860  -2.127  -1.384  0.00  0.00    -0.085 HD
BRANCH   7  12
ATOM     12  O   UNL     1       2.080  -4.912  -4.119  0.00  0.00    -0.394 OA
ATOM     13  H   UNL     1       2.722  -5.520  -4.510  0.00  0.00    +0.210 HD
ENDBRANCH   7  12
ENDBRANCH   3   5
BRANCH   1  15
ATOM     14  C   UNL     1       0.213   1.483   0.275  0.00  0.00    +0.033 C 
ATOM     15  C   UNL     1      -0.001  -0.007  -0.000  0.00  0.00    +0.104 C 
BRANCH  15  16
ATOM     16  C   UNL     1      -1.478  -0.298  -0.067  0.00  0.00    -0.009 A 
ATOM     17  C   UNL     1      -2.380   0.737  -0.223  0.00  0.00    +0.008 A 
ATOM     18  C   UNL     1      -3.735   0.471  -0.285  0.00  0.00    +0.020 A 
ATOM     19  C   UNL     1      -4.189  -0.833  -0.190  0.00  0.00    +0.042 A 
ATOM     20  C   UNL     1      -3.286  -1.870  -0.034  0.00  0.00    +0.040 A 
ATOM     21  C   UNL     1      -1.930  -1.603   0.023  0.00  0.00    +0.047 A 
ATOM     22 CL   UNL     1      -0.796  -2.903   0.212  0.00  0.00    -0.083 Cl
ATOM     23 CL   UNL     1      -5.891  -1.168  -0.266  0.00  0.00    -0.083 Cl
ENDBRANCH  15  16
ENDBRANCH   1  15
TORSDOF 4
