REMARK  Name = ZINC39586029
REMARK  5 active torsions:
REMARK  status: ('A' for Active; 'I' for Inactive)
REMARK    1  A    between atoms: C_9  and  C_12
REMARK    2  A    between atoms: C_12  and  O_14
REMARK    3  A    between atoms: O_14  and  C_15
REMARK    4  A    between atoms: C_15  and  C_16
REMARK    5  A    between atoms: N_18  and  C_19
REMARK                            x       y       z     vdW  Elec       q    Type
REMARK                         _______ _______ _______ _____ _____    ______ ____
ROOT
ATOM      1  C   UNL     1       0.145  -2.908   0.054  0.00  0.00    +0.337 C 
ATOM      2  O   UNL     1      -0.948  -2.389   0.156  0.00  0.00    -0.245 OA
ENDROOT
BRANCH   1  11
ATOM      3  C   UNL     1       4.056  -4.594   0.082  0.00  0.00    +0.001 A 
ATOM      4  C   UNL     1       5.180  -3.759   0.095  0.00  0.00    +0.002 A 
ATOM      5  C   UNL     1       5.088  -2.407   0.099  0.00  0.00    +0.024 A 
ATOM      6  C   UNL     1       3.825  -1.776   0.090  0.00  0.00    +0.041 A 
ATOM      7  N   UNL     1       3.742  -0.454   0.095  0.00  0.00    -0.285 N 
ATOM      8  C   UNL     1       2.589   0.205   0.087  0.00  0.00    +0.222 C 
ATOM      9  O   UNL     1       2.583   1.420   0.091  0.00  0.00    -0.275 OA
ATOM     10  C   UNL     1       1.284  -0.558   0.072  0.00  0.00    +0.139 C 
ATOM     11  C   UNL     1       1.362  -2.073   0.068  0.00  0.00    +0.054 C 
ATOM     12  C   UNL     1       2.622  -2.636   0.076  0.00  0.00    +0.007 A 
ATOM     13  C   UNL     1       2.798  -4.088   0.072  0.00  0.00    +0.010 A 
ATOM     14  H   UNL     1       4.565   0.059   0.104  0.00  0.00    +0.155 HD
ENDBRANCH   1  11
BRANCH   1  15
ATOM     15  O   UNL     1       0.247  -4.246  -0.072  0.00  0.00    -0.452 OA
BRANCH  15  16
ATOM     16  C   UNL     1      -0.972  -4.992  -0.078  0.00  0.00    +0.328 C 
BRANCH  16  17
ATOM     17  C   UNL     1      -0.663  -6.459  -0.226  0.00  0.00    +0.255 C 
ATOM     18  O   UNL     1       0.488  -6.830  -0.317  0.00  0.00    -0.272 OA
ATOM     19  N   UNL     1      -1.665  -7.359  -0.256  0.00  0.00    -0.282 N 
ATOM     20  H   UNL     1      -2.587  -7.059  -0.266  0.00  0.00    +0.155 HD
BRANCH  19  21
ATOM     21  C   UNL     1      -1.375  -8.729  -0.274  0.00  0.00    +0.048 A 
ATOM     22  C   UNL     1      -0.268  -9.215   0.408  0.00  0.00    +0.025 A 
ATOM     23  C   UNL     1       0.015 -10.566   0.389  0.00  0.00    +0.017 A 
ATOM     24  C   UNL     1      -0.803 -11.437  -0.309  0.00  0.00    +0.019 A 
ATOM     25  C   UNL     1      -1.907 -10.956  -0.991  0.00  0.00    +0.032 A 
ATOM     26  C   UNL     1      -2.199  -9.605  -0.970  0.00  0.00    +0.040 A 
ATOM     27 BR   UNL     1      -3.713  -8.950  -1.894  0.00  0.00    -0.048 Br
ATOM     28 BR   UNL     1      -0.411 -13.286  -0.333  0.00  0.00    -0.050 Br
ENDBRANCH  19  21
ENDBRANCH  16  17
ENDBRANCH  15  16
ENDBRANCH   1  15
TORSDOF 5
