REMARK  Name = ZINC63794329
REMARK  4 active torsions:
REMARK  status: ('A' for Active; 'I' for Inactive)
REMARK    1  A    between atoms: C_1  and  C_2
REMARK    2  A    between atoms: C_2  and  N_3
REMARK    3  A    between atoms: C_12  and  C_15
REMARK    4  A    between atoms: C_20  and  C_23
REMARK                            x       y       z     vdW  Elec       q    Type
REMARK                         _______ _______ _______ _____ _____    ______ ____
ROOT
ATOM      1  C   UNL     1      -1.773  -3.244  -0.967  0.00  0.00    +0.242 C 
ATOM      2  O   UNL     1      -0.653  -3.055  -0.542  0.00  0.00    -0.273 OA
ATOM      3  N   UNL     1      -2.163  -4.489  -1.306  0.00  0.00    -0.263 N 
ATOM      4  C   UNL     1      -1.284  -5.553  -1.169  0.00  0.00    +0.165 A 
ATOM      5  N   UNL     1      -1.476  -6.824  -1.448  0.00  0.00    -0.225 NA
ATOM      6  C   UNL     1      -0.474  -7.685  -1.234  0.00  0.00    +0.079 A 
ATOM      7  C   UNL     1       0.720  -7.191  -0.726  0.00  0.00    +0.076 A 
ATOM      8  S   UNL     1       0.398  -5.546  -0.577  0.00  0.00    -0.060 S 
ATOM      9  H   UNL     1      -3.059  -4.641  -1.645  0.00  0.00    +0.157 HD
ENDROOT
BRANCH   1  19
ATOM     10  N   UNL     1      -1.372  -0.511   0.012  0.00  0.00    -0.232 N 
ATOM     11  C   UNL     1      -2.016  -0.644   1.191  0.00  0.00    +0.260 C 
ATOM     12  O   UNL     1      -1.548  -0.182   2.213  0.00  0.00    -0.269 OA
ATOM     13  C   UNL     1      -3.307  -1.367   1.206  0.00  0.00    +0.043 A 
ATOM     14  C   UNL     1      -4.141  -1.358   2.317  0.00  0.00    +0.013 A 
ATOM     15  C   UNL     1      -5.342  -2.041   2.270  0.00  0.00    +0.001 A 
ATOM     16  C   UNL     1      -5.709  -2.726   1.125  0.00  0.00    +0.000 A 
ATOM     17  C   UNL     1      -4.877  -2.741   0.017  0.00  0.00    +0.006 A 
ATOM     18  C   UNL     1      -3.676  -2.070   0.055  0.00  0.00    -0.008 A 
ATOM     19  C   UNL     1      -2.728  -2.088  -1.115  0.00  0.00    +0.189 C 
ATOM     20  N   UNL     1      -1.970  -0.832  -1.166  0.00  0.00    -0.221 NA
ATOM     21  H   UNL     1      -2.545  -0.072  -1.498  0.00  0.00    +0.146 HD
BRANCH  10  23
ATOM     22  C   UNL     1      -0.019   1.526   0.010  0.00  0.00    +0.026 C 
ATOM     23  C   UNL     1       0.002  -0.004   0.002  0.00  0.00    +0.124 C 
ENDBRANCH  10  23
ENDBRANCH   1  19
BRANCH   6  24
ATOM     24  C   UNL     1      -0.627  -9.060  -1.516  0.00  0.00    +0.007 C 
ATOM     25  C   UNL     1      -1.756  -9.693  -2.029  0.00  0.00    +0.005 A 
ATOM     26  C   UNL     1      -3.028  -9.212  -2.411  0.00  0.00    +0.010 A 
ATOM     27  C   UNL     1      -3.958 -10.077  -2.890  0.00  0.00    +0.001 A 
ATOM     28  C   UNL     1      -3.691 -11.442  -3.018  0.00  0.00    +0.002 A 
ATOM     29  C   UNL     1      -2.493 -11.972  -2.672  0.00  0.00    +0.026 A 
ATOM     30  C   UNL     1      -1.470 -11.131  -2.163  0.00  0.00    +0.043 A 
ATOM     31  N   UNL     1      -0.242 -11.395  -1.762  0.00  0.00    -0.380 N 
ATOM     32  C   UNL     1       0.403 -10.152  -1.330  0.00  0.00    +0.151 C 
ATOM     33  H   UNL     1       0.170 -12.273  -1.756  0.00  0.00    +0.160 HD
ENDBRANCH   6  24
TORSDOF 3
