REMARK  Name = ZINC06405812
REMARK  8 active torsions:
REMARK  status: ('A' for Active; 'I' for Inactive)
REMARK    1  A    between atoms: C_1  and  C_2
REMARK    2  A    between atoms: C_5  and  C_35
REMARK    3  A    between atoms: C_9  and  C_14
REMARK    4  A    between atoms: C_14  and  C_16
REMARK    5  A    between atoms: C_14  and  N_63
REMARK    6  A    between atoms: N_20  and  C_21
REMARK    7  A    between atoms: C_21  and  C_22
REMARK    8  A    between atoms: C_31  and  C_34
REMARK                            x       y       z     vdW  Elec       q    Type
REMARK                         _______ _______ _______ _____ _____    ______ ____
ROOT
ATOM      1  C   UNL     1       0.054  -0.071   4.974  0.00  0.00    +0.039 C 
ENDROOT
BRANCH   1  10
ATOM      2  C   UNL     1      -0.184   1.676   0.074  0.00  0.00    +0.044 C 
ATOM      3  C   UNL     1      -0.111   0.173   0.010  0.00  0.00    -0.041 A 
ATOM      4  C   UNL     1      -0.121  -0.464  -1.199  0.00  0.00    +0.004 A 
ATOM      5  C   UNL     1      -0.050  -1.848  -1.269  0.00  0.00    +0.005 A 
ATOM      6  C   UNL     1       0.024  -2.608  -0.121  0.00  0.00    -0.026 A 
ATOM      7  C   UNL     1       0.030  -1.982   1.121  0.00  0.00    +0.052 A 
ATOM      8  C   UNL     1      -0.038  -0.578   1.188  0.00  0.00    +0.002 A 
ATOM      9  C   UNL     1      -0.030   0.071   2.500  0.00  0.00    +0.018 A 
ATOM     10  C   UNL     1       0.043  -0.707   3.608  0.00  0.00    +0.011 A 
ATOM     11  C   UNL     1       0.110  -2.112   3.486  0.00  0.00    +0.251 A 
ATOM     12  O   UNL     1       0.175  -2.793   4.495  0.00  0.00    -0.268 OA
ATOM     13  N   UNL     1       0.103  -2.717   2.285  0.00  0.00    -0.322 N 
ATOM     14  H   UNL     1       0.150  -3.685   2.238  0.00  0.00    +0.169 HD
ATOM     15  C   UNL     1       0.096  -4.111  -0.211  0.00  0.00    +0.046 C 
ENDBRANCH   1  10
BRANCH   1  22
ATOM     16  C   UNL     1      -2.337  -0.367   5.212  0.00  0.00    -0.077 C 
ATOM     17  C   UNL     1      -3.416  -1.107   6.007  0.00  0.00    -0.018 C 
ATOM     18  C   UNL     1      -3.371  -0.649   7.467  0.00  0.00    -0.001 C 
ATOM     19  C   UNL     1      -1.973  -0.912   8.034  0.00  0.00    -0.031 C 
ATOM     20  C   UNL     1      -0.936  -0.178   7.180  0.00  0.00    -0.074 C 
ATOM     21  C   UNL     1      -1.902  -0.403   9.475  0.00  0.00    +0.005 C 
ATOM     22  N   UNL     1      -1.014  -0.681   5.792  0.00  0.00    +0.389 N 
ATOM     23  H   UNL     1      -0.887  -1.700   5.800  0.00  0.00    -0.080 HD
ENDBRANCH   1  22
BRANCH   1  24
ATOM     24  C   UNL     1       1.384  -0.323   5.635  0.00  0.00    +0.143 A 
ATOM     25  N   UNL     1       1.792  -1.450   6.167  0.00  0.00    -0.115 NA
ATOM     26  N   UNL     1       2.982  -1.264   6.627  0.00  0.00    -0.023 NA
ATOM     27  N   UNL     1       3.339  -0.047   6.409  0.00  0.00    -0.044 NA
ATOM     28  N   UNL     1       2.381   0.566   5.800  0.00  0.00    -0.226 N 
BRANCH  28  29
ATOM     29  C   UNL     1       2.379   1.966   5.368  0.00  0.00    +0.182 C 
BRANCH  29  30
ATOM     30  C   UNL     1       1.828   2.831   6.472  0.00  0.00    -0.026 A 
ATOM     31  C   UNL     1       0.473   3.094   6.533  0.00  0.00    +0.005 A 
ATOM     32  C   UNL     1      -0.033   3.884   7.549  0.00  0.00    +0.000 A 
ATOM     33  C   UNL     1       0.818   4.419   8.497  0.00  0.00    +0.000 A 
ATOM     34  C   UNL     1       2.175   4.160   8.433  0.00  0.00    +0.000 A 
ATOM     35  C   UNL     1       2.680   3.366   7.421  0.00  0.00    +0.005 A 
ENDBRANCH  29  30
ENDBRANCH  28  29
ENDBRANCH   1  24
TORSDOF 5
