REMARK  Name = ZINC63139014
REMARK  7 active torsions:
REMARK  status: ('A' for Active; 'I' for Inactive)
REMARK    1  A    between atoms: C_1  and  C_2
REMARK    2  A    between atoms: C_2  and  C_3
REMARK    3  A    between atoms: C_2  and  N_4
REMARK    4  A    between atoms: N_4  and  C_5
REMARK    5  A    between atoms: C_5  and  C_6
REMARK    6  A    between atoms: N_11  and  C_13
REMARK    7  A    between atoms: C_13  and  C_14
REMARK                            x       y       z     vdW  Elec       q    Type
REMARK                         _______ _______ _______ _____ _____    ______ ____
ROOT
ATOM      1  C   UNL     1       0.700  -0.626   3.637  0.00  0.00    -0.014 C 
ATOM      2  C   UNL     1       0.720  -2.157   3.631  0.00  0.00    +0.004 C 
ATOM      3  C   UNL     1       1.409  -2.656   4.904  0.00  0.00    +0.016 C 
ATOM      4  C   UNL     1       0.671  -2.107   6.126  0.00  0.00    +0.085 C 
ATOM      5  N   UNL     1       0.680  -0.639   6.087  0.00  0.00    -0.298 NA
ATOM      6  C   UNL     1      -0.017  -0.134   4.897  0.00  0.00    +0.086 C 
ENDROOT
BRANCH   1   7
ATOM      7  C   UNL     1      -0.040  -0.119   2.398  0.00  0.00    -0.078 C 
BRANCH   7   8
ATOM      8  N   UNL     1       0.713  -0.491   1.192  0.00  0.00    +0.381 N 
ATOM      9  H   UNL     1       0.798  -1.495   1.145  0.00  0.00    -0.086 HD
ATOM     10  H   UNL     1       1.632  -0.076   1.228  0.00  0.00    -0.086 HD
BRANCH   8  12
ATOM     11  C   UNL     1      -0.019   1.526   0.010  0.00  0.00    -0.014 C 
ATOM     12  C   UNL     1       0.002  -0.004   0.002  0.00  0.00    -0.078 C 
ATOM     13  C   UNL     1       0.718  -0.497  -1.257  0.00  0.00    -0.014 C 
ENDBRANCH   8  12
ENDBRANCH   7   8
ENDBRANCH   1   7
BRANCH   5  14
ATOM     14  C   UNL     1       0.102  -0.075   7.314  0.00  0.00    +0.120 C 
BRANCH  14  15
ATOM     15  C   UNL     1       0.990  -0.408   8.486  0.00  0.00    -0.025 A 
ATOM     16  C   UNL     1       0.795  -1.573   9.204  0.00  0.00    +0.028 A 
ATOM     17  C   UNL     1       1.612  -1.843  10.253  0.00  0.00    +0.055 A 
ATOM     18  S   UNL     1       2.696  -0.424  10.250  0.00  0.00    -0.090 S 
ATOM     19  C   UNL     1       1.993   0.428   8.848  0.00  0.00    +0.051 A 
ATOM     20 BR   UNL     1       1.603  -3.333  11.417  0.00  0.00    -0.043 Br
ENDBRANCH  14  15
ENDBRANCH   5  14
TORSDOF 5
