REMARK  Name = ZINC08826129
REMARK  9 active torsions:
REMARK  status: ('A' for Active; 'I' for Inactive)
REMARK    1  A    between atoms: C_3  and  N_8
REMARK    2  A    between atoms: C_12  and  S_13
REMARK    3  A    between atoms: S_13  and  C_14
REMARK    4  A    between atoms: C_14  and  C_15
REMARK    5  A    between atoms: C_15  and  O_17
REMARK    6  A    between atoms: O_17  and  C_18
REMARK    7  A    between atoms: C_18  and  C_19
REMARK    8  A    between atoms: N_21  and  C_22
REMARK    9  A    between atoms: C_23  and  C_31
REMARK                            x       y       z     vdW  Elec       q    Type
REMARK                         _______ _______ _______ _____ _____    ______ ____
ROOT
ATOM      1  C   UNL     1       1.994   9.207  -5.631  0.00  0.00    +0.328 C 
ENDROOT
BRANCH   1   2
ATOM      2  C   UNL     1       2.850  10.296  -6.224  0.00  0.00    +0.255 C 
ATOM      3  O   UNL     1       3.957  10.509  -5.777  0.00  0.00    -0.272 OA
ATOM      4  N   UNL     1       2.386  11.033  -7.253  0.00  0.00    -0.277 N 
ATOM      5  H   UNL     1       1.500  10.863  -7.611  0.00  0.00    +0.155 HD
BRANCH   4   6
ATOM      6  C   UNL     1       3.174  12.035  -7.799  0.00  0.00    +0.084 A 
ATOM      7  C   UNL     1       2.877  12.887  -8.853  0.00  0.00    +0.068 A 
ATOM      8  C   UNL     1       3.885  13.863  -9.231  0.00  0.00    -0.023 A 
ATOM      9  C   UNL     1       5.025  13.823  -8.508  0.00  0.00    -0.004 A 
ATOM     10  S   UNL     1       4.771  12.521  -7.336  0.00  0.00    -0.077 S 
ATOM     11  C   UNL     1       6.230  14.696  -8.674  0.00  0.00    +0.043 C 
ATOM     12  C   UNL     1       6.134  15.402 -10.034  0.00  0.00    +0.005 C 
ATOM     13  C   UNL     1       4.729  15.995 -10.183  0.00  0.00    +0.005 C 
ATOM     14  C   UNL     1       3.707  14.871 -10.361  0.00  0.00    +0.037 C 
BRANCH   7  15
ATOM     15  C   UNL     1       1.592  12.809  -9.555  0.00  0.00    +0.244 C 
ATOM     16  O   UNL     1       0.646  13.471  -9.169  0.00  0.00    -0.270 OA
ATOM     17  N   UNL     1       1.459  12.005 -10.628  0.00  0.00    -0.325 N 
ATOM     18  H   UNL     1       2.212  11.477 -10.935  0.00  0.00    +0.145 HD
ATOM     19  H   UNL     1       0.609  11.953 -11.093  0.00  0.00    +0.145 HD
ENDBRANCH   7  15
ENDBRANCH   4   6
ENDBRANCH   1   2
BRANCH   1  20
ATOM     20  O   UNL     1       2.712   8.564  -4.545  0.00  0.00    -0.455 OA
BRANCH  20  21
ATOM     21  C   UNL     1       2.083   7.565  -3.906  0.00  0.00    +0.318 C 
ATOM     22  O   UNL     1       0.970   7.239  -4.243  0.00  0.00    -0.250 OA
BRANCH  21  23
ATOM     23  C   UNL     1       2.767   6.850  -2.769  0.00  0.00    +0.197 C 
BRANCH  23  24
ATOM     24  S   UNL     1       1.671   5.564  -2.119  0.00  0.00    -0.076 S 
BRANCH  24  29
ATOM     25  N   UNL     1       2.361   3.888  -0.000  0.00  0.00    -0.294 N 
ATOM     26  C   UNL     1       3.439   3.692   0.837  0.00  0.00    +0.113 A 
ATOM     27  C   UNL     1       4.375   4.590   0.487  0.00  0.00    +0.131 A 
ATOM     28  N   UNL     1       3.899   5.324  -0.534  0.00  0.00    -0.230 NA
ATOM     29  C   UNL     1       2.692   4.910  -0.841  0.00  0.00    +0.174 A 
BRANCH  25  32
ATOM     30  C   UNL     1      -0.013   1.076   0.008  0.00  0.00    +0.005 A 
ATOM     31  C   UNL     1       1.175   1.782   0.000  0.00  0.00    +0.026 A 
ATOM     32  C   UNL     1       1.157   3.170   0.008  0.00  0.00    +0.051 A 
ATOM     33  C   UNL     1      -0.055   3.846   0.023  0.00  0.00    +0.064 A 
ATOM     34  C   UNL     1      -1.242   3.135   0.031  0.00  0.00    +0.125 A 
ATOM     35  C   UNL     1      -1.219   1.750   0.017  0.00  0.00    +0.038 A 
ATOM     36  F   UNL     1      -2.423   3.791   0.045  0.00  0.00    -0.205 F 
ENDBRANCH  25  32
ENDBRANCH  24  29
ENDBRANCH  23  24
ENDBRANCH  21  23
ENDBRANCH  20  21
ENDBRANCH   1  20
TORSDOF 9
