REMARK  Name = ZINC39324309
REMARK  8 active torsions:
REMARK  status: ('A' for Active; 'I' for Inactive)
REMARK    1  A    between atoms: C_1  and  C_2
REMARK    2  A    between atoms: C_3  and  C_19
REMARK    3  A    between atoms: C_4  and  C_12
REMARK    4  A    between atoms: C_6  and  C_10
REMARK    5  A    between atoms: C_7  and  N_9
REMARK    6  A    between atoms: C_19  and  O_21
REMARK    7  A    between atoms: O_21  and  C_22
REMARK    8  A    between atoms: C_22  and  C_23
REMARK                            x       y       z     vdW  Elec       q    Type
REMARK                         _______ _______ _______ _____ _____    ______ ____
ROOT
ATOM      1  C   UNL     1      -0.018   1.503   0.010  0.00  0.00    +0.087 C 
ATOM      2  C   UNL     1       0.002  -0.004   0.002  0.00  0.00    +0.115 C 
ATOM      3  C   UNL     1      -1.160  -0.670   0.004  0.00  0.00    +0.087 C 
ATOM      4  C   UNL     1      -1.196  -2.174  -0.004  0.00  0.00    +0.106 C 
ATOM      5  C   UNL     1       0.147  -2.717  -0.409  0.00  0.00    +0.098 C 
ATOM      6  C   UNL     1       1.250  -1.929  -0.388  0.00  0.00    +0.198 C 
ATOM      7  O   UNL     1       1.184  -0.639  -0.013  0.00  0.00    -0.445 OA
ENDROOT
BRANCH   4   8
ATOM      8  C   UNL     1      -1.540  -2.673   1.376  0.00  0.00    -0.021 A 
ATOM      9  C   UNL     1      -0.727  -2.358   2.448  0.00  0.00    +0.005 A 
ATOM     10  C   UNL     1      -1.043  -2.815   3.714  0.00  0.00    +0.000 A 
ATOM     11  C   UNL     1      -2.173  -3.588   3.907  0.00  0.00    +0.001 A 
ATOM     12  C   UNL     1      -2.987  -3.904   2.836  0.00  0.00    +0.015 A 
ATOM     13  C   UNL     1      -2.674  -3.442   1.570  0.00  0.00    +0.022 A 
ATOM     14 BR   UNL     1      -3.791  -3.867   0.105  0.00  0.00    -0.050 Br
ENDBRANCH   4   8
BRANCH   6  15
ATOM     15  N   UNL     1       2.460  -2.458  -0.763  0.00  0.00    -0.328 N 
ATOM     16  H   UNL     1       2.519  -3.386  -1.038  0.00  0.00    +0.145 HD
ATOM     17  H   UNL     1       3.256  -1.903  -0.752  0.00  0.00    +0.145 HD
ENDBRANCH   6  15
BRANCH   5  18
ATOM     18  C   UNL     1       0.263  -4.084  -0.820  0.00  0.00    +0.101 C 
ATOM     19  N   UNL     1       0.354  -5.168  -1.147  0.00  0.00    -0.191 NA
ENDBRANCH   5  18
BRANCH   3  20
ATOM     20  C   UNL     1      -2.377   0.055   0.014  0.00  0.00    +0.340 C 
ATOM     21  O   UNL     1      -2.361   1.271   0.021  0.00  0.00    -0.245 OA
BRANCH  20  22
ATOM     22  O   UNL     1      -3.554  -0.604   0.016  0.00  0.00    -0.457 OA
BRANCH  22  23
ATOM     23  C   UNL     1      -4.742   0.191   0.026  0.00  0.00    +0.259 C 
BRANCH  23  24
ATOM     24  C   UNL     1      -5.950  -0.711   0.027  0.00  0.00    +0.006 C 
ATOM     25  C   UNL     1      -6.951  -0.465   0.836  0.00  0.00    +0.007 C 
ENDBRANCH  23  24
ENDBRANCH  22  23
ENDBRANCH  20  22
ENDBRANCH   3  20
TORSDOF 7
