REMARK  Name = ZINC65027394
REMARK  10 active torsions:
REMARK  status: ('A' for Active; 'I' for Inactive)
REMARK    1  A    between atoms: C_1  and  C_2
REMARK    2  A    between atoms: C_2  and  C_3
REMARK    3  A    between atoms: C_3  and  C_5
REMARK    4  A    between atoms: C_3  and  N_6
REMARK    5  A    between atoms: C_7  and  C_9
REMARK    6  A    between atoms: C_9  and  C_15
REMARK    7  A    between atoms: C_18  and  N_21
REMARK    8  A    between atoms: C_22  and  C_24
REMARK    9  A    between atoms: C_24  and  C_25
REMARK   10  A    between atoms: C_24  and  C_26
REMARK                            x       y       z     vdW  Elec       q    Type
REMARK                         _______ _______ _______ _____ _____    ______ ____
ROOT
ATOM      1  C   UNL     1       4.303   0.407  -2.401  0.00  0.00    +0.072 C 
ATOM      2  C   UNL     1       4.952  -0.707  -1.577  0.00  0.00    +0.021 C 
ATOM      3  C   UNL     1       4.737  -2.050  -2.277  0.00  0.00    +0.001 C 
ATOM      4  C   UNL     1       5.372  -2.009  -3.668  0.00  0.00    +0.000 C 
ATOM      5  C   UNL     1       4.723  -0.894  -4.492  0.00  0.00    +0.001 C 
ATOM      6  C   UNL     1       4.938   0.449  -3.792  0.00  0.00    +0.021 C 
ENDROOT
BRANCH   1   7
ATOM      7  C   UNL     1       4.515   1.730  -1.712  0.00  0.00    -0.032 A 
ATOM      8  C   UNL     1       5.109   2.776  -2.394  0.00  0.00    +0.006 A 
ATOM      9  C   UNL     1       5.305   3.990  -1.766  0.00  0.00    +0.023 A 
ATOM     10  C   UNL     1       4.905   4.160  -0.447  0.00  0.00    +0.033 A 
ATOM     11  C   UNL     1       4.308   3.108   0.236  0.00  0.00    +0.023 A 
ATOM     12  C   UNL     1       4.111   1.898  -0.400  0.00  0.00    +0.006 A 
BRANCH  10  13
ATOM     13  N   UNL     1       5.102   5.388   0.193  0.00  0.00    -0.285 N 
ATOM     14  C   UNL     1       5.028   6.535  -0.511  0.00  0.00    +0.220 C 
ATOM     15  O   UNL     1       4.697   6.510  -1.678  0.00  0.00    -0.275 OA
ATOM     16  H   UNL     1       5.293   5.415   1.144  0.00  0.00    +0.155 HD
BRANCH  14  17
ATOM     17  C   UNL     1       5.355   7.849   0.151  0.00  0.00    +0.069 C 
ATOM     18  C   UNL     1       5.193   8.984  -0.862  0.00  0.00    +0.017 C 
ATOM     19  C   UNL     1       4.406   8.076   1.329  0.00  0.00    +0.017 C 
ENDBRANCH  14  17
ENDBRANCH  10  13
ENDBRANCH   1   7
BRANCH   1  21
ATOM     20  N   UNL     1       2.070   0.912  -3.337  0.00  0.00    -0.312 N 
ATOM     21  C   UNL     1       2.826   0.140  -2.531  0.00  0.00    +0.224 C 
ATOM     22  O   UNL     1       2.317  -0.770  -1.911  0.00  0.00    -0.275 OA
ATOM     23  H   UNL     1       2.461   1.682  -3.778  0.00  0.00    +0.149 HD
BRANCH  20  24
ATOM     24  C   UNL     1       0.657   0.587  -3.547  0.00  0.00    +0.070 C 
ATOM     25  C   UNL     1      -0.180   1.198  -2.422  0.00  0.00    +0.028 C 
BRANCH  24  27
ATOM     26  C   UNL     1       0.947   0.455  -6.026  0.00  0.00    +0.005 C 
ATOM     27  C   UNL     1       0.197   1.157  -4.891  0.00  0.00    +0.018 C 
ENDBRANCH  24  27
ENDBRANCH  20  24
ENDBRANCH   1  21
TORSDOF 6
