REMARK  Name = ZINC67130284
REMARK  9 active torsions:
REMARK  status: ('A' for Active; 'I' for Inactive)
REMARK    1  A    between atoms: C_1  and  C_2
REMARK    2  A    between atoms: C_7  and  C_8
REMARK    3  A    between atoms: C_8  and  C_10
REMARK    4  A    between atoms: C_8  and  N_11
REMARK    5  A    between atoms: C_12  and  C_14
REMARK    6  A    between atoms: C_14  and  C_15
REMARK    7  A    between atoms: C_15  and  C_16
REMARK    8  A    between atoms: C_16  and  C_17
REMARK    9  A    between atoms: C_17  and  C_18
REMARK                            x       y       z     vdW  Elec       q    Type
REMARK                         _______ _______ _______ _____ _____    ______ ____
ROOT
ATOM      1  C   UNL     1       1.822  -1.083   5.691  0.00  0.00    +0.096 C 
ENDROOT
BRANCH   1   3
ATOM      2  N   UNL     1       0.630  -0.793   3.543  0.00  0.00    -0.309 N 
ATOM      3  C   UNL     1       1.199  -0.221   4.623  0.00  0.00    +0.213 C 
ATOM      4  O   UNL     1       1.211   0.986   4.735  0.00  0.00    -0.276 OA
ATOM      5  H   UNL     1       0.621  -1.758   3.453  0.00  0.00    +0.149 HD
BRANCH   2   6
ATOM      6  C   UNL     1       0.025   0.045   2.504  0.00  0.00    +0.100 C 
ATOM      7  C   UNL     1      -1.413   0.387   2.899  0.00  0.00    +0.033 C 
BRANCH   6  14
ATOM      8  C   UNL     1      -0.018   1.503   0.010  0.00  0.00    +0.044 C 
ATOM      9  C   UNL     1       0.002  -0.004   0.002  0.00  0.00    -0.046 A 
ATOM     10  C   UNL     1       0.006  -0.689  -1.199  0.00  0.00    +0.004 A 
ATOM     11  C   UNL     1       0.025  -2.071  -1.207  0.00  0.00    +0.000 A 
ATOM     12  C   UNL     1       0.040  -2.768  -0.013  0.00  0.00    +0.000 A 
ATOM     13  C   UNL     1       0.037  -2.084   1.188  0.00  0.00    +0.006 A 
ATOM     14  C   UNL     1       0.023  -0.702   1.195  0.00  0.00    -0.025 A 
ENDBRANCH   6  14
ENDBRANCH   2   6
ENDBRANCH   1   3
BRANCH   1  15
ATOM     15  C   UNL     1       2.392  -0.192   6.797  0.00  0.00    +0.009 C 
BRANCH  15  16
ATOM     16  C   UNL     1       3.024  -1.067   7.881  0.00  0.00    +0.002 C 
BRANCH  16  17
ATOM     17  C   UNL     1       3.594  -0.176   8.987  0.00  0.00    +0.016 C 
BRANCH  17  18
ATOM     18  C   UNL     1       4.226  -1.051  10.072  0.00  0.00    +0.069 C 
ATOM     19  C   UNL     1       4.772  -0.212  11.198  0.00  0.00    +0.108 C 
ATOM     20  C   UNL     1       5.933  -0.996  11.885  0.00  0.00    +0.105 C 
ATOM     21  C   UNL     1       6.958  -1.249  10.782  0.00  0.00    +0.093 C 
ATOM     22  S   UNL     1       5.779  -1.858   9.461  0.00  0.00    -0.154 S 
ATOM     23  N   UNL     1       6.208  -0.094  12.980  0.00  0.00    -0.294 N 
ATOM     24  C   UNL     1       5.004   0.465  13.303  0.00  0.00    +0.300 C 
ATOM     25  O   UNL     1       4.802   1.082  14.331  0.00  0.00    -0.253 OA
ATOM     26  N   UNL     1       4.055   0.240  12.354  0.00  0.00    -0.294 N 
ATOM     27  H   UNL     1       7.067   0.078  13.398  0.00  0.00    +0.151 HD
ATOM     28  H   UNL     1       3.098   0.367  12.443  0.00  0.00    +0.151 HD
ENDBRANCH  17  18
ENDBRANCH  16  17
ENDBRANCH  15  16
ENDBRANCH   1  15
TORSDOF 7
