REMARK  Name = ZINC39530258
REMARK  6 active torsions:
REMARK  status: ('A' for Active; 'I' for Inactive)
REMARK    1  A    between atoms: C_4  and  O_7
REMARK    2  A    between atoms: O_7  and  S_8
REMARK    3  A    between atoms: S_8  and  C_11
REMARK    4  A    between atoms: C_14  and  N_24
REMARK    5  A    between atoms: C_15  and  C_17
REMARK    6  A    between atoms: C_22  and  O_23
REMARK                            x       y       z     vdW  Elec       q    Type
REMARK                         _______ _______ _______ _____ _____    ______ ____
ROOT
ATOM      1  C   UNL     1       3.192  -2.273   2.002  0.00  0.00    +0.129 A 
ATOM      2  C   UNL     1       2.050  -2.010   2.738  0.00  0.00    +0.032 A 
ATOM      3  C   UNL     1       1.299  -3.047   3.256  0.00  0.00    +0.026 A 
ATOM      4  C   UNL     1       1.689  -4.362   3.042  0.00  0.00    +0.038 A 
ATOM      5  C   UNL     1       2.844  -4.631   2.298  0.00  0.00    +0.009 A 
ATOM      6  C   UNL     1       3.589  -3.576   1.776  0.00  0.00    +0.041 A 
ENDROOT
BRANCH   4   7
ATOM      7  N   UNL     1       0.932  -5.411   3.565  0.00  0.00    -0.326 N 
ATOM      8  C   UNL     1       1.208  -5.943   4.908  0.00  0.00    +0.120 C 
ATOM      9  C   UNL     1      -0.105  -5.975   5.698  0.00  0.00    +0.101 C 
ATOM     10  N   UNL     1      -1.116  -6.715   4.931  0.00  0.00    -0.298 NA
ATOM     11  C   UNL     1      -1.420  -6.042   3.661  0.00  0.00    +0.164 C 
ATOM     12  C   UNL     1      -0.165  -6.010   2.790  0.00  0.00    +0.140 C 
ATOM     13 CL   UNL     1      -2.728  -6.939   2.803  0.00  0.00    -0.103 Cl
ATOM     14  H   UNL     1      -0.825  -7.668   4.775  0.00  0.00    +0.123 HD
ENDBRANCH   4   7
BRANCH   5  15
ATOM     15  C   UNL     1       3.269  -6.031   2.063  0.00  0.00    +0.025 A 
ATOM     16  C   UNL     1       4.463  -6.500   2.606  0.00  0.00    +0.012 A 
ATOM     17  C   UNL     1       4.855  -7.805   2.385  0.00  0.00    +0.001 A 
ATOM     18  C   UNL     1       4.065  -8.650   1.625  0.00  0.00    +0.004 A 
ATOM     19  C   UNL     1       2.878  -8.195   1.082  0.00  0.00    +0.046 A 
ATOM     20  C   UNL     1       2.471  -6.889   1.300  0.00  0.00    +0.125 A 
BRANCH  20  21
ATOM     21  O   UNL     1       1.302  -6.442   0.771  0.00  0.00    -0.506 OA
ATOM     22  H   UNL     1       1.391  -6.061  -0.113  0.00  0.00    +0.292 HD
ENDBRANCH  20  21
ENDBRANCH   5  15
BRANCH   1  23
ATOM     23  S   UNL     1       4.140  -0.941   1.346  0.00  0.00    +0.151 S 
ATOM     24  O   UNL     1       5.458  -1.436   1.154  0.00  0.00    -0.131 OA
ATOM     25  O   UNL     1       3.863   0.192   2.158  0.00  0.00    -0.131 OA
BRANCH  23  26
ATOM     26  O   UNL     1       3.586  -0.632  -0.037  0.00  0.00    -0.342 OA
BRANCH  26  30
ATOM     27  C   UNL     1      -0.017   1.378   0.010  0.00  0.00    +0.000 A 
ATOM     28  C   UNL     1       1.170   2.088   0.002  0.00  0.00    +0.004 A 
ATOM     29  C   UNL     1       2.377   1.417  -0.013  0.00  0.00    +0.048 A 
ATOM     30  C   UNL     1       2.399   0.030  -0.021  0.00  0.00    +0.157 A 
ATOM     31  C   UNL     1       1.207  -0.680  -0.013  0.00  0.00    +0.048 A 
ATOM     32  C   UNL     1       0.002  -0.004   0.002  0.00  0.00    +0.004 A 
ENDBRANCH  26  30
ENDBRANCH  23  26
ENDBRANCH   1  23
TORSDOF 6
