REMARK  Name = ZINC52209109
REMARK  11 active torsions:
REMARK  status: ('A' for Active; 'I' for Inactive)
REMARK    1  A    between atoms: C_1  and  C_2
REMARK    2  A    between atoms: C_2  and  C_3
REMARK    3  A    between atoms: C_3  and  C_4
REMARK    4  A    between atoms: C_4  and  N_5
REMARK    5  A    between atoms: N_5  and  C_6
REMARK    6  A    between atoms: N_5  and  C_7
REMARK    7  A    between atoms: C_7  and  C_8
REMARK    8  A    between atoms: N_11  and  C_14
REMARK    9  A    between atoms: C_14  and  C_15
REMARK   10  A    between atoms: N_17  and  C_18
REMARK   11  A    between atoms: C_18  and  C_25
REMARK                            x       y       z     vdW  Elec       q    Type
REMARK                         _______ _______ _______ _____ _____    ______ ____
ROOT
ATOM      1  C   UNL     1       2.361  -4.550  -3.634  0.00  0.00    -0.031 C 
ATOM      2  C   UNL     1       1.723  -4.111  -4.955  0.00  0.00    -0.017 C 
ATOM      3  C   UNL     1       2.438  -4.807  -6.116  0.00  0.00    -0.078 C 
ATOM      4  N   UNL     1       2.313  -6.262  -5.970  0.00  0.00    +0.385 N 
ATOM      5  C   UNL     1       2.985  -6.699  -4.740  0.00  0.00    -0.078 C 
ATOM      6  C   UNL     1       2.292  -6.076  -3.527  0.00  0.00    -0.017 C 
ATOM      7  H   UNL     1       1.337  -6.512  -5.926  0.00  0.00    -0.081 HD
ENDROOT
BRANCH   1   8
ATOM      8  C   UNL     1       1.600  -3.920  -2.465  0.00  0.00    -0.076 C 
BRANCH   8   9
ATOM      9  N   UNL     1       2.279  -4.250  -1.205  0.00  0.00    +0.378 N 
ATOM     10  C   UNL     1       3.601  -3.610  -1.178  0.00  0.00    -0.096 C 
ATOM     11  H   UNL     1       2.389  -5.251  -1.134  0.00  0.00    -0.082 HD
BRANCH   9  12
ATOM     12  C   UNL     1       1.476  -3.764  -0.075  0.00  0.00    -0.079 C 
BRANCH  12  13
ATOM     13  C   UNL     1       2.119  -4.216   1.239  0.00  0.00    -0.019 C 
BRANCH  13  15
ATOM     14  C   UNL     1       1.925  -4.161   3.729  0.00  0.00    +0.004 C 
ATOM     15  C   UNL     1       1.283  -3.709   2.416  0.00  0.00    -0.005 C 
ENDBRANCH  13  15
ENDBRANCH  12  13
ENDBRANCH   9  12
ENDBRANCH   8   9
ENDBRANCH   1   8
BRANCH   4  16
ATOM     16  C   UNL     1       2.933  -6.923  -7.126  0.00  0.00    +0.019 C 
BRANCH  16  17
ATOM     17  C   UNL     1       2.699  -8.409  -7.040  0.00  0.00    +0.198 C 
ATOM     18  O   UNL     1       2.077  -8.872  -6.107  0.00  0.00    -0.278 OA
ATOM     19  N   UNL     1       3.181  -9.224  -8.000  0.00  0.00    -0.299 N 
ATOM     20  H   UNL     1       3.678  -8.854  -8.745  0.00  0.00    +0.150 HD
BRANCH  19  21
ATOM     21  C   UNL     1       2.953 -10.669  -7.916  0.00  0.00    +0.121 C 
ATOM     22  C   UNL     1       3.519 -11.187  -6.578  0.00  0.00    +0.041 C 
ATOM     23  C   UNL     1       2.861 -12.502  -6.258  0.00  0.00    +0.003 C 
ATOM     24  C   UNL     1       3.686 -13.709  -6.745  0.00  0.00    +0.000 C 
ATOM     25  C   UNL     1       4.289 -13.493  -8.146  0.00  0.00    +0.000 C 
ATOM     26  C   UNL     1       3.323 -12.833  -9.094  0.00  0.00    +0.003 C 
ATOM     27  C   UNL     1       3.572 -11.311  -9.066  0.00  0.00    +0.041 C 
BRANCH  21  28
ATOM     28  C   UNL     1       1.504 -10.925  -7.949  0.00  0.00    +0.088 C 
ATOM     29  N   UNL     1       0.386 -11.123  -7.974  0.00  0.00    -0.194 NA
ENDBRANCH  21  28
ENDBRANCH  19  21
ENDBRANCH  16  17
ENDBRANCH   4  16
TORSDOF 9
