REMARK  Name = ZINC39536123
REMARK  7 active torsions:
REMARK  status: ('A' for Active; 'I' for Inactive)
REMARK    1  A    between atoms: C_1  and  C_2
REMARK    2  A    between atoms: C_4  and  C_28
REMARK    3  A    between atoms: C_7  and  C_12
REMARK    4  A    between atoms: C_12  and  O_14
REMARK    5  A    between atoms: O_14  and  C_15
REMARK    6  A    between atoms: C_15  and  C_17
REMARK    7  A    between atoms: C_15  and  C_18
REMARK                            x       y       z     vdW  Elec       q    Type
REMARK                         _______ _______ _______ _____ _____    ______ ____
ROOT
ATOM      1  C   UNL     1       0.095  -5.555   2.351  0.00  0.00    +0.356 C 
ATOM      2  O   UNL     1       0.106  -6.608   1.743  0.00  0.00    -0.243 OA
ENDROOT
BRANCH   1   9
ATOM      3  C   UNL     1      -0.009   1.505   0.014  0.00  0.00    +0.044 C 
ATOM      4  C   UNL     1       0.011  -0.002   0.005  0.00  0.00    -0.048 A 
ATOM      5  C   UNL     1       0.017  -0.683  -1.206  0.00  0.00    +0.007 A 
ATOM      6  C   UNL     1       0.035  -2.047  -1.236  0.00  0.00    -0.041 A 
ATOM      7  C   UNL     1       0.049  -2.771  -0.036  0.00  0.00    +0.003 A 
ATOM      8  C   UNL     1       0.069  -4.154   0.264  0.00  0.00    +0.043 A 
ATOM      9  C   UNL     1       0.076  -4.283   1.617  0.00  0.00    +0.125 A 
ATOM     10  N   UNL     1       0.061  -3.026   2.192  0.00  0.00    -0.349 N 
ATOM     11  H   UNL     1       0.062  -2.841   3.144  0.00  0.00    +0.166 HD
ATOM     12  C   UNL     1       0.044  -2.083   1.193  0.00  0.00    +0.048 A 
ATOM     13  C   UNL     1       0.030  -0.690   1.198  0.00  0.00    +0.029 A 
ATOM     14  C   UNL     1       0.039  -2.773  -2.557  0.00  0.00    +0.044 C 
ENDBRANCH   1   9
BRANCH   1  15
ATOM     15  O   UNL     1       0.100  -5.556   3.700  0.00  0.00    -0.448 OA
BRANCH  15  16
ATOM     16  C   UNL     1       0.119  -6.829   4.348  0.00  0.00    +0.259 C 
ATOM     17  C   UNL     1       1.568  -7.265   4.574  0.00  0.00    +0.062 C 
BRANCH  16  18
ATOM     18  C   UNL     1      -0.588  -6.728   5.675  0.00  0.00    +0.259 C 
ATOM     19  O   UNL     1      -1.061  -5.669   6.031  0.00  0.00    -0.271 OA
ATOM     20  N   UNL     1      -0.694  -7.813   6.467  0.00  0.00    -0.267 N 
ATOM     21  C   UNL     1      -1.253  -7.696   7.739  0.00  0.00    +0.125 A 
ATOM     22  C   UNL     1      -1.264  -8.796   8.590  0.00  0.00    +0.045 A 
ATOM     23  C   UNL     1      -1.821  -8.667   9.850  0.00  0.00    +0.025 A 
ATOM     24  C   UNL     1      -2.352  -7.436  10.217  0.00  0.00    +0.059 A 
ATOM     25  C   UNL     1      -2.307  -6.386   9.319  0.00  0.00    +0.132 A 
ATOM     26  N   UNL     1      -1.764  -6.539   8.127  0.00  0.00    -0.239 NA
ATOM     27 CL   UNL     1      -3.064  -7.220  11.785  0.00  0.00    -0.082 Cl
ATOM     28  H   UNL     1      -0.382  -8.676   6.152  0.00  0.00    +0.156 HD
ENDBRANCH  16  18
ENDBRANCH  15  16
ENDBRANCH   1  15
TORSDOF 4
