REMARK  Name = ZINC12374189
REMARK  4 active torsions:
REMARK  status: ('A' for Active; 'I' for Inactive)
REMARK    1  A    between atoms: C_9  and  O_23
REMARK    2  A    between atoms: C_10  and  C_11
REMARK    3  A    between atoms: N_12  and  N_13
REMARK    4  A    between atoms: N_13  and  C_14
REMARK                            x       y       z     vdW  Elec       q    Type
REMARK                         _______ _______ _______ _____ _____    ______ ____
ROOT
ATOM      1  C   UNL     1      -1.289   6.194   0.160  0.00  0.00    +0.142 C 
ATOM      2  N   UNL     1      -1.574   7.008  -0.813  0.00  0.00    -0.190 NA
ENDROOT
BRANCH   1  12
ATOM      3  C   UNL     1       0.779   1.478   0.436  0.00  0.00    +0.001 A 
ATOM      4  C   UNL     1      -0.522   1.959   0.312  0.00  0.00    +0.001 A 
ATOM      5  C   UNL     1      -0.773   3.298   0.267  0.00  0.00    +0.009 A 
ATOM      6  C   UNL     1       0.292   4.204   0.336  0.00  0.00    -0.006 A 
ATOM      7  C   UNL     1       1.617   3.719   0.457  0.00  0.00    -0.017 A 
ATOM      8  C   UNL     1       1.838   2.332   0.505  0.00  0.00    +0.008 A 
ATOM      9  C   UNL     1       2.685   4.630   0.526  0.00  0.00    +0.012 A 
ATOM     10  C   UNL     1       2.461   5.970   0.478  0.00  0.00    +0.046 A 
ATOM     11  C   UNL     1       1.175   6.495   0.359  0.00  0.00    +0.126 A 
ATOM     12  C   UNL     1       0.070   5.648   0.285  0.00  0.00    +0.044 A 
BRANCH  11  13
ATOM     13  O   UNL     1       0.998   7.841   0.315  0.00  0.00    -0.506 OA
ATOM     14  H   UNL     1       0.950   8.260   1.185  0.00  0.00    +0.292 HD
ENDBRANCH  11  13
ENDBRANCH   1  12
BRANCH   2  15
ATOM     15  N   UNL     1      -0.628   7.262  -1.815  0.00  0.00    -0.235 N 
ATOM     16  H   UNL     1       0.209   6.772  -1.827  0.00  0.00    +0.174 HD
BRANCH  15  17
ATOM     17  C   UNL     1      -0.889   8.210  -2.788  0.00  0.00    +0.087 A 
ATOM     18  C   UNL     1       0.059   8.471  -3.801  0.00  0.00    +0.158 A 
ATOM     19  N   UNL     1      -0.184   9.363  -4.719  0.00  0.00    -0.177 NA
ATOM     20  N   UNL     1      -1.384  10.082  -4.725  0.00  0.00    -0.242 N 
ATOM     21  H   UNL     1      -1.546  10.742  -5.418  0.00  0.00    +0.192 HD
ATOM     22  C   UNL     1      -2.318   9.867  -3.777  0.00  0.00    +0.281 A 
ATOM     23  O   UNL     1      -3.363  10.499  -3.789  0.00  0.00    -0.265 OA
ATOM     24  C   UNL     1      -2.084   8.908  -2.781  0.00  0.00    +0.107 A 
ATOM     25 BR   UNL     1      -3.380   8.579  -1.444  0.00  0.00    -0.043 Br
ENDBRANCH  15  17
ENDBRANCH   2  15
TORSDOF 4
