REMARK  Name = ZINC51699843
REMARK  5 active torsions:
REMARK  status: ('A' for Active; 'I' for Inactive)
REMARK    1  A    between atoms: C_1  and  O_2
REMARK    2  A    between atoms: O_2  and  C_3
REMARK    3  A    between atoms: C_3  and  C_4
REMARK    4  A    between atoms: C_6  and  N_15
REMARK    5  A    between atoms: N_15  and  N_16
REMARK                            x       y       z     vdW  Elec       q    Type
REMARK                         _______ _______ _______ _____ _____    ______ ____
ROOT
ATOM      1  C   UNL     1      -1.156  -2.103   0.002  0.00  0.00    +0.044 A 
ATOM      2  C   UNL     1       0.115  -2.663  -0.008  0.00  0.00    +0.048 A 
ATOM      3  C   UNL     1       0.258  -4.041  -0.016  0.00  0.00    +0.052 A 
ATOM      4  C   UNL     1      -0.918  -4.829  -0.015  0.00  0.00    +0.021 A 
ATOM      5  C   UNL     1      -0.858  -6.229  -0.023  0.00  0.00    +0.026 A 
ATOM      6  C   UNL     1      -2.013  -6.954  -0.021  0.00  0.00    +0.014 A 
ATOM      7  C   UNL     1      -3.253  -6.319  -0.012  0.00  0.00    +0.016 A 
ATOM      8  C   UNL     1      -3.346  -4.961  -0.005  0.00  0.00    +0.027 A 
ATOM      9  C   UNL     1      -2.176  -4.181  -0.005  0.00  0.00    +0.049 A 
ATOM     10  N   UNL     1      -2.239  -2.845   0.008  0.00  0.00    -0.356 N 
ATOM     11  I   UNL     1      -1.922  -9.047  -0.033  0.00  0.00    -0.044 I 
ATOM     12  H   UNL     1      -3.108  -2.413   0.019  0.00  0.00    +0.166 HD
ENDROOT
BRANCH   3  13
ATOM     13  N   UNL     1       1.513  -4.630  -0.026  0.00  0.00    -0.282 N 
ATOM     14  H   UNL     1       1.596  -5.596  -0.032  0.00  0.00    +0.166 HD
BRANCH  13  15
ATOM     15  N   UNL     1       2.634  -3.849  -0.028  0.00  0.00    -0.256 NA
ATOM     16  H   UNL     1       2.634  -3.215   0.757  0.00  0.00    +0.140 HD
ATOM     17  H   UNL     1       3.469  -4.415  -0.035  0.00  0.00    +0.140 HD
ENDBRANCH  13  15
ENDBRANCH   3  13
BRANCH   1  18
ATOM     18  C   UNL     1      -1.295  -0.603   0.011  0.00  0.00    +0.212 C 
BRANCH  18  20
ATOM     19  C   UNL     1      -0.017   1.425   0.010  0.00  0.00    +0.194 C 
ATOM     20  O   UNL     1       0.002  -0.004   0.002  0.00  0.00    -0.377 OA
ENDBRANCH  18  20
ENDBRANCH   1  18
TORSDOF 4
