REMARK  Name = ZINC65626733
REMARK  9 active torsions:
REMARK  status: ('A' for Active; 'I' for Inactive)
REMARK    1  A    between atoms: C_1  and  C_2
REMARK    2  A    between atoms: C_2  and  C_4
REMARK    3  A    between atoms: C_2  and  N_23
REMARK    4  A    between atoms: N_6  and  C_7
REMARK    5  A    between atoms: C_7  and  C_9
REMARK    6  A    between atoms: C_7  and  C_16
REMARK    7  A    between atoms: C_9  and  C_10
REMARK    8  A    between atoms: C_16  and  N_17
REMARK    9  A    between atoms: C_24  and  C_26
REMARK                            x       y       z     vdW  Elec       q    Type
REMARK                         _______ _______ _______ _____ _____    ______ ____
ROOT
ATOM      1  C   UNL     1       0.824  -1.007  -1.182  0.00  0.00    +0.233 C 
ATOM      2  O   UNL     1       0.420  -1.891  -1.909  0.00  0.00    -0.274 OA
ATOM      3  N   UNL     1       1.951  -0.338  -1.496  0.00  0.00    -0.312 N 
ATOM      4  H   UNL     1       2.273   0.368  -0.915  0.00  0.00    +0.149 HD
ENDROOT
BRANCH   1   6
ATOM      5  C   UNL     1      -0.380   0.805   0.008  0.00  0.00    +0.038 C 
ATOM      6  C   UNL     1       0.064  -0.657   0.072  0.00  0.00    +0.156 C 
BRANCH   6   7
ATOM      7  N   UNL     1      -1.114  -1.521   0.186  0.00  0.00    -0.300 N 
ATOM      8  C   UNL     1      -1.655  -1.766   1.396  0.00  0.00    +0.251 C 
ATOM      9  O   UNL     1      -1.164  -1.271   2.393  0.00  0.00    -0.270 OA
ATOM     10  H   UNL     1      -1.505  -1.915  -0.609  0.00  0.00    +0.150 HD
BRANCH   8  11
ATOM     11  C   UNL     1      -2.833  -2.630   1.510  0.00  0.00    +0.075 A 
ATOM     12  C   UNL     1      -3.538  -3.001   2.645  0.00  0.00    +0.022 A 
ATOM     13  C   UNL     1      -4.612  -3.831   2.436  0.00  0.00    +0.024 A 
ATOM     14  C   UNL     1      -4.906  -4.223   1.170  0.00  0.00    +0.056 A 
ATOM     15  S   UNL     1      -3.738  -3.470   0.225  0.00  0.00    -0.077 S 
ATOM     16 BR   UNL     1      -6.313  -5.350   0.600  0.00  0.00    -0.043 Br
ENDBRANCH   8  11
ENDBRANCH   6   7
ENDBRANCH   1   6
BRANCH   3  17
ATOM     17  C   UNL     1       2.689  -0.678  -2.715  0.00  0.00    +0.061 C 
BRANCH  17  18
ATOM     18  C   UNL     1       2.270   0.265  -3.845  0.00  0.00    +0.055 C 
BRANCH  18  19
ATOM     19  C   UNL     1       0.819   0.034  -4.180  0.00  0.00    -0.046 A 
ATOM     20  C   UNL     1       0.471  -0.901  -5.136  0.00  0.00    +0.004 A 
ATOM     21  C   UNL     1      -0.860  -1.113  -5.444  0.00  0.00    +0.000 A 
ATOM     22  C   UNL     1      -1.843  -0.390  -4.794  0.00  0.00    +0.000 A 
ATOM     23  C   UNL     1      -1.495   0.545  -3.837  0.00  0.00    +0.000 A 
ATOM     24  C   UNL     1      -0.164   0.753  -3.527  0.00  0.00    +0.004 A 
ENDBRANCH  18  19
ENDBRANCH  17  18
BRANCH  17  25
ATOM     25  C   UNL     1       4.190  -0.533  -2.459  0.00  0.00    -0.056 C 
BRANCH  25  26
ATOM     26  N   UNL     1       4.576  -1.371  -1.316  0.00  0.00    +0.381 N 
ATOM     27  C   UNL     1       5.974  -1.100  -0.962  0.00  0.00    -0.079 C 
ATOM     28  C   UNL     1       6.357  -1.910   0.278  0.00  0.00    -0.019 C 
ATOM     29  C   UNL     1       6.184  -3.402  -0.021  0.00  0.00    -0.004 C 
ATOM     30  C   UNL     1       4.741  -3.661  -0.461  0.00  0.00    -0.019 C 
ATOM     31  C   UNL     1       4.418  -2.786  -1.673  0.00  0.00    -0.079 C 
ATOM     32  H   UNL     1       3.984  -1.156  -0.528  0.00  0.00    -0.082 HD
ENDBRANCH  25  26
ENDBRANCH  17  25
ENDBRANCH   3  17
TORSDOF 8
