REMARK  Name = ZINC38440152
REMARK  2 active torsions:
REMARK  status: ('A' for Active; 'I' for Inactive)
REMARK    1  A    between atoms: C_4  and  C_8
REMARK    2  A    between atoms: C_14  and  O_18
REMARK                            x       y       z     vdW  Elec       q    Type
REMARK                         _______ _______ _______ _____ _____    ______ ____
ROOT
ATOM      1  C   UNL     1       3.700  -0.689  -0.038  0.00  0.00    +0.185 A 
ATOM      2  N   UNL     1       4.914  -0.113  -0.042  0.00  0.00    -0.201 NA
ATOM      3  C   UNL     1       5.833  -1.041  -0.056  0.00  0.00    +0.187 A 
ATOM      4  N   UNL     1       5.226  -2.253  -0.071  0.00  0.00    -0.237 N 
ATOM      5  N   UNL     1       3.848  -1.996  -0.047  0.00  0.00    -0.149 NA
ATOM      6  C   UNL     1       5.881  -3.555  -0.113  0.00  0.00    +0.178 C 
ATOM      7  C   UNL     1       7.312  -3.495   0.407  0.00  0.00    +0.146 C 
ATOM      8  C   UNL     1       8.152  -2.525  -0.436  0.00  0.00    +0.110 C 
ATOM      9  S   UNL     1       7.589  -0.833  -0.053  0.00  0.00    -0.084 S 
ENDROOT
BRANCH   1  13
ATOM     10  C   UNL     1      -0.017   1.379   0.010  0.00  0.00    +0.003 A 
ATOM     11  C   UNL     1       1.168   2.092   0.002  0.00  0.00    +0.021 A 
ATOM     12  C   UNL     1       2.378   1.426  -0.013  0.00  0.00    +0.053 A 
ATOM     13  C   UNL     1       2.404   0.032  -0.021  0.00  0.00    +0.057 A 
ATOM     14  C   UNL     1       1.206  -0.681  -0.013  0.00  0.00    +0.053 A 
ATOM     15  C   UNL     1       0.002  -0.004   0.002  0.00  0.00    +0.021 A 
ATOM     16 CL   UNL     1       1.228  -2.417  -0.023  0.00  0.00    -0.083 Cl
ATOM     17 CL   UNL     1       3.865   2.324  -0.024  0.00  0.00    -0.083 Cl
ENDBRANCH   1  13
BRANCH   7  18
ATOM     18  O   UNL     1       7.893  -4.799   0.342  0.00  0.00    -0.389 OA
ATOM     19  H   UNL     1       8.806  -4.839   0.657  0.00  0.00    +0.210 HD
ENDBRANCH   7  18
TORSDOF 2
