REMARK  Name = ZINC43221661
REMARK  8 active torsions:
REMARK  status: ('A' for Active; 'I' for Inactive)
REMARK    1  A    between atoms: C_1  and  C_2
REMARK    2  A    between atoms: C_2  and  C_3
REMARK    3  A    between atoms: C_3  and  C_5
REMARK    4  A    between atoms: C_3  and  C_6
REMARK    5  A    between atoms: C_6  and  C_33
REMARK    6  A    between atoms: C_11  and  C_14
REMARK    7  A    between atoms: C_19  and  O_20
REMARK    8  A    between atoms: N_24  and  C_27
REMARK                            x       y       z     vdW  Elec       q    Type
REMARK                         _______ _______ _______ _____ _____    ______ ____
ROOT
ATOM      1  C   UNL     1       0.797  -2.023  -1.341  0.00  0.00    +0.051 C 
ATOM      2  C   UNL     1       1.508  -2.443  -2.617  0.00  0.00    +0.086 C 
ATOM      3  C   UNL     1       2.992  -2.373  -2.091  0.00  0.00    +0.077 C 
ATOM      4  C   UNL     1       2.903  -3.118  -0.823  0.00  0.00    -0.023 C 
ATOM      5  N   UNL     1       1.631  -2.559  -0.223  0.00  0.00    +0.396 N 
ATOM      6  C   UNL     1       3.740  -2.375  -3.324  0.00  0.00    +0.225 C 
ATOM      7  O   UNL     1       4.825  -2.875  -3.527  0.00  0.00    -0.275 OA
ATOM      8  N   UNL     1       2.956  -1.687  -4.217  0.00  0.00    -0.239 N 
ATOM      9  C   UNL     1       1.667  -1.501  -3.769  0.00  0.00    +0.225 C 
ATOM     10  O   UNL     1       0.835  -0.736  -4.206  0.00  0.00    -0.275 OA
ATOM     11  H   UNL     1       1.849  -1.819   0.427  0.00  0.00    -0.083 HD
ATOM     12  H   UNL     1       1.131  -3.296   0.253  0.00  0.00    -0.083 HD
ENDROOT
BRANCH   4  13
ATOM     13  C   UNL     1       2.796  -4.599  -1.078  0.00  0.00    -0.018 A 
ATOM     14  C   UNL     1       1.555  -5.204  -1.129  0.00  0.00    +0.020 A 
ATOM     15  C   UNL     1       1.457  -6.564  -1.363  0.00  0.00    +0.018 A 
ATOM     16  C   UNL     1       2.600  -7.321  -1.547  0.00  0.00    +0.019 A 
ATOM     17  C   UNL     1       3.843  -6.720  -1.498  0.00  0.00    +0.047 A 
ATOM     18  C   UNL     1       3.943  -5.355  -1.268  0.00  0.00    +0.119 A 
ATOM     19 BR   UNL     1      -0.243  -7.390  -1.431  0.00  0.00    -0.050 Br
BRANCH  18  20
ATOM     20  O   UNL     1       5.165  -4.761  -1.224  0.00  0.00    -0.507 OA
ATOM     21  H   UNL     1       5.561  -4.742  -0.342  0.00  0.00    +0.292 HD
ENDBRANCH  18  20
ENDBRANCH   4  13
BRANCH   8  22
ATOM     22  C   UNL     1       3.435  -1.208  -5.516  0.00  0.00    +0.084 C 
ATOM     23  C   UNL     1       3.904  -2.398  -6.356  0.00  0.00    +0.023 C 
ATOM     24  C   UNL     1       4.404  -1.898  -7.713  0.00  0.00    +0.002 C 
ATOM     25  C   UNL     1       5.571  -0.931  -7.502  0.00  0.00    +0.000 C 
ATOM     26  C   UNL     1       5.101   0.259  -6.662  0.00  0.00    +0.002 C 
ATOM     27  C   UNL     1       4.601  -0.241  -5.305  0.00  0.00    +0.023 C 
ENDBRANCH   8  22
BRANCH   1  28
ATOM     28  C   UNL     1      -0.586  -2.619  -1.292  0.00  0.00    +0.347 C 
ATOM     29  O   UNL     1      -1.401  -2.339  -2.154  0.00  0.00    -0.248 OA
ATOM     30  O   UNL     1      -0.890  -3.382  -0.390  0.00  0.00    -0.248 OA
ENDBRANCH   1  28
BRANCH   1  31
ATOM     31  C   UNL     1       0.718  -0.497  -1.257  0.00  0.00    -0.014 C 
ATOM     32  C   UNL     1       0.043  -0.093   0.055  0.00  0.00    +0.006 C 
BRANCH  31  34
ATOM     33  C   UNL     1       2.065   1.597  -1.050  0.00  0.00    +0.004 C 
ATOM     34  C   UNL     1       2.130   0.090  -1.306  0.00  0.00    -0.001 C 
ENDBRANCH  31  34
ENDBRANCH   1  31
TORSDOF 6
