REMARK  Name = ZINC27221653
REMARK  9 active torsions:
REMARK  status: ('A' for Active; 'I' for Inactive)
REMARK    1  A    between atoms: C_1  and  C_2
REMARK    2  A    between atoms: C_2  and  C_4
REMARK    3  A    between atoms: C_2  and  N_10
REMARK    4  A    between atoms: N_10  and  C_11
REMARK    5  A    between atoms: C_11  and  C_12
REMARK    6  A    between atoms: C_14  and  O_21
REMARK    7  A    between atoms: C_15  and  O_19
REMARK    8  A    between atoms: O_19  and  C_20
REMARK    9  A    between atoms: O_21  and  C_22
REMARK                            x       y       z     vdW  Elec       q    Type
REMARK                         _______ _______ _______ _____ _____    ______ ____
ROOT
ATOM      1  C   UNL     1       2.212   7.309  -1.368  0.00  0.00    -0.045 C 
ENDROOT
BRANCH   1   2
ATOM      2  C   UNL     1       3.404   7.389  -2.286  0.00  0.00    -0.047 A 
ATOM      3  C   UNL     1       3.217   7.473  -3.654  0.00  0.00    +0.052 A 
ATOM      4  C   UNL     1       4.311   7.552  -4.499  0.00  0.00    +0.162 A 
ATOM      5  C   UNL     1       5.599   7.535  -3.970  0.00  0.00    +0.163 A 
ATOM      6  C   UNL     1       5.780   7.445  -2.600  0.00  0.00    +0.065 A 
ATOM      7  C   UNL     1       4.683   7.373  -1.760  0.00  0.00    +0.023 A 
ATOM      8 BR   UNL     1       4.933   7.250   0.110  0.00  0.00    -0.050 Br
BRANCH   5   9
ATOM      9  O   UNL     1       6.676   7.606  -4.797  0.00  0.00    -0.491 OA
ATOM     10  C   UNL     1       7.967   7.584  -4.184  0.00  0.00    +0.277 C 
ENDBRANCH   5   9
BRANCH   4  11
ATOM     11  O   UNL     1       4.128   7.639  -5.844  0.00  0.00    -0.491 OA
ATOM     12  C   UNL     1       2.780   7.651  -6.316  0.00  0.00    +0.277 C 
ENDBRANCH   4  11
ENDBRANCH   1   2
BRANCH   1  13
ATOM     13  N   UNL     1       2.064   5.933  -0.876  0.00  0.00    +0.386 N 
ATOM     14  H   UNL     1       2.980   5.650  -0.337  0.00  0.00    -0.085 HD
ATOM     15  H   UNL     1       1.926   5.263  -1.738  0.00  0.00    -0.085 HD
BRANCH  13  17
ATOM     16  C   UNL     1       1.328   6.208   1.443  0.00  0.00    -0.008 C 
ATOM     17  C   UNL     1       0.910   5.816   0.024  0.00  0.00    -0.037 C 
BRANCH  17  18
ATOM     18  C   UNL     1       0.412   4.394   0.022  0.00  0.00    -0.023 A 
ATOM     19  C   UNL     1      -0.864   3.936   0.032  0.00  0.00    +0.011 A 
ATOM     20  C   UNL     1      -1.087   2.572   0.020  0.00  0.00    +0.028 A 
ATOM     21  C   UNL     1      -0.021   1.732   0.012  0.00  0.00    +0.078 A 
ATOM     22  S   UNL     1       1.350   2.875   0.005  0.00  0.00    -0.083 S 
ATOM     23 CL   UNL     1       0.002  -0.004   0.002  0.00  0.00    -0.076 Cl
ENDBRANCH  17  18
ENDBRANCH  13  17
ENDBRANCH   1  13
TORSDOF 6
