REMARK  Name = ZINC19841190
REMARK  8 active torsions:
REMARK  status: ('A' for Active; 'I' for Inactive)
REMARK    1  A    between atoms: C_1  and  C_2
REMARK    2  A    between atoms: C_5  and  O_8
REMARK    3  A    between atoms: O_8  and  C_9
REMARK    4  A    between atoms: C_9  and  C_10
REMARK    5  A    between atoms: C_12  and  C_18
REMARK    6  A    between atoms: C_15  and  O_16
REMARK    7  A    between atoms: O_16  and  C_17
REMARK    8  A    between atoms: C_23  and  C_24
REMARK                            x       y       z     vdW  Elec       q    Type
REMARK                         _______ _______ _______ _____ _____    ______ ____
ROOT
ATOM      1  C   UNL     1      -1.192  -0.713   0.010  0.00  0.00    +0.032 A 
ATOM      2  C   UNL     1      -1.177  -2.091   0.002  0.00  0.00    +0.019 A 
ATOM      3  C   UNL     1       0.040  -2.774  -0.013  0.00  0.00    -0.016 A 
ATOM      4  C   UNL     1       1.238  -2.058  -0.021  0.00  0.00    +0.012 A 
ATOM      5  C   UNL     1       1.215  -0.680  -0.019  0.00  0.00    +0.046 A 
ATOM      6  C   UNL     1       0.002  -0.004   0.002  0.00  0.00    +0.127 A 
ENDROOT
BRANCH   3   7
ATOM      7  C   UNL     1       0.060  -4.255  -0.021  0.00  0.00    +0.008 A 
ATOM      8  C   UNL     1       0.569  -4.958  -1.123  0.00  0.00    -0.017 A 
ATOM      9  C   UNL     1       0.579  -6.332  -1.099  0.00  0.00    +0.047 A 
ATOM     10  N   UNL     1       0.104  -6.993  -0.049  0.00  0.00    -0.236 NA
ATOM     11  C   UNL     1      -0.390  -6.389   1.015  0.00  0.00    +0.135 A 
ATOM     12  C   UNL     1      -0.426  -4.986   1.080  0.00  0.00    +0.099 A 
ATOM     13  N   UNL     1      -0.871  -7.140   2.074  0.00  0.00    -0.342 N 
ATOM     14  C   UNL     1       1.129  -7.152  -2.240  0.00  0.00    +0.056 C 
ATOM     15  C   UNL     1       1.216  -6.313  -3.512  0.00  0.00    +0.006 C 
ATOM     16  C   UNL     1       1.966  -5.016  -3.187  0.00  0.00    +0.005 C 
ATOM     17  C   UNL     1       1.075  -4.157  -2.292  0.00  0.00    +0.037 C 
ATOM     18  H   UNL     1      -1.283  -6.639   2.962  0.00  0.00    +0.144 HD
ATOM     19  H   UNL     1      -0.840  -8.239   2.027  0.00  0.00    +0.144 HD
BRANCH  12  20
ATOM     20  C   UNL     1      -0.948  -4.316   2.234  0.00  0.00    +0.103 C 
ATOM     21  N   UNL     1      -1.362  -3.786   3.149  0.00  0.00    -0.191 NA
ENDBRANCH  12  20
ENDBRANCH   3   7
BRANCH   6  22
ATOM     22  O   UNL     1      -0.016   1.354   0.009  0.00  0.00    -0.495 OA
ATOM     23  C   UNL     1       1.248   2.020   0.001  0.00  0.00    +0.277 C 
ENDBRANCH   6  22
BRANCH   1  24
ATOM     24  C   UNL     1      -2.506   0.025   0.027  0.00  0.00    +0.268 C 
BRANCH  24  25
ATOM     25  O   UNL     1      -3.581  -0.916   0.032  0.00  0.00    -0.487 OA
BRANCH  25  30
ATOM     26  C   UNL     1      -8.810   1.176   0.095  0.00  0.00    +0.044 C 
ATOM     27  C   UNL     1      -7.411   0.616   0.078  0.00  0.00    -0.050 A 
ATOM     28  C   UNL     1      -7.215  -0.752   0.068  0.00  0.00    +0.007 A 
ATOM     29  C   UNL     1      -5.934  -1.268   0.053  0.00  0.00    +0.046 A 
ATOM     30  C   UNL     1      -4.843  -0.411   0.047  0.00  0.00    +0.121 A 
ATOM     31  C   UNL     1      -5.042   0.962   0.062  0.00  0.00    +0.046 A 
ATOM     32  C   UNL     1      -6.325   1.472   0.071  0.00  0.00    +0.007 A 
ENDBRANCH  25  30
ENDBRANCH  24  25
ENDBRANCH   1  24
TORSDOF 6
