REMARK  Name = ZINC39395124
REMARK  6 active torsions:
REMARK  status: ('A' for Active; 'I' for Inactive)
REMARK    1  A    between atoms: C_1  and  C_2
REMARK    2  A    between atoms: C_2  and  O_3
REMARK    3  A    between atoms: O_3  and  C_4
REMARK    4  A    between atoms: C_6  and  C_12
REMARK    5  A    between atoms: C_9  and  O_10
REMARK    6  A    between atoms: N_13  and  N_14
REMARK                            x       y       z     vdW  Elec       q    Type
REMARK                         _______ _______ _______ _____ _____    ______ ____
ROOT
ATOM      1  N   UNL     1      -0.640  -7.104  -1.323  0.00  0.00    -0.206 N 
ATOM      2  C   UNL     1      -0.527  -8.471  -1.171  0.00  0.00    +0.230 C 
ATOM      3  N   UNL     1      -1.048  -9.242  -2.096  0.00  0.00    -0.330 N 
ATOM      4  C   UNL     1      -0.854 -10.684  -1.968  0.00  0.00    +0.229 C 
ATOM      5  C   UNL     1      -0.718 -10.967  -0.479  0.00  0.00    +0.115 C 
ATOM      6  C   UNL     1      -1.568 -12.000  -0.224  0.00  0.00    +0.025 A 
ATOM      7  C   UNL     1      -1.806 -12.772   0.941  0.00  0.00    +0.012 A 
ATOM      8  C   UNL     1      -2.756 -13.742   0.865  0.00  0.00    +0.001 A 
ATOM      9  C   UNL     1      -3.505 -14.021  -0.282  0.00  0.00    +0.002 A 
ATOM     10  C   UNL     1      -3.357 -13.350  -1.455  0.00  0.00    +0.026 A 
ATOM     11  C   UNL     1      -2.343 -12.283  -1.471  0.00  0.00    +0.046 A 
ATOM     12  N   UNL     1      -1.969 -11.496  -2.433  0.00  0.00    -0.359 N 
ATOM     13  N   UNL     1       0.012 -10.175   0.313  0.00  0.00    -0.146 NA
ATOM     14  N   UNL     1       0.121  -8.940  -0.077  0.00  0.00    -0.113 NA
ATOM     15  H   UNL     1      -1.099  -6.739  -2.096  0.00  0.00    +0.177 HD
ATOM     16  H   UNL     1      -2.366 -11.457  -3.317  0.00  0.00    +0.162 HD
ATOM     17  H   UNL     1      -1.545  -8.866  -2.840  0.00  0.00    +0.165 HD
ENDROOT
BRANCH   1  19
ATOM     18  C   UNL     1      -0.200  -4.958  -0.505  0.00  0.00    +0.138 C 
ATOM     19  N   UNL     1      -0.093  -6.244  -0.362  0.00  0.00    -0.188 NA
BRANCH  18  22
ATOM     20  C   UNL     1       0.802  -1.825   1.306  0.00  0.00    +0.163 A 
ATOM     21  C   UNL     1       0.261  -2.669   0.354  0.00  0.00    +0.059 A 
ATOM     22  C   UNL     1       0.375  -4.054   0.506  0.00  0.00    -0.001 A 
ATOM     23  C   UNL     1       1.035  -4.578   1.621  0.00  0.00    +0.028 A 
ATOM     24  C   UNL     1       1.572  -3.730   2.567  0.00  0.00    +0.063 A 
ATOM     25  C   UNL     1       1.463  -2.354   2.411  0.00  0.00    +0.173 A 
ATOM     26 BR   UNL     1       2.465  -4.441   4.074  0.00  0.00    -0.046 Br
BRANCH  25  27
ATOM     27  O   UNL     1       1.999  -1.522   3.344  0.00  0.00    -0.503 OA
ATOM     28  H   UNL     1       1.393  -1.295   4.062  0.00  0.00    +0.292 HD
ENDBRANCH  25  27
BRANCH  20  29
ATOM     29  O   UNL     1       0.693  -0.477   1.160  0.00  0.00    -0.489 OA
BRANCH  29  31
ATOM     30  C   UNL     1      -0.019   1.526   0.010  0.00  0.00    +0.048 C 
ATOM     31  C   UNL     1       0.002  -0.004   0.002  0.00  0.00    +0.226 C 
ENDBRANCH  29  31
ENDBRANCH  20  29
ENDBRANCH  18  22
ENDBRANCH   1  19
TORSDOF 5
