REMARK  Name = ZINC02757310
REMARK  10 active torsions:
REMARK  status: ('A' for Active; 'I' for Inactive)
REMARK    1  A    between atoms: C_1  and  C_2
REMARK    2  A    between atoms: C_2  and  S_3
REMARK    3  A    between atoms: S_3  and  C_4
REMARK    4  A    between atoms: C_4  and  C_5
REMARK    5  A    between atoms: C_5  and  O_6
REMARK    6  A    between atoms: O_6  and  C_7
REMARK    7  A    between atoms: C_7  and  C_9
REMARK    8  A    between atoms: C_10  and  C_36
REMARK    9  A    between atoms: C_14  and  C_16
REMARK   10  A    between atoms: C_26  and  C_29
REMARK                            x       y       z     vdW  Elec       q    Type
REMARK                         _______ _______ _______ _____ _____    ______ ____
ROOT
ATOM      1  C   UNL     1      -1.272   2.910   0.418  0.00  0.00    +0.065 C 
ATOM      2  C   UNL     1      -1.208   1.627   0.017  0.00  0.00    +0.016 C 
ATOM      3  N   UNL     1      -0.011   0.966   0.007  0.00  0.00    -0.321 N 
ATOM      4  C   UNL     1       1.169   1.660  -0.000  0.00  0.00    +0.016 C 
ATOM      5  C   UNL     1       1.208   2.950   0.397  0.00  0.00    +0.024 C 
ATOM      6  C   UNL     1      -0.045   3.651   0.860  0.00  0.00    +0.095 C 
ATOM      7  C   UNL     1       2.413   3.674   0.394  0.00  0.00    +0.162 C 
ATOM      8  O   UNL     1       2.410   4.838   0.741  0.00  0.00    -0.292 OA
ATOM      9  C   UNL     1       3.706   3.033  -0.030  0.00  0.00    +0.088 C 
ATOM     10  C   UNL     1       3.635   1.530   0.260  0.00  0.00    +0.032 C 
ATOM     11  C   UNL     1       2.418   0.952  -0.465  0.00  0.00    +0.059 C 
ATOM     12  C   UNL     1      -2.461   0.912  -0.420  0.00  0.00    +0.061 C 
ATOM     13  H   UNL     1       0.010  -0.134   0.006  0.00  0.00    +0.152 HD
ENDROOT
BRANCH   6  14
ATOM     14  C   UNL     1      -0.035   3.738   2.365  0.00  0.00    -0.000 A 
ATOM     15  C   UNL     1       0.007   2.584   3.124  0.00  0.00    +0.007 A 
ATOM     16  C   UNL     1       0.017   2.663   4.504  0.00  0.00    +0.000 A 
ATOM     17  C   UNL     1      -0.015   3.897   5.126  0.00  0.00    +0.003 A 
ATOM     18  C   UNL     1      -0.058   5.053   4.370  0.00  0.00    +0.038 A 
ATOM     19  C   UNL     1      -0.062   4.974   2.987  0.00  0.00    +0.127 A 
ATOM     20  F   UNL     1      -0.098   6.103   2.246  0.00  0.00    -0.205 F 
ENDBRANCH   6  14
BRANCH  10  21
ATOM     21  C   UNL     1       4.888   0.858  -0.241  0.00  0.00    -0.043 A 
ATOM     22  C   UNL     1       5.215   0.917  -1.583  0.00  0.00    +0.005 A 
ATOM     23  C   UNL     1       6.367   0.306  -2.041  0.00  0.00    +0.020 A 
ATOM     24  C   UNL     1       7.187  -0.374  -1.159  0.00  0.00    +0.041 A 
ATOM     25  C   UNL     1       6.856  -0.438   0.183  0.00  0.00    +0.020 A 
ATOM     26  C   UNL     1       5.707   0.178   0.641  0.00  0.00    +0.005 A 
ATOM     27 CL   UNL     1       8.630  -1.148  -1.736  0.00  0.00    -0.084 Cl
ENDBRANCH  10  21
BRANCH   1  28
ATOM     28  C   UNL     1      -2.521   3.574   0.417  0.00  0.00    +0.338 C 
ATOM     29  O   UNL     1      -3.523   2.984   0.061  0.00  0.00    -0.245 OA
BRANCH  28  30
ATOM     30  O   UNL     1      -2.600   4.862   0.812  0.00  0.00    -0.460 OA
BRANCH  30  31
ATOM     31  C   UNL     1      -3.893   5.470   0.786  0.00  0.00    +0.243 C 
BRANCH  31  32
ATOM     32  C   UNL     1      -3.785   6.919   1.264  0.00  0.00    +0.110 C 
BRANCH  32  33
ATOM     33  S   UNL     1      -5.426   7.691   1.231  0.00  0.00    -0.158 S 
BRANCH  33  35
ATOM     34  C   UNL     1      -6.448  10.154   1.839  0.00  0.00    +0.015 C 
ATOM     35  C   UNL     1      -5.128   9.382   1.818  0.00  0.00    +0.066 C 
ENDBRANCH  33  35
ENDBRANCH  32  33
ENDBRANCH  31  32
ENDBRANCH  30  31
ENDBRANCH  28  30
ENDBRANCH   1  28
TORSDOF 8
