REMARK  Name = ZINC09781034
REMARK  8 active torsions:
REMARK  status: ('A' for Active; 'I' for Inactive)
REMARK    1  A    between atoms: C_1  and  C_2
REMARK    2  A    between atoms: C_4  and  N_12
REMARK    3  A    between atoms: C_5  and  N_9
REMARK    4  A    between atoms: C_7  and  C_8
REMARK    5  A    between atoms: C_13  and  C_15
REMARK    6  A    between atoms: C_15  and  S_16
REMARK    7  A    between atoms: S_16  and  C_17
REMARK    8  A    between atoms: C_20  and  C_23
REMARK                            x       y       z     vdW  Elec       q    Type
REMARK                         _______ _______ _______ _____ _____    ______ ____
ROOT
ATOM      1  N   UNL     1       1.428  -9.428  -0.058  0.00  0.00    -0.283 N 
ATOM      2  C   UNL     1       2.212  -8.332  -0.057  0.00  0.00    +0.228 C 
ATOM      3  O   UNL     1       3.420  -8.450  -0.056  0.00  0.00    -0.275 OA
ATOM      4  H   UNL     1       0.337  -9.324   0.032  0.00  0.00    +0.155 HD
ENDROOT
BRANCH   1   8
ATOM      5  C   UNL     1       5.139 -12.272  -1.579  0.00  0.00    +0.044 C 
ATOM      6  C   UNL     1       3.801 -12.107  -0.907  0.00  0.00    -0.046 A 
ATOM      7  C   UNL     1       3.236 -10.851  -0.794  0.00  0.00    +0.029 A 
ATOM      8  C   UNL     1       2.003 -10.699  -0.175  0.00  0.00    +0.064 A 
ATOM      9  C   UNL     1       1.343 -11.810   0.334  0.00  0.00    +0.148 A 
ATOM     10  C   UNL     1       1.910 -13.063   0.213  0.00  0.00    +0.038 A 
ATOM     11  C   UNL     1       3.139 -13.211  -0.404  0.00  0.00    -0.045 A 
ATOM     12  C   UNL     1       3.757 -14.580  -0.530  0.00  0.00    +0.044 C 
BRANCH   9  13
ATOM     13  N   UNL     1       0.031 -11.652   1.001  0.00  0.00    +0.058 N 
ATOM     14  O   UNL     1      -0.505 -12.611   1.526  0.00  0.00    -0.126 OA
ATOM     15  O   UNL     1      -0.513 -10.562   1.024  0.00  0.00    -0.126 OA
ENDBRANCH   9  13
ENDBRANCH   1   8
BRANCH   2  16
ATOM     16  C   UNL     1       1.589  -6.960  -0.058  0.00  0.00    +0.173 C 
BRANCH  16  17
ATOM     17  S   UNL     1       2.893  -5.705  -0.057  0.00  0.00    -0.077 S 
BRANCH  17  18
ATOM     18  C   UNL     1       1.910  -4.242  -0.058  0.00  0.00    +0.185 A 
ATOM     19  N   UNL     1       2.371  -2.957  -0.057  0.00  0.00    -0.201 NA
ATOM     20  H   UNL     1      -0.145  -4.998  -0.064  0.00  0.00    +0.191 HD
ATOM     21  C   UNL     1       1.249  -2.160  -0.059  0.00  0.00    +0.183 A 
ATOM     22  N   UNL     1       0.208  -2.961  -0.055  0.00  0.00    -0.152 NA
ATOM     23  N   UNL     1       0.597  -4.186  -0.059  0.00  0.00    -0.253 N 
BRANCH  21  24
ATOM     24  C   UNL     1       1.220  -0.682  -0.065  0.00  0.00    +0.035 A 
ATOM     25  C   UNL     1       2.413   0.042  -0.061  0.00  0.00    +0.013 A 
ATOM     26  C   UNL     1       2.380   1.421  -0.066  0.00  0.00    +0.001 A 
ATOM     27  C   UNL     1       1.167   2.087  -0.074  0.00  0.00    +0.001 A 
ATOM     28  C   UNL     1      -0.020   1.376  -0.078  0.00  0.00    +0.016 A 
ATOM     29  C   UNL     1      -0.001  -0.005  -0.073  0.00  0.00    +0.029 A 
ATOM     30 BR   UNL     1      -1.624  -0.975  -0.079  0.00  0.00    -0.050 Br
ENDBRANCH  21  24
ENDBRANCH  17  18
ENDBRANCH  16  17
ENDBRANCH   2  16
TORSDOF 6
