REMARK  Name = ZINC09428618
REMARK  7 active torsions:
REMARK  status: ('A' for Active; 'I' for Inactive)
REMARK    1  A    between atoms: C_1  and  C_2
REMARK    2  A    between atoms: C_2  and  C_3
REMARK    3  A    between atoms: C_3  and  C_5
REMARK    4  A    between atoms: C_3  and  C_6
REMARK    5  A    between atoms: C_9  and  N_12
REMARK    6  A    between atoms: C_16  and  C_17
REMARK    7  A    between atoms: C_20  and  C_22
REMARK                            x       y       z     vdW  Elec       q    Type
REMARK                         _______ _______ _______ _____ _____    ______ ____
ROOT
ATOM      1  N   UNL     1       2.714   1.084   1.231  0.00  0.00    -0.190 N 
ATOM      2  C   UNL     1       3.790   1.791   0.828  0.00  0.00    +0.264 C 
ATOM      3  O   UNL     1       3.844   2.996   0.994  0.00  0.00    -0.269 OA
ATOM      4  C   UNL     1       4.900   1.067   0.187  0.00  0.00    +0.103 C 
ATOM      5  C   UNL     1       6.044   1.729  -0.250  0.00  0.00    +0.064 C 
ATOM      6  C   UNL     1       4.745  -0.389   0.023  0.00  0.00    +0.257 C 
ATOM      7  O   UNL     1       5.618  -1.054  -0.501  0.00  0.00    -0.270 OA
ATOM      8  N   UNL     1       3.609  -0.964   0.470  0.00  0.00    -0.235 N 
ATOM      9  C   UNL     1       2.640  -0.242   1.049  0.00  0.00    +0.320 C 
ATOM     10  O   UNL     1       1.641  -0.820   1.430  0.00  0.00    -0.251 OA
ATOM     11  H   UNL     1       3.492  -1.921   0.369  0.00  0.00    +0.159 HD
ENDROOT
BRANCH   1  15
ATOM     12  C   UNL     1      -0.459   3.070   3.065  0.00  0.00    -0.044 A 
ATOM     13  C   UNL     1      -0.636   2.484   1.825  0.00  0.00    +0.006 A 
ATOM     14  C   UNL     1       0.412   1.821   1.217  0.00  0.00    +0.024 A 
ATOM     15  C   UNL     1       1.647   1.752   1.847  0.00  0.00    +0.046 A 
ATOM     16  C   UNL     1       1.823   2.346   3.090  0.00  0.00    +0.024 A 
ATOM     17  C   UNL     1       0.770   3.003   3.695  0.00  0.00    +0.006 A 
BRANCH  12  18
ATOM     18  C   UNL     1      -1.606   3.787   3.728  0.00  0.00    +0.016 C 
ATOM     19  C   UNL     1      -2.761   2.808   3.947  0.00  0.00    +0.012 C 
BRANCH  18  21
ATOM     20  C   UNL     1      -3.154   5.741   3.560  0.00  0.00    +0.004 C 
ATOM     21  C   UNL     1      -2.074   4.936   2.833  0.00  0.00    +0.004 C 
ENDBRANCH  18  21
ENDBRANCH  12  18
ENDBRANCH   1  15
BRANCH   5  22
ATOM     22  C   UNL     1       6.087   3.130  -0.246  0.00  0.00    +0.129 A 
ATOM     23  C   UNL     1       7.172   3.911   0.135  0.00  0.00    +0.050 A 
ATOM     24  C   UNL     1       6.783   5.239  -0.015  0.00  0.00    +0.050 A 
ATOM     25  C   UNL     1       5.482   5.231  -0.479  0.00  0.00    +0.136 A 
ATOM     26  O   UNL     1       5.084   3.955  -0.616  0.00  0.00    -0.455 OA
BRANCH  25  27
ATOM     27  C   UNL     1       4.668   6.423  -0.780  0.00  0.00    +0.017 A 
ATOM     28  C   UNL     1       5.200   7.702  -0.594  0.00  0.00    +0.012 A 
ATOM     29  C   UNL     1       4.435   8.812  -0.881  0.00  0.00    +0.016 A 
ATOM     30  C   UNL     1       3.138   8.663  -1.343  0.00  0.00    +0.018 A 
ATOM     31  C   UNL     1       2.602   7.398  -1.524  0.00  0.00    +0.016 A 
ATOM     32  C   UNL     1       3.358   6.279  -1.246  0.00  0.00    +0.012 A 
ATOM     33 BR   UNL     1       2.093  10.191  -1.727  0.00  0.00    -0.050 Br
ENDBRANCH  25  27
ENDBRANCH   5  22
TORSDOF 5
