REMARK  Name = ZINC09142378
REMARK  9 active torsions:
REMARK  status: ('A' for Active; 'I' for Inactive)
REMARK    1  A    between atoms: C_1  and  C_2
REMARK    2  A    between atoms: C_6  and  C_10
REMARK    3  A    between atoms: C_7  and  O_8
REMARK    4  A    between atoms: O_8  and  C_9
REMARK    5  A    between atoms: N_12  and  C_13
REMARK    6  A    between atoms: C_13  and  N_15
REMARK    7  A    between atoms: N_15  and  C_16
REMARK    8  A    between atoms: C_16  and  C_18
REMARK    9  A    between atoms: C_16  and  C_19
REMARK                            x       y       z     vdW  Elec       q    Type
REMARK                         _______ _______ _______ _____ _____    ______ ____
ROOT
ATOM      1  C   UNL     1       4.744   4.782  -0.016  0.00  0.00    +0.137 C 
ATOM      2  S   UNL     1       4.716   6.494  -0.007  0.00  0.00    -0.018 S 
ENDROOT
BRANCH   1   5
ATOM      3  C   UNL     1       2.410   4.744   0.005  0.00  0.00    +0.253 C 
ATOM      4  O   UNL     1       2.390   5.960   0.012  0.00  0.00    -0.270 OA
ATOM      5  N   UNL     1       3.588   4.090  -0.009  0.00  0.00    -0.264 N 
ATOM      6  H   UNL     1       3.603   3.120  -0.015  0.00  0.00    +0.157 HD
BRANCH   3  12
ATOM      7  C   UNL     1      -2.589   4.663   0.052  0.00  0.00    +0.047 C 
ATOM      8  C   UNL     1      -1.266   3.941   0.035  0.00  0.00    -0.007 A 
ATOM      9  C   UNL     1      -1.235   2.560   0.022  0.00  0.00    +0.022 A 
ATOM     10  C   UNL     1      -0.024   1.887   0.012  0.00  0.00    +0.019 A 
ATOM     11  C   UNL     1       1.163   2.590   0.005  0.00  0.00    +0.032 A 
ATOM     12  C   UNL     1       1.145   3.986   0.013  0.00  0.00    +0.080 A 
ATOM     13  C   UNL     1      -0.083   4.663   0.028  0.00  0.00    +0.135 A 
ATOM     14 BR   UNL     1       0.002  -0.004   0.002  0.00  0.00    -0.050 Br
BRANCH  13  15
ATOM     15  O   UNL     1      -0.113   6.020   0.036  0.00  0.00    -0.494 OA
ATOM     16  C   UNL     1      -0.139   6.676  -1.233  0.00  0.00    +0.277 C 
ENDBRANCH  13  15
ENDBRANCH   3  12
ENDBRANCH   1   5
BRANCH   1  17
ATOM     17  N   UNL     1       5.922   4.128  -0.030  0.00  0.00    -0.323 N 
ATOM     18  H   UNL     1       5.937   3.158  -0.036  0.00  0.00    +0.148 HD
BRANCH  17  19
ATOM     19  C   UNL     1       7.178   4.881  -0.038  0.00  0.00    +0.075 C 
ATOM     20  C   UNL     1       7.538   5.258  -1.476  0.00  0.00    +0.028 C 
BRANCH  19  21
ATOM     21  C   UNL     1       8.293   4.018   0.557  0.00  0.00    -0.010 C 
ATOM     22  C   UNL     1       8.456   2.747  -0.279  0.00  0.00    +0.012 C 
ATOM     23  C   UNL     1       9.570   1.885   0.316  0.00  0.00    -0.010 C 
ATOM     24  C   UNL     1      10.883   2.671   0.308  0.00  0.00    +0.007 C 
ATOM     25  C   UNL     1      10.720   3.942   1.144  0.00  0.00    -0.010 C 
ATOM     26  C   UNL     1       9.605   4.805   0.549  0.00  0.00    +0.012 C 
ATOM     27  C   UNL     1      10.361   3.565   2.582  0.00  0.00    +0.007 C 
ATOM     28  C   UNL     1       9.049   2.778   2.590  0.00  0.00    -0.010 C 
ATOM     29  C   UNL     1       9.211   1.507   1.754  0.00  0.00    +0.007 C 
ATOM     30  C   UNL     1       7.934   3.641   1.995  0.00  0.00    +0.012 C 
ENDBRANCH  19  21
ENDBRANCH  17  19
ENDBRANCH   1  17
TORSDOF 6
