REMARK  Name = ZINC09292071
REMARK  4 active torsions:
REMARK  status: ('A' for Active; 'I' for Inactive)
REMARK    1  A    between atoms: C_1  and  C_2
REMARK    2  A    between atoms: C_9  and  C_26
REMARK    3  A    between atoms: C_26  and  C_28
REMARK    4  A    between atoms: C_32  and  N_34
REMARK                            x       y       z     vdW  Elec       q    Type
REMARK                         _______ _______ _______ _____ _____    ______ ____
ROOT
ATOM      1  C   UNL     1       3.234  -4.872  -2.831  0.00  0.00    +0.044 C 
ATOM      2  C   UNL     1       4.081  -3.651  -2.584  0.00  0.00    -0.050 A 
ATOM      3  C   UNL     1       5.334  -3.547  -3.161  0.00  0.00    +0.005 A 
ATOM      4  C   UNL     1       6.114  -2.432  -2.938  0.00  0.00    +0.024 A 
ATOM      5  C   UNL     1       5.646  -1.399  -2.129  0.00  0.00    +0.036 A 
ATOM      6  C   UNL     1       4.383  -1.514  -1.554  0.00  0.00    -0.027 A 
ATOM      7  C   UNL     1       3.608  -2.630  -1.779  0.00  0.00    +0.008 A 
ATOM      8  C   UNL     1       4.181  -0.257  -0.757  0.00  0.00    +0.052 C 
ATOM      9  C   UNL     1       2.946   0.522  -1.258  0.00  0.00    +0.080 C 
ATOM     10  C   UNL     1       2.616   1.377  -0.018  0.00  0.00    +0.071 C 
ATOM     11  C   UNL     1       1.171   1.780   0.000  0.00  0.00    -0.012 A 
ATOM     12  C   UNL     1      -0.013   1.076   0.008  0.00  0.00    +0.006 A 
ATOM     13  C   UNL     1      -1.220   1.750   0.017  0.00  0.00    +0.000 A 
ATOM     14  C   UNL     1      -1.235   3.134   0.031  0.00  0.00    +0.002 A 
ATOM     15  C   UNL     1      -0.052   3.843   0.024  0.00  0.00    +0.023 A 
ATOM     16  C   UNL     1       1.168   3.172   0.009  0.00  0.00    +0.038 A 
ATOM     17  N   UNL     1       2.477   3.658   0.001  0.00  0.00    -0.285 N 
ATOM     18  C   UNL     1       3.388   2.665  -0.015  0.00  0.00    +0.227 C 
ATOM     19  O   UNL     1       4.595   2.787  -0.026  0.00  0.00    -0.275 OA
ATOM     20  C   UNL     1       2.980   0.483   1.171  0.00  0.00    -0.046 C 
ATOM     21  C   UNL     1       3.292  -1.870   0.810  0.00  0.00    -0.076 C 
ATOM     22  C   UNL     1       2.271  -1.689   1.962  0.00  0.00    -0.020 C 
ATOM     23  C   UNL     1       1.724  -0.269   1.657  0.00  0.00    -0.016 C 
ATOM     24  C   UNL     1       5.440   0.540  -0.954  0.00  0.00    +0.212 C 
ATOM     25  O   UNL     1       5.690   1.628  -0.480  0.00  0.00    -0.277 OA
ATOM     26  N   UNL     1       6.237  -0.189  -1.760  0.00  0.00    -0.286 N 
ATOM     27  H   UNL     1       2.705   4.601   0.006  0.00  0.00    +0.155 HD
ATOM     28  H   UNL     1       7.118   0.094  -2.049  0.00  0.00    +0.155 HD
ATOM     29  N   UNL     1       3.913  -0.532   0.660  0.00  0.00    +0.395 N 
ATOM     30  H   UNL     1       4.792  -0.498   1.190  0.00  0.00    -0.079 HD
ENDROOT
BRANCH   9  31
ATOM     31  C   UNL     1       3.294   1.390  -2.439  0.00  0.00    +0.167 C 
ATOM     32  O   UNL     1       3.812   2.472  -2.265  0.00  0.00    -0.292 OA
BRANCH  31  33
ATOM     33  C   UNL     1       3.006   0.924  -3.805  0.00  0.00    +0.020 A 
ATOM     34  C   UNL     1       2.414  -0.327  -4.011  0.00  0.00    +0.011 A 
ATOM     35  C   UNL     1       2.143  -0.755  -5.293  0.00  0.00    +0.003 A 
ATOM     36  C   UNL     1       2.464   0.046  -6.376  0.00  0.00    +0.033 A 
ATOM     37  C   UNL     1       3.054   1.282  -6.181  0.00  0.00    +0.127 A 
ATOM     38  C   UNL     1       3.327   1.726  -4.904  0.00  0.00    +0.044 A 
BRANCH  37  39
ATOM     39  N   UNL     1       3.393   2.130  -7.346  0.00  0.00    +0.056 N 
ATOM     40  O   UNL     1       3.913   3.219  -7.176  0.00  0.00    -0.126 OA
ATOM     41  O   UNL     1       3.152   1.740  -8.474  0.00  0.00    -0.126 OA
ENDBRANCH  37  39
ENDBRANCH  31  33
ENDBRANCH   9  31
TORSDOF 3
