REMARK  Name = ZINC00893753
REMARK  6 active torsions:
REMARK  status: ('A' for Active; 'I' for Inactive)
REMARK    1  A    between atoms: C_1  and  C_2
REMARK    2  A    between atoms: C_6  and  C_15
REMARK    3  A    between atoms: C_13  and  C_14
REMARK    4  A    between atoms: C_15  and  C_17
REMARK    5  A    between atoms: C_15  and  N_27
REMARK    6  A    between atoms: N_21  and  C_22
REMARK                            x       y       z     vdW  Elec       q    Type
REMARK                         _______ _______ _______ _____ _____    ______ ____
ROOT
ATOM      1  C   UNL     1       1.688   3.140   0.002  0.00  0.00    +0.179 C 
ENDROOT
BRANCH   1   7
ATOM      2  C   UNL     1       3.433   5.798  -6.744  0.00  0.00    +0.044 C 
ATOM      3  C   UNL     1       2.427   5.236  -5.773  0.00  0.00    -0.047 A 
ATOM      4  C   UNL     1       2.819   4.909  -4.505  0.00  0.00    +0.013 A 
ATOM      5  C   UNL     1       1.886   4.387  -3.604  0.00  0.00    -0.001 A 
ATOM      6  C   UNL     1       2.271   4.029  -2.237  0.00  0.00    +0.021 A 
ATOM      7  C   UNL     1       1.324   3.523  -1.409  0.00  0.00    +0.045 A 
ATOM      8  C   UNL     1      -0.002   3.359  -1.862  0.00  0.00    +0.255 A 
ATOM      9  O   UNL     1      -0.839   2.906  -1.100  0.00  0.00    -0.268 OA
ATOM     10  N   UNL     1      -0.366   3.689  -3.114  0.00  0.00    -0.322 N 
ATOM     11  H   UNL     1      -1.287   3.563  -3.393  0.00  0.00    +0.169 HD
ATOM     12  C   UNL     1       0.550   4.203  -4.006  0.00  0.00    +0.049 A 
ATOM     13  C   UNL     1       0.173   4.544  -5.301  0.00  0.00    +0.030 A 
ATOM     14  C   UNL     1       1.110   5.057  -6.173  0.00  0.00    -0.046 A 
ATOM     15  C   UNL     1       0.701   5.426  -7.576  0.00  0.00    +0.044 C 
ENDBRANCH   1   7
BRANCH   1  16
ATOM     16  N   UNL     1       0.833   3.874   0.945  0.00  0.00    -0.316 N 
ATOM     17  C   UNL     1       0.544   5.222   0.451  0.00  0.00    +0.106 C 
ATOM     18  C   UNL     1      -0.325   5.947   1.485  0.00  0.00    +0.024 C 
ATOM     19  C   UNL     1       0.532   6.196   2.729  0.00  0.00    +0.038 C 
ATOM     20  C   UNL     1       1.262   4.931   3.103  0.00  0.00    -0.026 A 
ATOM     21  C   UNL     1       1.381   3.866   2.227  0.00  0.00    +0.034 A 
ATOM     22  C   UNL     1       2.075   2.723   2.627  0.00  0.00    +0.023 A 
ATOM     23  C   UNL     1       2.635   2.652   3.885  0.00  0.00    +0.002 A 
ATOM     24  C   UNL     1       2.510   3.716   4.758  0.00  0.00    +0.000 A 
ATOM     25  C   UNL     1       1.825   4.850   4.366  0.00  0.00    +0.005 A 
ENDBRANCH   1  16
BRANCH   1  26
ATOM     26  C   UNL     1       1.486   1.659   0.189  0.00  0.00    +0.177 A 
ATOM     27  N   UNL     1       0.340   1.036   0.320  0.00  0.00    -0.111 NA
ATOM     28  N   UNL     1       0.584  -0.222   0.457  0.00  0.00    -0.023 NA
ATOM     29  N   UNL     1       1.856  -0.417   0.417  0.00  0.00    -0.044 NA
ATOM     30  N   UNL     1       2.446   0.718   0.253  0.00  0.00    -0.224 N 
BRANCH  30  31
ATOM     31  C   UNL     1       3.891   0.941   0.154  0.00  0.00    +0.111 C 
ATOM     32  C   UNL     1       4.474   0.121  -1.016  0.00  0.00    +0.027 C 
ATOM     33  C   UNL     1       5.855  -0.351  -0.496  0.00  0.00    +0.002 C 
ATOM     34  C   UNL     1       5.573  -0.661   0.995  0.00  0.00    +0.002 C 
ATOM     35  C   UNL     1       4.590   0.444   1.432  0.00  0.00    +0.027 C 
ENDBRANCH  30  31
ENDBRANCH   1  26
TORSDOF 4
