REMARK  Name = ZINC02568583
REMARK  5 active torsions:
REMARK  status: ('A' for Active; 'I' for Inactive)
REMARK    1  A    between atoms: C_1  and  C_2
REMARK    2  A    between atoms: C_5  and  C_7
REMARK    3  A    between atoms: C_9  and  C_19
REMARK    4  A    between atoms: C_14  and  C_17
REMARK    5  A    between atoms: N_21  and  N_22
REMARK                            x       y       z     vdW  Elec       q    Type
REMARK                         _______ _______ _______ _____ _____    ______ ____
ROOT
ATOM      1  C   UNL     1       1.236  -0.678   0.001  0.00  0.00    +0.107 A 
ATOM      2  C   UNL     1       0.002  -0.004   0.017  0.00  0.00    +0.045 A 
ATOM      3  C   UNL     1      -0.017   1.382   0.010  0.00  0.00    +0.049 A 
ATOM      4  C   UNL     1       1.274   2.073  -0.015  0.00  0.00    +0.013 A 
ATOM      5  C   UNL     1       1.354   3.469  -0.024  0.00  0.00    +0.012 A 
ATOM      6  C   UNL     1       2.576   4.074  -0.047  0.00  0.00    +0.021 A 
ATOM      7  C   UNL     1       3.747   3.317  -0.061  0.00  0.00    +0.046 A 
ATOM      8  C   UNL     1       3.704   1.956  -0.054  0.00  0.00    -0.006 A 
ATOM      9  C   UNL     1       2.461   1.298  -0.030  0.00  0.00    +0.077 A 
ATOM     10  N   UNL     1       2.388  -0.035  -0.021  0.00  0.00    -0.243 NA
ATOM     11  C   UNL     1       4.982   1.158  -0.070  0.00  0.00    +0.047 C 
ATOM     12 CL   UNL     1       5.284   4.123  -0.090  0.00  0.00    -0.083 Cl
ENDROOT
BRANCH   1  17
ATOM     13  C   UNL     1      -0.373  -5.428   0.051  0.00  0.00    +0.086 C 
ATOM     14  C   UNL     1       0.545  -4.234   0.030  0.00  0.00    +0.103 A 
ATOM     15  C   UNL     1       1.893  -4.278   0.010  0.00  0.00    +0.045 A 
ATOM     16  C   UNL     1       2.349  -2.947  -0.010  0.00  0.00    +0.052 A 
ATOM     17  C   UNL     1       1.244  -2.153   0.008  0.00  0.00    +0.153 A 
ATOM     18  O   UNL     1       0.157  -2.949   0.029  0.00  0.00    -0.458 OA
ENDBRANCH   1  17
BRANCH   3  19
ATOM     19  C   UNL     1      -1.291   2.133   0.020  0.00  0.00    +0.258 C 
ATOM     20  O   UNL     1      -1.281   3.345   0.118  0.00  0.00    -0.269 OA
ATOM     21  N   UNL     1      -2.462   1.475  -0.080  0.00  0.00    -0.250 N 
ATOM     22  H   UNL     1      -2.470   0.508  -0.158  0.00  0.00    +0.169 HD
BRANCH  21  23
ATOM     23  N   UNL     1      -3.639   2.169  -0.070  0.00  0.00    -0.254 NA
ATOM     24  H   UNL     1      -3.653   2.866  -0.799  0.00  0.00    +0.140 HD
ATOM     25  H   UNL     1      -4.428   1.544  -0.152  0.00  0.00    +0.140 HD
ENDBRANCH  21  23
ENDBRANCH   3  19
TORSDOF 3
