REMARK  Name = ZINC57312354
REMARK  7 active torsions:
REMARK  status: ('A' for Active; 'I' for Inactive)
REMARK    1  A    between atoms: C_1  and  C_2
REMARK    2  A    between atoms: C_2  and  C_3
REMARK    3  A    between atoms: C_6  and  C_9
REMARK    4  A    between atoms: C_16  and  O_30
REMARK    5  A    between atoms: C_17  and  C_20
REMARK    6  A    between atoms: C_20  and  N_21
REMARK    7  A    between atoms: N_21  and  C_22
REMARK                            x       y       z     vdW  Elec       q    Type
REMARK                         _______ _______ _______ _____ _____    ______ ____
ROOT
ATOM      1  C   UNL     1      -5.390  -1.994   0.043  0.00  0.00    +0.058 C 
ATOM      2  C   UNL     1      -6.070  -2.131  -1.122  0.00  0.00    +0.176 C 
ATOM      3  C   UNL     1      -7.483  -2.521  -1.263  0.00  0.00    +0.231 C 
ATOM      4  O   UNL     1      -8.276  -2.785  -0.377  0.00  0.00    -0.283 OA
ATOM      5  C   UNL     1      -7.722  -2.521  -2.718  0.00  0.00    +0.068 A 
ATOM      6  C   UNL     1      -8.844  -2.799  -3.500  0.00  0.00    +0.019 A 
ATOM      7  C   UNL     1      -8.762  -2.714  -4.861  0.00  0.00    +0.046 A 
ATOM      8  C   UNL     1      -7.563  -2.349  -5.469  0.00  0.00    +0.122 A 
ATOM      9  C   UNL     1      -6.442  -2.070  -4.704  0.00  0.00    +0.020 A 
ATOM     10  C   UNL     1      -6.508  -2.152  -3.319  0.00  0.00    +0.144 A 
ATOM     11  O   UNL     1      -5.577  -1.930  -2.366  0.00  0.00    -0.451 OA
ENDROOT
BRANCH   1  15
ATOM     12  C   UNL     1      -1.417  -0.511   0.014  0.00  0.00    -0.048 A 
ATOM     13  C   UNL     1      -2.064  -0.771  -1.182  0.00  0.00    +0.004 A 
ATOM     14  C   UNL     1      -3.355  -1.253  -1.182  0.00  0.00    +0.008 A 
ATOM     15  C   UNL     1      -4.012  -1.480   0.033  0.00  0.00    -0.021 A 
ATOM     16  C   UNL     1      -3.352  -1.216   1.238  0.00  0.00    +0.008 A 
ATOM     17  C   UNL     1      -2.058  -0.739   1.220  0.00  0.00    +0.004 A 
BRANCH  12  19
ATOM     18  C   UNL     1       0.977  -1.157   0.013  0.00  0.00    +0.009 C 
ATOM     19  C   UNL     1      -0.005   0.016   0.004  0.00  0.00    +0.032 C 
ENDBRANCH  12  19
ENDBRANCH   1  15
BRANCH   8  20
ATOM     20  O   UNL     1      -7.492  -2.267  -6.822  0.00  0.00    -0.506 OA
ATOM     21  H   UNL     1      -7.710  -1.394  -7.175  0.00  0.00    +0.292 HD
ENDBRANCH   8  20
BRANCH   9  22
ATOM     22  C   UNL     1      -5.151  -1.677  -5.375  0.00  0.00    -0.039 C 
BRANCH  22  23
ATOM     23  N   UNL     1      -5.106  -0.217  -5.532  0.00  0.00    +0.385 N 
ATOM     24  H   UNL     1      -5.884   0.085  -6.098  0.00  0.00    -0.085 HD
ATOM     25  H   UNL     1      -5.160   0.221  -4.625  0.00  0.00    -0.085 HD
BRANCH  23  26
ATOM     26  C   UNL     1      -3.847   0.166  -6.186  0.00  0.00    -0.049 C 
ATOM     27  C   UNL     1      -3.828  -0.388  -7.620  0.00  0.00    +0.008 C 
ATOM     28  C   UNL     1      -2.652   0.285  -8.384  0.00  0.00    +0.164 C 
ATOM     29  S   UNL     1      -2.797   2.015  -7.769  0.00  0.00    -0.033 S 
ATOM     30  O   UNL     1      -1.501   2.499  -7.441  0.00  0.00    -0.174 OA
ATOM     31  O   UNL     1      -3.614   2.757  -8.663  0.00  0.00    -0.174 OA
ATOM     32  C   UNL     1      -3.733   1.709  -6.216  0.00  0.00    +0.150 C 
ENDBRANCH  23  26
ENDBRANCH  22  23
ENDBRANCH   9  22
TORSDOF 6
