REMARK  Name = ZINC20752846
REMARK  6 active torsions:
REMARK  status: ('A' for Active; 'I' for Inactive)
REMARK    1  A    between atoms: C_1  and  C_2
REMARK    2  A    between atoms: C_6  and  C_33
REMARK    3  A    between atoms: C_7  and  N_8
REMARK    4  A    between atoms: N_8  and  S_9
REMARK    5  A    between atoms: S_9  and  C_12
REMARK    6  A    between atoms: C_25  and  C_28
REMARK                            x       y       z     vdW  Elec       q    Type
REMARK                         _______ _______ _______ _____ _____    ______ ____
ROOT
ATOM      1  C   UNL     1       0.395   7.856   0.432  0.00  0.00    +0.109 A 
ATOM      2  C   UNL     1      -0.014   8.018   1.743  0.00  0.00    +0.030 A 
ATOM      3  C   UNL     1      -1.119   7.330   2.204  0.00  0.00    +0.025 A 
ATOM      4  C   UNL     1      -1.813   6.479   1.354  0.00  0.00    +0.031 A 
ATOM      5  C   UNL     1      -1.407   6.314   0.039  0.00  0.00    -0.018 A 
ATOM      6  C   UNL     1      -0.295   7.011  -0.413  0.00  0.00    +0.034 A 
ATOM      7  C   UNL     1      -2.124   5.410  -0.913  0.00  0.00    +0.049 C 
ATOM      8  C   UNL     1      -1.354   4.133  -1.149  0.00  0.00    -0.023 C 
ATOM      9  C   UNL     1      -2.180   3.123  -1.279  0.00  0.00    -0.030 C 
ATOM     10  C   UNL     1      -3.616   3.592  -1.153  0.00  0.00    +0.033 C 
ATOM     11  C   UNL     1      -3.490   4.937  -0.379  0.00  0.00    +0.029 C 
ATOM     12  C   UNL     1      -3.380   4.597   1.110  0.00  0.00    +0.111 C 
ATOM     13  N   UNL     1      -2.930   5.787   1.840  0.00  0.00    -0.336 N 
ATOM     14  H   UNL     1      -3.467   6.114   2.743  0.00  0.00    +0.147 HD
ENDROOT
BRANCH  12  15
ATOM     15  C   UNL     1      -2.384   3.482   1.301  0.00  0.00    +0.010 A 
ATOM     16  C   UNL     1      -2.610   2.158   1.485  0.00  0.00    +0.013 A 
ATOM     17  C   UNL     1      -1.530   1.310   1.645  0.00  0.00    +0.008 A 
ATOM     18  C   UNL     1      -0.277   1.826   1.601  0.00  0.00    +0.045 A 
ATOM     19  S   UNL     1      -0.601   3.561   1.336  0.00  0.00    -0.100 S 
ENDBRANCH  12  15
BRANCH   1  20
ATOM     20  S   UNL     1       1.804   8.732  -0.162  0.00  0.00    +0.072 S 
ATOM     21  O   UNL     1       2.540   9.141   0.983  0.00  0.00    -0.150 OA
ATOM     22  O   UNL     1       2.375   7.934  -1.190  0.00  0.00    -0.150 OA
BRANCH  20  23
ATOM     23  N   UNL     1       1.251  10.114  -0.888  0.00  0.00    -0.216 N 
ATOM     24  H   UNL     1       1.379  10.254  -1.972  0.00  0.00    +0.174 HD
BRANCH  23  31
ATOM     25  C   UNL     1      -1.580  10.336  -1.050  0.00  0.00    +0.046 C 
ATOM     26  C   UNL     1      -0.757  11.245  -0.173  0.00  0.00    -0.028 A 
ATOM     27  C   UNL     1      -1.375  12.219   0.586  0.00  0.00    +0.005 A 
ATOM     28  C   UNL     1      -0.620  13.056   1.387  0.00  0.00    +0.001 A 
ATOM     29  C   UNL     1       0.755  12.919   1.433  0.00  0.00    +0.005 A 
ATOM     30  C   UNL     1       1.379  11.944   0.680  0.00  0.00    -0.028 A 
ATOM     31  C   UNL     1       0.623  11.100  -0.125  0.00  0.00    +0.054 A 
ATOM     32  C   UNL     1       2.877  11.794   0.732  0.00  0.00    +0.046 C 
ENDBRANCH  23  31
ENDBRANCH  20  23
ENDBRANCH   1  20
TORSDOF 4
