REMARK  Name = ZINC12766577
REMARK  10 active torsions:
REMARK  status: ('A' for Active; 'I' for Inactive)
REMARK    1  A    between atoms: C_1  and  C_2
REMARK    2  A    between atoms: C_4  and  C_34
REMARK    3  A    between atoms: C_6  and  C_29
REMARK    4  A    between atoms: C_10  and  C_11
REMARK    5  A    between atoms: N_13  and  C_14
REMARK    6  A    between atoms: C_14  and  C_15
REMARK    7  A    between atoms: C_15  and  C_17
REMARK    8  A    between atoms: C_15  and  N_62
REMARK    9  A    between atoms: C_20  and  O_23
REMARK   10  A    between atoms: O_23  and  C_24
REMARK                            x       y       z     vdW  Elec       q    Type
REMARK                         _______ _______ _______ _____ _____    ______ ____
ROOT
ATOM      1  C   UNL     1      -0.120  -2.600  -2.579  0.00  0.00    +0.251 C 
ATOM      2  O   UNL     1       0.068  -2.014  -3.628  0.00  0.00    -0.270 OA
ATOM      3  N   UNL     1      -0.191  -1.908  -1.424  0.00  0.00    -0.312 N 
ATOM      4  H   UNL     1      -0.340  -2.375  -0.587  0.00  0.00    +0.149 HD
ENDROOT
BRANCH   1  14
ATOM      5  C   UNL     1      -0.004  -4.401  -5.017  0.00  0.00    +0.046 C 
ATOM      6  C   UNL     1      -0.227  -4.923  -3.621  0.00  0.00    -0.020 A 
ATOM      7  C   UNL     1      -0.393  -6.299  -3.404  0.00  0.00    +0.032 A 
ATOM      8  C   UNL     1      -0.385  -7.362  -4.344  0.00  0.00    +0.051 A 
ATOM      9  N   UNL     1      -0.560  -8.594  -3.928  0.00  0.00    -0.229 NA
ATOM     10  C   UNL     1      -0.747  -8.892  -2.642  0.00  0.00    +0.197 A 
ATOM     11  N   UNL     1      -0.766  -7.941  -1.712  0.00  0.00    -0.217 NA
ATOM     12  C   UNL     1      -0.597  -6.684  -2.051  0.00  0.00    +0.113 A 
ATOM     13  S   UNL     1      -0.540  -5.142  -1.176  0.00  0.00    -0.064 S 
ATOM     14  C   UNL     1      -0.269  -4.061  -2.570  0.00  0.00    +0.079 A 
ATOM     15  C   UNL     1      -0.178  -7.078  -5.809  0.00  0.00    +0.066 C 
BRANCH  10  16
ATOM     16  C   UNL     1      -0.938 -10.298  -2.244  0.00  0.00    +0.172 A 
ATOM     17  C   UNL     1      -1.138 -10.750  -0.975  0.00  0.00    +0.053 A 
ATOM     18  C   UNL     1      -1.269 -12.148  -1.059  0.00  0.00    +0.042 A 
ATOM     19  C   UNL     1      -1.143 -12.480  -2.361  0.00  0.00    +0.196 A 
ATOM     20  O   UNL     1      -0.949 -11.361  -3.074  0.00  0.00    -0.460 OA
ENDBRANCH  10  16
ENDBRANCH   1  14
BRANCH   3  21
ATOM     21  C   UNL     1      -0.042  -0.451  -1.433  0.00  0.00    +0.094 C 
BRANCH  21  22
ATOM     22  C   UNL     1      -0.029   0.070   0.006  0.00  0.00    -0.020 C 
BRANCH  22  23
ATOM     23  C   UNL     1       1.175  -0.477   0.727  0.00  0.00    -0.059 A 
ATOM     24  C   UNL     1       2.416   0.103   0.536  0.00  0.00    +0.005 A 
ATOM     25  C   UNL     1       3.521  -0.393   1.201  0.00  0.00    +0.046 A 
ATOM     26  C   UNL     1       3.388  -1.482   2.050  0.00  0.00    +0.120 A 
ATOM     27  C   UNL     1       2.143  -2.066   2.235  0.00  0.00    +0.046 A 
ATOM     28  C   UNL     1       1.040  -1.562   1.574  0.00  0.00    +0.005 A 
BRANCH  26  29
ATOM     29  O   UNL     1       4.474  -1.976   2.700  0.00  0.00    -0.495 OA
ATOM     30  C   UNL     1       5.724  -1.325   2.462  0.00  0.00    +0.277 C 
ENDBRANCH  26  29
ENDBRANCH  22  23
BRANCH  22  35
ATOM     31  C   UNL     1      -1.122   2.112  -0.744  0.00  0.00    -0.078 C 
ATOM     32  C   UNL     1      -1.191   3.568  -0.217  0.00  0.00    -0.020 C 
ATOM     33  C   UNL     1      -0.827   3.413   1.277  0.00  0.00    -0.020 C 
ATOM     34  C   UNL     1      -0.059   2.081   1.368  0.00  0.00    -0.078 C 
ATOM     35  N   UNL     1       0.021   1.563   0.002  0.00  0.00    +0.385 N 
ATOM     36  H   UNL     1       0.899   1.868  -0.434  0.00  0.00    -0.081 HD
ENDBRANCH  22  35
ENDBRANCH  21  22
ENDBRANCH   3  21
TORSDOF 7
