REMARK  Name = ZINC08971880
REMARK  4 active torsions:
REMARK  status: ('A' for Active; 'I' for Inactive)
REMARK    1  A    between atoms: C_1  and  N_50
REMARK    2  A    between atoms: C_3  and  C_26
REMARK    3  A    between atoms: C_5  and  C_18
REMARK    4  A    between atoms: C_18  and  C_20
REMARK                            x       y       z     vdW  Elec       q    Type
REMARK                         _______ _______ _______ _____ _____    ______ ____
ROOT
ATOM      1  C   UNL     1       6.472   3.159   1.244  0.00  0.00    -0.094 C 
ATOM      2  C   UNL     1       5.790   2.322  -0.940  0.00  0.00    -0.068 C 
ATOM      3  C   UNL     1       5.387   0.931  -1.494  0.00  0.00    +0.012 C 
ATOM      4  C   UNL     1       4.987   0.152  -0.219  0.00  0.00    +0.068 C 
ATOM      5  C   UNL     1       5.691   0.887   0.928  0.00  0.00    +0.051 C 
ATOM      6  C   UNL     1       6.582  -0.046   1.703  0.00  0.00    -0.026 A 
ATOM      7  C   UNL     1       7.669  -0.818   1.359  0.00  0.00    +0.024 A 
ATOM      8  C   UNL     1       8.299  -1.593   2.318  0.00  0.00    +0.041 A 
ATOM      9  C   UNL     1       7.832  -1.590   3.621  0.00  0.00    +0.022 A 
ATOM     10  C   UNL     1       6.742  -0.819   3.968  0.00  0.00    +0.025 A 
ATOM     11  C   UNL     1       6.103  -0.037   3.009  0.00  0.00    +0.036 A 
ATOM     12  N   UNL     1       5.000   0.814   3.113  0.00  0.00    -0.286 N 
ATOM     13  C   UNL     1       4.693   1.393   1.937  0.00  0.00    +0.212 C 
ATOM     14  O   UNL     1       3.787   2.172   1.730  0.00  0.00    -0.277 OA
ATOM     15 CL   UNL     1       9.670  -2.567   1.887  0.00  0.00    -0.084 Cl
ATOM     16  H   UNL     1       4.511   0.969   3.936  0.00  0.00    +0.155 HD
ATOM     17  N   UNL     1       6.449   1.979   0.326  0.00  0.00    +0.391 N 
ATOM     18  H   UNL     1       7.412   1.675   0.144  0.00  0.00    -0.080 HD
ENDROOT
BRANCH   3  19
ATOM     19  C   UNL     1       4.217   1.051  -2.436  0.00  0.00    -0.045 A 
ATOM     20  C   UNL     1       3.597   2.274  -2.616  0.00  0.00    +0.005 A 
ATOM     21  C   UNL     1       2.527   2.385  -3.484  0.00  0.00    +0.020 A 
ATOM     22  C   UNL     1       2.068   1.270  -4.163  0.00  0.00    +0.041 A 
ATOM     23  C   UNL     1       2.685   0.046  -3.978  0.00  0.00    +0.020 A 
ATOM     24  C   UNL     1       3.759  -0.063  -3.114  0.00  0.00    +0.005 A 
ATOM     25 CL   UNL     1       0.720   1.408  -5.248  0.00  0.00    -0.084 Cl
ENDBRANCH   3  19
BRANCH   4  26
ATOM     26  C   UNL     1       3.493   0.192  -0.027  0.00  0.00    +0.168 C 
ATOM     27  O   UNL     1       2.864   1.173  -0.363  0.00  0.00    -0.292 OA
BRANCH  26  28
ATOM     28  C   UNL     1       2.796  -0.961   0.566  0.00  0.00    +0.036 A 
ATOM     29  C   UNL     1       1.405  -0.936   0.751  0.00  0.00    +0.014 A 
ATOM     30  C   UNL     1       0.800  -2.045   1.313  0.00  0.00    +0.020 A 
ATOM     31  C   UNL     1       1.577  -3.133   1.673  0.00  0.00    +0.111 A 
ATOM     32  N   UNL     1       2.884  -3.128   1.488  0.00  0.00    -0.263 NA
ATOM     33  C   UNL     1       3.508  -2.098   0.957  0.00  0.00    +0.122 A 
ENDBRANCH  26  28
ENDBRANCH   4  26
TORSDOF 3
