REMARK  Name = ZINC22061733
REMARK  14 active torsions:
REMARK  status: ('A' for Active; 'I' for Inactive)
REMARK    1  A    between atoms: C_1  and  C_2
REMARK    2  A    between atoms: C_2  and  C_4
REMARK    3  A    between atoms: C_2  and  C_15
REMARK    4  A    between atoms: C_4  and  C_5
REMARK    5  A    between atoms: C_5  and  C_6
REMARK    6  A    between atoms: C_6  and  O_7
REMARK    7  A    between atoms: O_7  and  C_8
REMARK    8  A    between atoms: C_8  and  C_10
REMARK    9  A    between atoms: C_10  and  C_11
REMARK   10  A    between atoms: C_11  and  C_12
REMARK   11  A    between atoms: C_21  and  C_43
REMARK   12  A    between atoms: C_22  and  O_42
REMARK   13  A    between atoms: C_29  and  O_41
REMARK   14  A    between atoms: C_34  and  C_40
REMARK                            x       y       z     vdW  Elec       q    Type
REMARK                         _______ _______ _______ _____ _____    ______ ____
ROOT
ATOM      1  C   UNL     1       7.010  11.343   0.500  0.00  0.00    +0.001 C 
ATOM      2  C   UNL     1       8.349  11.864   1.071  0.00  0.00    +0.005 C 
ATOM      3  C   UNL     1       8.111  12.129   2.579  0.00  0.00    +0.005 C 
ATOM      4  C   UNL     1       6.923  11.213   2.917  0.00  0.00    +0.003 C 
ATOM      5  C   UNL     1       6.021  11.375   1.667  0.00  0.00    +0.000 C 
ATOM      6  C   UNL     1       5.002  10.249   1.658  0.00  0.00    +0.121 C 
ATOM      7  C   UNL     1       4.549  10.001   3.098  0.00  0.00    +0.036 C 
ATOM      8  C   UNL     1       4.669  11.303   3.890  0.00  0.00    +0.003 C 
ATOM      9  C   UNL     1       6.119  11.666   4.133  0.00  0.00    +0.025 C 
ATOM     10  C   UNL     1       6.697  11.030   5.387  0.00  0.00    +0.118 C 
ATOM     11  C   UNL     1       5.785  11.212   6.588  0.00  0.00    +0.036 C 
ATOM     12  C   UNL     1       4.415  10.593   6.299  0.00  0.00    +0.005 C 
ATOM     13  C   UNL     1       3.780  11.300   5.108  0.00  0.00    -0.025 C 
ATOM     14  C   UNL     1       2.438  10.639   4.779  0.00  0.00    +0.015 C 
ATOM     15  C   UNL     1       1.470  10.840   5.952  0.00  0.00    +0.075 C 
ATOM     16  C   UNL     1       2.130  10.290   7.198  0.00  0.00    +0.134 C 
ATOM     17  O   UNL     1       1.558   9.494   7.902  0.00  0.00    -0.297 OA
ATOM     18  C   UNL     1       3.525  10.765   7.536  0.00  0.00    +0.078 C 
ATOM     19  C   UNL     1       3.510  12.753   5.505  0.00  0.00    +0.012 C 
ATOM     20  C   UNL     1       5.311  12.729   1.710  0.00  0.00    +0.014 C 
ENDROOT
BRANCH   1  22
ATOM     21  C   UNL     1       7.800   9.046   1.083  0.00  0.00    +0.008 C 
ATOM     22  C   UNL     1       7.175   9.911  -0.013  0.00  0.00    -0.010 C 
BRANCH  22  23
ATOM     23  C   UNL     1       8.085   9.912  -1.243  0.00  0.00    +0.007 C 
BRANCH  23  24
ATOM     24  C   UNL     1       8.138   8.505  -1.839  0.00  0.00    +0.041 C 
BRANCH  24  25
ATOM     25  C   UNL     1       9.049   8.505  -3.069  0.00  0.00    +0.232 C 
BRANCH  25  26
ATOM     26  O   UNL     1       9.099   7.169  -3.635  0.00  0.00    -0.465 OA
BRANCH  26  27
ATOM     27  C   UNL     1       9.860   6.998  -4.728  0.00  0.00    +0.308 C 
ATOM     28  O   UNL     1      10.464   7.934  -5.195  0.00  0.00    -0.251 OA
BRANCH  27  29
ATOM     29  C   UNL     1       9.961   5.639  -5.371  0.00  0.00    +0.132 C 
BRANCH  29  30
ATOM     30  C   UNL     1      10.884   5.719  -6.588  0.00  0.00    +0.136 C 
BRANCH  30  31
ATOM     31  C   UNL     1      10.985   4.359  -7.231  0.00  0.00    +0.357 C 
ATOM     32  O   UNL     1      10.380   3.424  -6.764  0.00  0.00    -0.246 OA
ATOM     33  O   UNL     1      11.746   4.189  -8.324  0.00  0.00    -0.246 OA
ENDBRANCH  30  31
ENDBRANCH  29  30
ENDBRANCH  27  29
ENDBRANCH  26  27
ENDBRANCH  25  26
ENDBRANCH  24  25
ENDBRANCH  23  24
ENDBRANCH  22  23
ENDBRANCH   1  22
BRANCH  10  34
ATOM     34  O   UNL     1       6.862   9.628   5.166  0.00  0.00    -0.391 OA
ATOM     35  H   UNL     1       7.271   8.990   5.963  0.00  0.00    +0.210 HD
ENDBRANCH  10  34
BRANCH   6  36
ATOM     36  O   UNL     1       5.602   9.057   1.149  0.00  0.00    -0.391 OA
ATOM     37  H   UNL     1       5.009   8.134   1.069  0.00  0.00    +0.210 HD
ENDBRANCH   6  36
TORSDOF 11
