REMARK  Name = ZINC40427033
REMARK  6 active torsions:
REMARK  status: ('A' for Active; 'I' for Inactive)
REMARK    1  A    between atoms: C_1  and  C_2
REMARK    2  A    between atoms: C_2  and  C_3
REMARK    3  A    between atoms: C_3  and  C_4
REMARK    4  A    between atoms: C_4  and  C_5
REMARK    5  A    between atoms: C_5  and  C_6
REMARK    6  A    between atoms: C_6  and  C_7
REMARK                            x       y       z     vdW  Elec       q    Type
REMARK                         _______ _______ _______ _____ _____    ______ ____
ROOT
ATOM      1  C   UNL     1       2.252  -4.577   3.685  0.00  0.00    +0.216 C 
ATOM      2  O   UNL     1       2.710  -3.787   4.483  0.00  0.00    -0.276 OA
ATOM      3  N   UNL     1       2.396  -5.901   3.890  0.00  0.00    -0.301 N 
ATOM      4  C   UNL     1       1.852  -6.870   2.929  0.00  0.00    +0.111 C 
ATOM      5  C   UNL     1       0.957  -7.861   3.680  0.00  0.00    +0.064 C 
ATOM      6  C   UNL     1       1.752  -8.492   4.826  0.00  0.00    +0.102 C 
ATOM      7  C   UNL     1       2.190  -7.400   5.805  0.00  0.00    +0.064 C 
ATOM      8  C   UNL     1       3.104  -6.403   5.075  0.00  0.00    +0.111 C 
ATOM      9  N   UNL     1       2.944  -9.153   4.277  0.00  0.00    -0.323 N 
ATOM     10  C   UNL     1       2.783 -10.367   3.618  0.00  0.00    +0.042 A 
ATOM     11  C   UNL     1       3.624 -10.761   2.592  0.00  0.00    +0.024 A 
ATOM     12  C   UNL     1       3.416 -11.976   1.966  0.00  0.00    +0.003 A 
ATOM     13  C   UNL     1       2.373 -12.801   2.356  0.00  0.00    +0.021 A 
ATOM     14  C   UNL     1       1.526 -12.423   3.380  0.00  0.00    +0.055 A 
ATOM     15  C   UNL     1       1.727 -11.203   4.022  0.00  0.00    +0.076 A 
ATOM     16  C   UNL     1       0.860 -10.754   5.126  0.00  0.00    +0.249 C 
ATOM     17  O   UNL     1       0.107 -11.537   5.673  0.00  0.00    -0.270 OA
ATOM     18  N   UNL     1       0.912  -9.466   5.523  0.00  0.00    -0.290 N 
ATOM     19 CL   UNL     1       0.221 -13.461   3.863  0.00  0.00    -0.083 Cl
ATOM     20  H   UNL     1       3.822  -8.751   4.371  0.00  0.00    +0.148 HD
ATOM     21  H   UNL     1       0.384  -9.181   6.285  0.00  0.00    +0.151 HD
ENDROOT
BRANCH   1  22
ATOM     22  C   UNL     1       1.524  -4.077   2.464  0.00  0.00    +0.096 C 
BRANCH  22  23
ATOM     23  C   UNL     1       1.503  -2.548   2.473  0.00  0.00    +0.009 C 
BRANCH  23  24
ATOM     24  C   UNL     1       0.763  -2.041   1.233  0.00  0.00    +0.000 C 
BRANCH  24  25
ATOM     25  C   UNL     1       0.742  -0.511   1.242  0.00  0.00    -0.000 C 
BRANCH  25  27
ATOM     26  C   UNL     1      -0.019   1.526   0.010  0.00  0.00    +0.004 C 
ATOM     27  C   UNL     1       0.002  -0.004   0.002  0.00  0.00    -0.003 C 
ENDBRANCH  25  27
ENDBRANCH  24  25
ENDBRANCH  23  24
ENDBRANCH  22  23
ENDBRANCH   1  22
TORSDOF 5
