REMARK  Name = ZINC59310311
REMARK  6 active torsions:
REMARK  status: ('A' for Active; 'I' for Inactive)
REMARK    1  A    between atoms: C_1  and  C_2
REMARK    2  A    between atoms: C_2  and  C_3
REMARK    3  A    between atoms: C_2  and  S_4
REMARK    4  A    between atoms: S_4  and  C_5
REMARK    5  A    between atoms: N_11  and  N_12
REMARK    6  A    between atoms: C_13  and  C_14
REMARK                            x       y       z     vdW  Elec       q    Type
REMARK                         _______ _______ _______ _____ _____    ______ ____
ROOT
ATOM      1  C   UNL     1      -1.853  -9.315  -0.744  0.00  0.00    +0.002 A 
ATOM      2  C   UNL     1      -2.577 -10.598  -0.726  0.00  0.00    +0.010 A 
ATOM      3  C   UNL     1      -1.926 -11.737  -0.849  0.00  0.00    +0.009 A 
ATOM      4  C   UNL     1      -0.462 -11.727  -1.005  0.00  0.00    -0.017 A 
ATOM      5  C   UNL     1       0.294 -12.983  -1.145  0.00  0.00    +0.009 A 
ATOM      6  C   UNL     1       1.606 -12.953  -1.284  0.00  0.00    +0.009 A 
ATOM      7  C   UNL     1       2.318 -11.664  -1.300  0.00  0.00    -0.017 A 
ATOM      8  C   UNL     1       3.781 -11.607  -1.456  0.00  0.00    +0.008 A 
ATOM      9  C   UNL     1       4.392 -10.440  -1.467  0.00  0.00    +0.001 A 
ATOM     10  C   UNL     1       3.623  -9.191  -1.326  0.00  0.00    +0.008 A 
ATOM     11  C   UNL     1       2.316  -9.238  -1.187  0.00  0.00    -0.017 A 
ATOM     12  C   UNL     1       1.640 -10.548  -1.175  0.00  0.00    -0.002 A 
ATOM     13  C   UNL     1       0.176 -10.581  -1.020  0.00  0.00    -0.002 A 
ATOM     14  C   UNL     1      -0.545  -9.303  -0.888  0.00  0.00    -0.008 A 
ATOM     15  C   UNL     1       0.210  -8.042  -0.916  0.00  0.00    +0.010 A 
ATOM     16  C   UNL     1       1.516  -8.013  -1.045  0.00  0.00    +0.009 A 
ENDROOT
BRANCH   1  18
ATOM     17  N   UNL     1      -1.954  -6.942  -0.512  0.00  0.00    -0.188 NA
ATOM     18  C   UNL     1      -2.591  -8.048  -0.607  0.00  0.00    +0.139 C 
BRANCH  17  25
ATOM     19  C   UNL     1      -1.510  -2.383  -0.078  0.00  0.00    +0.191 A 
ATOM     20  N   UNL     1      -2.523  -3.297  -0.147  0.00  0.00    -0.303 N 
ATOM     21  H   UNL     1      -3.472  -3.099  -0.110  0.00  0.00    +0.171 HD
ATOM     22  C   UNL     1      -1.965  -4.537  -0.278  0.00  0.00    +0.235 A 
ATOM     23  N   UNL     1      -0.661  -4.396  -0.290  0.00  0.00    -0.111 NA
ATOM     24  N   UNL     1      -0.373  -3.030  -0.169  0.00  0.00    -0.121 NA
ATOM     25  N   UNL     1      -2.656  -5.737  -0.381  0.00  0.00    -0.205 N 
ATOM     26  H   UNL     1      -3.626  -5.740  -0.363  0.00  0.00    +0.177 HD
BRANCH  19  27
ATOM     27  S   UNL     1      -1.698  -0.639   0.095  0.00  0.00    -0.083 S 
BRANCH  27  29
ATOM     28  C   UNL     1      -0.013   1.515   0.136  0.00  0.00    +0.019 C 
ATOM     29  C   UNL     1       0.005  -0.014   0.114  0.00  0.00    +0.048 C 
ATOM     30  C   UNL     1       0.725  -0.534   1.360  0.00  0.00    +0.019 C 
ENDBRANCH  27  29
ENDBRANCH  19  27
ENDBRANCH  17  25
ENDBRANCH   1  18
TORSDOF 4
