REMARK  Name = ZINC63655000
REMARK  16 active torsions:
REMARK  status: ('A' for Active; 'I' for Inactive)
REMARK    1  A    between atoms: C_1  and  C_2
REMARK    2  A    between atoms: C_4  and  C_12
REMARK    3  A    between atoms: C_12  and  C_13
REMARK    4  A    between atoms: C_13  and  N_14
REMARK    5  A    between atoms: N_14  and  C_15
REMARK    6  A    between atoms: N_14  and  C_28
REMARK    7  A    between atoms: C_15  and  C_16
REMARK    8  A    between atoms: C_18  and  O_26
REMARK    9  A    between atoms: C_19  and  O_24
REMARK   10  A    between atoms: C_20  and  O_22
REMARK   11  A    between atoms: O_22  and  C_23
REMARK   12  A    between atoms: O_24  and  C_25
REMARK   13  A    between atoms: O_26  and  C_27
REMARK   14  A    between atoms: C_28  and  N_30
REMARK   15  A    between atoms: N_30  and  C_31
REMARK   16  A    between atoms: C_31  and  C_32
REMARK                            x       y       z     vdW  Elec       q    Type
REMARK                         _______ _______ _______ _____ _____    ______ ____
ROOT
ATOM      1  N   UNL     1      -4.819  -0.827  -1.544  0.00  0.00    -0.308 N 
ENDROOT
BRANCH   1   2
ATOM      2  C   UNL     1      -5.652   0.225  -1.419  0.00  0.00    +0.133 C 
ATOM      3  S   UNL     1      -6.884   0.485  -2.579  0.00  0.00    -0.019 S 
BRANCH   2   4
ATOM      4  N   UNL     1      -5.517   1.072  -0.380  0.00  0.00    -0.322 N 
ATOM      5  H   UNL     1      -4.819   0.925   0.278  0.00  0.00    +0.148 HD
BRANCH   4   6
ATOM      6  C   UNL     1      -6.423   2.216  -0.243  0.00  0.00    +0.138 C 
BRANCH   6   7
ATOM      7  C   UNL     1      -6.061   2.999   0.993  0.00  0.00    -0.030 A 
ATOM      8  C   UNL     1      -6.641   2.682   2.207  0.00  0.00    +0.005 A 
ATOM      9  C   UNL     1      -6.309   3.400   3.340  0.00  0.00    +0.000 A 
ATOM     10  C   UNL     1      -5.396   4.435   3.259  0.00  0.00    +0.000 A 
ATOM     11  C   UNL     1      -4.815   4.751   2.046  0.00  0.00    +0.000 A 
ATOM     12  C   UNL     1      -5.144   4.030   0.913  0.00  0.00    +0.005 A 
ENDBRANCH   6   7
ENDBRANCH   4   6
ENDBRANCH   2   4
ENDBRANCH   1   2
BRANCH   1  13
ATOM     13  C   UNL     1      -3.765  -1.049  -0.551  0.00  0.00    +0.111 C 
BRANCH  13  14
ATOM     14  C   UNL     1      -2.494  -0.316  -0.984  0.00  0.00    +0.052 C 
BRANCH  14  17
ATOM     15  C   UNL     1      -0.019   1.526   0.010  0.00  0.00    +0.035 C 
ATOM     16  C   UNL     1       0.002  -0.004   0.002  0.00  0.00    +0.103 C 
ATOM     17  C   UNL     1      -1.410  -0.545   0.038  0.00  0.00    -0.037 C 
ATOM     18  C   UNL     1      -1.503  -1.275   1.173  0.00  0.00    -0.001 A 
ATOM     19  C   UNL     1      -2.599  -2.045   1.772  0.00  0.00    +0.010 A 
ATOM     20  C   UNL     1      -2.386  -2.686   2.944  0.00  0.00    +0.001 A 
ATOM     21  C   UNL     1      -1.148  -2.632   3.599  0.00  0.00    +0.002 A 
ATOM     22  C   UNL     1      -0.094  -1.946   3.110  0.00  0.00    +0.026 A 
ATOM     23  C   UNL     1      -0.205  -1.235   1.884  0.00  0.00    +0.043 A 
ATOM     24  N   UNL     1       0.658  -0.508   1.214  0.00  0.00    -0.378 N 
ATOM     25  H   UNL     1       1.576  -0.332   1.476  0.00  0.00    +0.160 HD
ENDBRANCH  14  17
ENDBRANCH  13  14
ENDBRANCH   1  13
BRANCH   1  26
ATOM     26  C   UNL     1      -4.967  -1.747  -2.674  0.00  0.00    +0.142 C 
BRANCH  26  27
ATOM     27  C   UNL     1      -5.909  -2.861  -2.295  0.00  0.00    -0.023 A 
ATOM     28  C   UNL     1      -5.415  -4.013  -1.712  0.00  0.00    +0.054 A 
ATOM     29  C   UNL     1      -6.278  -5.040  -1.361  0.00  0.00    +0.165 A 
ATOM     30  C   UNL     1      -7.641  -4.910  -1.597  0.00  0.00    +0.204 A 
ATOM     31  C   UNL     1      -8.134  -3.750  -2.183  0.00  0.00    +0.165 A 
ATOM     32  C   UNL     1      -7.265  -2.726  -2.526  0.00  0.00    +0.054 A 
BRANCH  31  33
ATOM     33  O   UNL     1      -9.467  -3.618  -2.416  0.00  0.00    -0.491 OA
ATOM     34  C   UNL     1      -9.903  -2.400  -3.021  0.00  0.00    +0.277 C 
ENDBRANCH  31  33
BRANCH  30  35
ATOM     35  O   UNL     1      -8.492  -5.916  -1.255  0.00  0.00    -0.488 OA
ATOM     36  C   UNL     1      -9.047  -5.877   0.061  0.00  0.00    +0.277 C 
ENDBRANCH  30  35
BRANCH  29  37
ATOM     37  O   UNL     1      -5.791  -6.173  -0.788  0.00  0.00    -0.491 OA
ATOM     38  C   UNL     1      -4.379  -6.238  -0.576  0.00  0.00    +0.277 C 
ENDBRANCH  29  37
ENDBRANCH  26  27
ENDBRANCH   1  26
TORSDOF 12
