REMARK  Name = ZINC40428584
REMARK  5 active torsions:
REMARK  status: ('A' for Active; 'I' for Inactive)
REMARK    1  A    between atoms: C_4  and  C_7
REMARK    2  A    between atoms: C_9  and  O_19
REMARK    3  A    between atoms: N_10  and  C_12
REMARK    4  A    between atoms: O_19  and  C_20
REMARK    5  A    between atoms: C_21  and  N_27
REMARK                            x       y       z     vdW  Elec       q    Type
REMARK                         _______ _______ _______ _____ _____    ______ ____
ROOT
ATOM      1  C   UNL     1       3.694  -0.719   0.084  0.00  0.00    +0.097 A 
ATOM      2  C   UNL     1       3.874  -2.085  -0.211  0.00  0.00    +0.097 A 
ATOM      3  C   UNL     1       5.208  -2.322  -0.278  0.00  0.00    +0.226 A 
ATOM      4  N   UNL     1       5.851  -1.147  -0.034  0.00  0.00    -0.199 N 
ATOM      5  N   UNL     1       4.881  -0.161   0.183  0.00  0.00    -0.163 NA
ENDROOT
BRANCH   4   6
ATOM      6  C   UNL     1       7.239  -0.958  -0.010  0.00  0.00    +0.070 A 
ATOM      7  C   UNL     1       8.061  -1.909   0.581  0.00  0.00    +0.028 A 
ATOM      8  C   UNL     1       9.429  -1.720   0.604  0.00  0.00    +0.003 A 
ATOM      9  C   UNL     1       9.981  -0.585   0.038  0.00  0.00    +0.020 A 
ATOM     10  C   UNL     1       9.165   0.365  -0.552  0.00  0.00    +0.043 A 
ATOM     11  C   UNL     1       7.796   0.178  -0.582  0.00  0.00    +0.048 A 
ATOM     12 CL   UNL     1       9.863   1.788  -1.260  0.00  0.00    -0.083 Cl
ENDBRANCH   4   6
BRANCH   1  16
ATOM     13  C   UNL     1      -0.041   1.259   0.553  0.00  0.00    +0.000 A 
ATOM     14  C   UNL     1       1.137   1.971   0.685  0.00  0.00    +0.001 A 
ATOM     15  C   UNL     1       2.352   1.334   0.534  0.00  0.00    +0.010 A 
ATOM     16  C   UNL     1       2.390  -0.029   0.248  0.00  0.00    +0.002 A 
ATOM     17  C   UNL     1       1.200  -0.742   0.116  0.00  0.00    +0.010 A 
ATOM     18  C   UNL     1      -0.009  -0.094   0.269  0.00  0.00    +0.001 A 
ENDBRANCH   1  16
BRANCH   3  19
ATOM     19  O   UNL     1       5.797  -3.517  -0.540  0.00  0.00    -0.418 OA
BRANCH  19  20
ATOM     20  C   UNL     1       5.001  -4.612  -0.633  0.00  0.00    +0.248 A 
ATOM     21  C   UNL     1       5.559  -5.885  -0.793  0.00  0.00    +0.125 A 
ATOM     22  C   UNL     1       4.699  -6.972  -0.882  0.00  0.00    +0.157 A 
ATOM     23  N   UNL     1       3.391  -6.767  -0.812  0.00  0.00    -0.222 NA
ATOM     24  C   UNL     1       2.902  -5.553  -0.661  0.00  0.00    +0.226 A 
ATOM     25  N   UNL     1       3.681  -4.493  -0.567  0.00  0.00    -0.199 NA
ATOM     26 CL   UNL     1       5.329  -8.578  -1.081  0.00  0.00    -0.060 Cl
BRANCH  21  27
ATOM     27  N   UNL     1       6.948  -6.058  -0.862  0.00  0.00    -0.351 N 
ATOM     28  H   UNL     1       7.536  -5.289  -0.798  0.00  0.00    +0.143 HD
ATOM     29  H   UNL     1       7.321  -6.946  -0.973  0.00  0.00    +0.143 HD
ENDBRANCH  21  27
ENDBRANCH  19  20
ENDBRANCH   3  19
TORSDOF 5
