REMARK  Name = ZINC00222197
REMARK  4 active torsions:
REMARK  status: ('A' for Active; 'I' for Inactive)
REMARK    1  A    between atoms: C_1  and  O_2
REMARK    2  A    between atoms: O_2  and  C_3
REMARK    3  A    between atoms: C_6  and  C_9
REMARK    4  A    between atoms: C_12  and  C_20
REMARK                            x       y       z     vdW  Elec       q    Type
REMARK                         _______ _______ _______ _____ _____    ______ ____
ROOT
ATOM      1  C   UNL     1      -4.981  -2.629   0.035  0.00  0.00    +0.143 C 
ATOM      2  C   UNL     1      -5.087  -3.514   1.283  0.00  0.00    +0.058 C 
ATOM      3  C   UNL     1      -6.308  -4.434   1.163  0.00  0.00    +0.106 C 
ATOM      4  N   UNL     1      -6.117  -5.320  -0.002  0.00  0.00    -0.307 N 
ATOM      5  C   UNL     1      -5.626  -4.721  -1.155  0.00  0.00    +0.215 A 
ATOM      6  N   UNL     1      -5.100  -3.471  -1.155  0.00  0.00    -0.226 N 
ATOM      7  N   UNL     1      -4.720  -3.198  -2.470  0.00  0.00    -0.156 NA
ATOM      8  C   UNL     1      -5.024  -4.256  -3.179  0.00  0.00    +0.247 A 
ATOM      9  N   UNL     1      -5.571  -5.182  -2.375  0.00  0.00    -0.202 NA
ATOM     10  H   UNL     1      -6.323  -6.267   0.035  0.00  0.00    +0.149 HD
ENDROOT
BRANCH   3  11
ATOM     11  C   UNL     1      -6.443  -5.261   2.415  0.00  0.00    -0.027 A 
ATOM     12  C   UNL     1      -5.654  -6.383   2.591  0.00  0.00    +0.007 A 
ATOM     13  C   UNL     1      -5.777  -7.142   3.739  0.00  0.00    +0.020 A 
ATOM     14  C   UNL     1      -6.691  -6.779   4.713  0.00  0.00    +0.041 A 
ATOM     15  C   UNL     1      -7.480  -5.657   4.537  0.00  0.00    +0.020 A 
ATOM     16  C   UNL     1      -7.352  -4.896   3.390  0.00  0.00    +0.007 A 
ATOM     17 CL   UNL     1      -6.847  -7.733   6.155  0.00  0.00    -0.084 Cl
ENDBRANCH   3  11
BRANCH   1  21
ATOM     18  C   UNL     1      -1.200  -0.637   0.010  0.00  0.00    +0.120 A 
ATOM     19  C   UNL     1      -2.375   0.101   0.019  0.00  0.00    +0.046 A 
ATOM     20  C   UNL     1      -3.596  -0.545   0.027  0.00  0.00    +0.009 A 
ATOM     21  C   UNL     1      -3.648  -1.927   0.026  0.00  0.00    -0.023 A 
ATOM     22  C   UNL     1      -2.479  -2.665   0.017  0.00  0.00    +0.009 A 
ATOM     23  C   UNL     1      -1.255  -2.024   0.003  0.00  0.00    +0.046 A 
BRANCH  18  25
ATOM     24  C   UNL     1      -0.017   1.425   0.010  0.00  0.00    +0.277 C 
ATOM     25  O   UNL     1       0.002  -0.004   0.002  0.00  0.00    -0.495 OA
ENDBRANCH  18  25
ENDBRANCH   1  21
TORSDOF 3
