REMARK  Name = ZINC21345251
REMARK  2 active torsions:
REMARK  status: ('A' for Active; 'I' for Inactive)
REMARK    1  A    between atoms: C_8  and  N_10
REMARK    2  A    between atoms: C_18  and  C_23
REMARK                            x       y       z     vdW  Elec       q    Type
REMARK                         _______ _______ _______ _____ _____    ______ ____
ROOT
ATOM      1  N   UNL     1      -1.099  -0.544   0.803  0.00  0.00    -0.310 N 
ATOM      2  C   UNL     1      -1.588  -1.806   0.541  0.00  0.00    +0.216 A 
ATOM      3  N   UNL     1      -1.045  -2.511  -0.444  0.00  0.00    -0.222 NA
ATOM      4  C   UNL     1      -1.486  -3.723  -0.728  0.00  0.00    +0.127 A 
ATOM      5  C   UNL     1      -2.539  -4.249   0.032  0.00  0.00    +0.057 A 
ATOM      6  C   UNL     1      -3.084  -3.477   1.063  0.00  0.00    +0.057 A 
ATOM      7  N   UNL     1      -2.582  -2.275   1.284  0.00  0.00    -0.219 NA
ATOM      8  C   UNL     1      -4.210  -3.987   1.918  0.00  0.00    +0.068 C 
ATOM      9  C   UNL     1      -4.986  -5.092   1.205  0.00  0.00    +0.068 C 
ATOM     10  C   UNL     1      -4.017  -6.197   0.765  0.00  0.00    +0.091 C 
ATOM     11  C   UNL     1      -3.068  -5.591  -0.250  0.00  0.00    +0.167 C 
ATOM     12  O   UNL     1      -2.756  -6.192  -1.256  0.00  0.00    -0.292 OA
ATOM     13  H   UNL     1      -1.535   0.057   1.615  0.00  0.00    +0.149 HD
ENDROOT
BRANCH   1  21
ATOM     14  C   UNL     1       3.391   3.321  -0.252  0.00  0.00    +0.000 A 
ATOM     15  C   UNL     1       4.186   2.253   0.119  0.00  0.00    +0.000 A 
ATOM     16  C   UNL     1       3.606   1.038   0.429  0.00  0.00    +0.004 A 
ATOM     17  C   UNL     1       2.231   0.887   0.370  0.00  0.00    -0.042 A 
ATOM     18  C   UNL     1       1.437   1.955  -0.001  0.00  0.00    -0.042 A 
ATOM     19  C   UNL     1       2.019   3.172  -0.312  0.00  0.00    +0.004 A 
ATOM     20  C   UNL     1      -0.019   1.539   0.011  0.00  0.00    +0.058 C 
ATOM     21  C   UNL     1       0.002  -0.004   0.002  0.00  0.00    +0.082 C 
ATOM     22  C   UNL     1       1.364  -0.320   0.656  0.00  0.00    +0.058 C 
ENDBRANCH   1  21
BRANCH   9  23
ATOM     23  C   UNL     1      -6.014  -5.669   2.143  0.00  0.00    +0.109 A 
ATOM     24  C   UNL     1      -7.345  -5.674   1.946  0.00  0.00    +0.045 A 
ATOM     25  C   UNL     1      -7.923  -6.314   3.067  0.00  0.00    +0.041 A 
ATOM     26  C   UNL     1      -6.911  -6.655   3.885  0.00  0.00    +0.195 A 
ATOM     27  O   UNL     1      -5.757  -6.262   3.321  0.00  0.00    -0.468 OA
ENDBRANCH   9  23
TORSDOF 2
