REMARK  Name = ZINC04931640
REMARK  6 active torsions:
REMARK  status: ('A' for Active; 'I' for Inactive)
REMARK    1  A    between atoms: C_1  and  C_2
REMARK    2  A    between atoms: C_5  and  C_8
REMARK    3  A    between atoms: C_8  and  N_9
REMARK    4  A    between atoms: C_18  and  C_19
REMARK    5  A    between atoms: N_21  and  C_22
REMARK    6  A    between atoms: C_28  and  C_30
REMARK                            x       y       z     vdW  Elec       q    Type
REMARK                         _______ _______ _______ _____ _____    ______ ____
ROOT
ATOM      1  N   UNL     1      -2.493   3.761   0.035  0.00  0.00    -0.262 N 
ATOM      2  C   UNL     1      -1.250   3.146   0.045  0.00  0.00    +0.051 A 
ATOM      3  C   UNL     1      -1.208   1.750   0.046  0.00  0.00    +0.024 A 
ATOM      4  C   UNL     1      -0.001   1.087   0.051  0.00  0.00    +0.002 A 
ATOM      5  C   UNL     1       1.188   1.796   0.045  0.00  0.00    +0.001 A 
ATOM      6  C   UNL     1       1.165   3.176   0.041  0.00  0.00    +0.017 A 
ATOM      7  C   UNL     1      -0.049   3.854   0.043  0.00  0.00    +0.034 A 
ATOM      8  S   UNL     1      -0.052   5.620   0.048  0.00  0.00    -0.082 S 
ATOM      9  C   UNL     1      -1.593   5.885  -0.780  0.00  0.00    +0.080 C 
ATOM     10  C   UNL     1      -1.732   6.851  -1.730  0.00  0.00    +0.087 C 
ATOM     11  C   UNL     1      -2.729   5.007  -0.394  0.00  0.00    +0.258 C 
ATOM     12  O   UNL     1      -3.870   5.420  -0.468  0.00  0.00    -0.269 OA
ENDROOT
BRANCH  10  13
ATOM     13  C   UNL     1      -0.630   7.669  -2.074  0.00  0.00    +0.238 C 
ATOM     14  O   UNL     1       0.443   7.510  -1.520  0.00  0.00    -0.271 OA
ATOM     15  N   UNL     1      -0.767   8.626  -3.014  0.00  0.00    -0.309 N 
ATOM     16  H   UNL     1      -1.622   8.753  -3.454  0.00  0.00    +0.149 HD
BRANCH  15  17
ATOM     17  C   UNL     1       0.374   9.473  -3.370  0.00  0.00    +0.076 C 
ATOM     18  C   UNL     1       1.225   8.764  -4.425  0.00  0.00    +0.022 C 
ATOM     19  C   UNL     1       2.417   9.649  -4.796  0.00  0.00    +0.002 C 
ATOM     20  C   UNL     1       1.909  10.978  -5.359  0.00  0.00    +0.000 C 
ATOM     21  C   UNL     1       1.058  11.687  -4.304  0.00  0.00    +0.005 C 
ATOM     22  C   UNL     1      -0.134  10.802  -3.932  0.00  0.00    +0.006 C 
ATOM     23  C   UNL     1      -0.986  11.510  -2.877  0.00  0.00    +0.009 C 
ENDBRANCH  15  17
ENDBRANCH  10  13
BRANCH   1  24
ATOM     24  C   UNL     1      -3.634   2.989   0.532  0.00  0.00    +0.149 C 
BRANCH  24  29
ATOM     25  C   UNL     1      -3.911   3.443   6.286  0.00  0.00    +0.044 C 
ATOM     26  C   UNL     1      -3.839   3.324   4.786  0.00  0.00    -0.050 A 
ATOM     27  C   UNL     1      -4.505   4.235   3.988  0.00  0.00    +0.003 A 
ATOM     28  C   UNL     1      -4.439   4.127   2.611  0.00  0.00    +0.005 A 
ATOM     29  C   UNL     1      -3.706   3.107   2.033  0.00  0.00    -0.030 A 
ATOM     30  C   UNL     1      -3.043   2.194   2.831  0.00  0.00    +0.005 A 
ATOM     31  C   UNL     1      -3.106   2.305   4.207  0.00  0.00    +0.003 A 
ENDBRANCH  24  29
ENDBRANCH   1  24
TORSDOF 4
