REMARK  Name = ZINC28056256
REMARK  4 active torsions:
REMARK  status: ('A' for Active; 'I' for Inactive)
REMARK    1  A    between atoms: C_1  and  O_2
REMARK    2  A    between atoms: O_2  and  C_3
REMARK    3  A    between atoms: C_7  and  C_9
REMARK    4  A    between atoms: C_26  and  C_28
REMARK                            x       y       z     vdW  Elec       q    Type
REMARK                         _______ _______ _______ _____ _____    ______ ____
ROOT
ATOM      1  C   UNL     1      -0.065   5.351   0.032  0.00  0.00    +0.234 C 
ATOM      2  C   UNL     1       0.054   5.843   1.456  0.00  0.00    +0.025 C 
ATOM      3  C   UNL     1       1.266   6.037   1.979  0.00  0.00    +0.050 C 
ATOM      4  C   UNL     1       2.451   5.770   1.130  0.00  0.00    +0.038 A 
ATOM      5  C   UNL     1       3.718   5.612   1.678  0.00  0.00    +0.013 A 
ATOM      6  C   UNL     1       4.794   5.370   0.847  0.00  0.00    +0.001 A 
ATOM      7  C   UNL     1       4.614   5.285  -0.523  0.00  0.00    +0.004 A 
ATOM      8  C   UNL     1       3.355   5.439  -1.077  0.00  0.00    +0.046 A 
ATOM      9  C   UNL     1       2.269   5.681  -0.257  0.00  0.00    +0.131 A 
ATOM     10  O   UNL     1       1.018   5.837  -0.760  0.00  0.00    -0.479 OA
ATOM     11  N   UNL     1       1.451   6.489   3.291  0.00  0.00    -0.282 N 
ATOM     12  C   UNL     1       0.345   7.006   3.945  0.00  0.00    +0.240 A 
ATOM     13  N   UNL     1       0.242   7.698   5.043  0.00  0.00    -0.092 NA
ATOM     14  N   UNL     1      -0.994   7.980   5.279  0.00  0.00    -0.021 NA
ATOM     15  N   UNL     1      -1.753   7.487   4.354  0.00  0.00    -0.042 NA
ATOM     16  N   UNL     1      -0.911   6.832   3.456  0.00  0.00    -0.201 N 
ATOM     17  C   UNL     1      -1.213   6.093   2.239  0.00  0.00    +0.174 C 
ATOM     18  H   UNL     1       2.444   6.426   3.760  0.00  0.00    +0.155 HD
ENDROOT
BRANCH  17  19
ATOM     19  C   UNL     1      -1.843   4.772   2.600  0.00  0.00    -0.016 A 
ATOM     20  C   UNL     1      -3.115   4.468   2.150  0.00  0.00    +0.006 A 
ATOM     21  C   UNL     1      -3.694   3.257   2.479  0.00  0.00    +0.003 A 
ATOM     22  C   UNL     1      -3.002   2.349   3.259  0.00  0.00    +0.038 A 
ATOM     23  C   UNL     1      -1.729   2.653   3.711  0.00  0.00    +0.124 A 
ATOM     24  C   UNL     1      -1.148   3.864   3.375  0.00  0.00    +0.044 A 
ATOM     25  F   UNL     1      -1.053   1.766   4.473  0.00  0.00    -0.205 F 
ENDBRANCH  17  19
BRANCH   1  30
ATOM     26  C   UNL     1      -1.202   1.755  -0.212  0.00  0.00    +0.120 A 
ATOM     27  C   UNL     1      -0.013   1.076   0.009  0.00  0.00    +0.045 A 
ATOM     28  C   UNL     1       1.154   1.782   0.231  0.00  0.00    +0.004 A 
ATOM     29  C   UNL     1       1.136   3.164   0.237  0.00  0.00    +0.008 A 
ATOM     30  C   UNL     1      -0.049   3.844   0.023  0.00  0.00    +0.000 A 
ATOM     31  C   UNL     1      -1.219   3.142  -0.198  0.00  0.00    +0.053 A 
BRANCH  26  33
ATOM     32  C   UNL     1      -2.259  -0.363  -0.429  0.00  0.00    +0.277 C 
ATOM     33  O   UNL     1      -2.350   1.063  -0.435  0.00  0.00    -0.495 OA
ENDBRANCH  26  33
ENDBRANCH   1  30
TORSDOF 3
