REMARK  Name = ZINC09086541
REMARK  12 active torsions:
REMARK  status: ('A' for Active; 'I' for Inactive)
REMARK    1  A    between atoms: C_1  and  C_2
REMARK    2  A    between atoms: C_2  and  O_3
REMARK    3  A    between atoms: O_3  and  C_4
REMARK    4  A    between atoms: C_7  and  N_10
REMARK    5  A    between atoms: C_11  and  C_30
REMARK    6  A    between atoms: C_14  and  S_15
REMARK    7  A    between atoms: S_15  and  C_16
REMARK    8  A    between atoms: C_16  and  C_17
REMARK    9  A    between atoms: N_19  and  N_20
REMARK   10  A    between atoms: C_21  and  C_22
REMARK   11  A    between atoms: C_21  and  C_23
REMARK   12  A    between atoms: C_28  and  O_29
REMARK                            x       y       z     vdW  Elec       q    Type
REMARK                         _______ _______ _______ _____ _____    ______ ____
ROOT
ATOM      1  N   UNL     1       0.558  -6.489   1.663  0.00  0.00    -0.270 N 
ATOM      2  C   UNL     1       0.125  -7.323   2.670  0.00  0.00    +0.169 A 
ATOM      3  N   UNL     1       0.583  -8.524   2.398  0.00  0.00    -0.128 NA
ATOM      4  N   UNL     1       1.262  -8.500   1.308  0.00  0.00    -0.122 NA
ATOM      5  C   UNL     1       1.277  -7.283   0.811  0.00  0.00    +0.197 A 
ENDROOT
BRANCH   1   9
ATOM      6  C   UNL     1      -0.182  -2.401   1.282  0.00  0.00    +0.121 A 
ATOM      7  C   UNL     1      -0.757  -3.296   0.391  0.00  0.00    +0.047 A 
ATOM      8  C   UNL     1      -0.512  -4.649   0.517  0.00  0.00    +0.030 A 
ATOM      9  C   UNL     1       0.310  -5.114   1.534  0.00  0.00    +0.051 A 
ATOM     10  C   UNL     1       0.885  -4.218   2.425  0.00  0.00    +0.030 A 
ATOM     11  C   UNL     1       0.644  -2.865   2.295  0.00  0.00    +0.047 A 
BRANCH   6  12
ATOM     12  O   UNL     1      -0.424  -1.069   1.157  0.00  0.00    -0.492 OA
BRANCH  12  14
ATOM     13  C   UNL     1      -1.436   0.860   0.111  0.00  0.00    +0.048 C 
ATOM     14  C   UNL     1      -1.284  -0.662   0.091  0.00  0.00    +0.225 C 
ENDBRANCH  12  14
ENDBRANCH   6  12
ENDBRANCH   1   9
BRANCH   2  15
ATOM     15  C   UNL     1      -0.699  -6.940   3.835  0.00  0.00    +0.020 A 
ATOM     16  C   UNL     1      -1.426  -5.749   3.818  0.00  0.00    +0.011 A 
ATOM     17  C   UNL     1      -2.194  -5.397   4.909  0.00  0.00    +0.001 A 
ATOM     18  C   UNL     1      -2.242  -6.221   6.019  0.00  0.00    +0.000 A 
ATOM     19  C   UNL     1      -1.523  -7.402   6.043  0.00  0.00    +0.001 A 
ATOM     20  C   UNL     1      -0.757  -7.769   4.956  0.00  0.00    +0.011 A 
ENDBRANCH   2  15
BRANCH   5  21
ATOM     21  S   UNL     1       2.076  -6.769  -0.673  0.00  0.00    -0.076 S 
BRANCH  21  22
ATOM     22  C   UNL     1       2.835  -8.288  -1.311  0.00  0.00    +0.174 C 
BRANCH  22  23
ATOM     23  C   UNL     1       3.561  -7.984  -2.596  0.00  0.00    +0.242 C 
ATOM     24  O   UNL     1       3.566  -6.855  -3.038  0.00  0.00    -0.273 OA
ATOM     25  N   UNL     1       4.205  -8.969  -3.255  0.00  0.00    -0.206 N 
ATOM     26  H   UNL     1       4.201  -9.872  -2.902  0.00  0.00    +0.177 HD
BRANCH  25  27
ATOM     27  N   UNL     1       4.880  -8.687  -4.450  0.00  0.00    -0.184 NA
ATOM     28  C   UNL     1       5.430  -9.648  -5.127  0.00  0.00    +0.067 C 
ATOM     29  C   UNL     1       6.094  -9.355  -6.447  0.00  0.00    +0.068 C 
BRANCH  28  30
ATOM     30  C   UNL     1       5.404 -11.026  -4.604  0.00  0.00    +0.039 A 
ATOM     31  C   UNL     1       4.189 -11.701  -4.464  0.00  0.00    +0.013 A 
ATOM     32  C   UNL     1       4.172 -12.990  -3.975  0.00  0.00    +0.001 A 
ATOM     33  C   UNL     1       5.354 -13.619  -3.622  0.00  0.00    +0.004 A 
ATOM     34  C   UNL     1       6.563 -12.961  -3.755  0.00  0.00    +0.046 A 
ATOM     35  C   UNL     1       6.598 -11.668  -4.250  0.00  0.00    +0.126 A 
BRANCH  35  36
ATOM     36  O   UNL     1       7.786 -11.023  -4.387  0.00  0.00    -0.506 OA
ATOM     37  H   UNL     1       8.091 -10.586  -3.580  0.00  0.00    +0.292 HD
ENDBRANCH  35  36
ENDBRANCH  28  30
ENDBRANCH  25  27
ENDBRANCH  22  23
ENDBRANCH  21  22
ENDBRANCH   5  21
TORSDOF 10
