REMARK  Name = ZINC04684046
REMARK  4 active torsions:
REMARK  status: ('A' for Active; 'I' for Inactive)
REMARK    1  A    between atoms: C_1  and  C_2
REMARK    2  A    between atoms: N_5  and  C_8
REMARK    3  A    between atoms: C_11  and  N_17
REMARK    4  A    between atoms: C_13  and  N_14
REMARK                            x       y       z     vdW  Elec       q    Type
REMARK                         _______ _______ _______ _____ _____    ______ ____
ROOT
ATOM      1  C   UNL     1       2.344  -3.438  -0.040  0.00  0.00    +0.060 A 
ATOM      2  C   UNL     1       3.656  -2.981  -0.045  0.00  0.00    +0.027 A 
ATOM      3  C   UNL     1       4.700  -3.883  -0.061  0.00  0.00    +0.026 A 
ATOM      4  C   UNL     1       4.440  -5.247  -0.072  0.00  0.00    +0.046 A 
ATOM      5  C   UNL     1       3.130  -5.704  -0.066  0.00  0.00    +0.058 A 
ATOM      6  C   UNL     1       2.084  -4.802  -0.045  0.00  0.00    +0.149 A 
ENDROOT
BRANCH   4   7
ATOM      7  N   UNL     1       5.503  -6.164  -0.088  0.00  0.00    -0.210 N 
ATOM      8  C   UNL     1       5.325  -7.510  -0.105  0.00  0.00    +0.230 C 
ATOM      9  O   UNL     1       4.290  -8.105  -0.317  0.00  0.00    -0.274 OA
ATOM     10  C   UNL     1       6.664  -8.114   0.190  0.00  0.00    +0.092 C 
ATOM     11  C   UNL     1       7.027  -9.420  -0.485  0.00  0.00    +0.040 C 
ATOM     12  C   UNL     1       8.518  -9.612  -0.300  0.00  0.00    -0.030 C 
ATOM     13  C   UNL     1       9.345  -8.662   0.015  0.00  0.00    -0.030 C 
ATOM     14  C   UNL     1       8.948  -7.215   0.219  0.00  0.00    +0.040 C 
ATOM     15  C   UNL     1       7.597  -7.022  -0.419  0.00  0.00    +0.092 C 
ATOM     16  C   UNL     1       6.809  -5.790  -0.095  0.00  0.00    +0.230 C 
ATOM     17  O   UNL     1       7.250  -4.682   0.120  0.00  0.00    -0.274 OA
ENDBRANCH   4   7
BRANCH   1  22
ATOM     18  C   UNL     1      -0.019   1.526   0.010  0.00  0.00    +0.007 C 
ATOM     19  C   UNL     1       0.002  -0.004   0.002  0.00  0.00    -0.011 C 
ATOM     20  C   UNL     1       0.717  -0.497  -1.258  0.00  0.00    +0.022 C 
ATOM     21  C   UNL     1       0.705  -2.029  -1.280  0.00  0.00    +0.105 C 
ATOM     22  N   UNL     1       1.285  -2.525  -0.025  0.00  0.00    -0.328 N 
ATOM     23  C   UNL     1       0.731  -2.043   1.248  0.00  0.00    +0.105 C 
ATOM     24  C   UNL     1       0.742  -0.511   1.242  0.00  0.00    +0.022 C 
ENDBRANCH   1  22
BRANCH   6  25
ATOM     25  N   UNL     1       0.686  -5.290  -0.033  0.00  0.00    +0.058 N 
ATOM     26  O   UNL     1       0.460  -6.478  -0.037  0.00  0.00    -0.126 OA
ATOM     27  O   UNL     1      -0.229  -4.500  -0.019  0.00  0.00    -0.126 OA
ENDBRANCH   6  25
TORSDOF 3
