REMARK  Name = ZINC63514270
REMARK  7 active torsions:
REMARK  status: ('A' for Active; 'I' for Inactive)
REMARK    1  A    between atoms: C_1  and  C_2
REMARK    2  A    between atoms: C_4  and  C_12
REMARK    3  A    between atoms: C_12  and  C_13
REMARK    4  A    between atoms: C_13  and  N_14
REMARK    5  A    between atoms: C_15  and  C_17
REMARK    6  A    between atoms: N_22  and  S_23
REMARK    7  A    between atoms: S_23  and  C_26
REMARK                            x       y       z     vdW  Elec       q    Type
REMARK                         _______ _______ _______ _____ _____    ______ ____
ROOT
ATOM      1  N   UNL     1       0.998  -0.729  -4.977  0.00  0.00    -0.314 N 
ATOM      2  C   UNL     1       1.751  -1.249  -5.967  0.00  0.00    +0.232 C 
ATOM      3  O   UNL     1       2.732  -1.910  -5.699  0.00  0.00    -0.274 OA
ATOM      4  H   UNL     1       0.214  -0.200  -5.192  0.00  0.00    +0.149 HD
ENDROOT
BRANCH   2   5
ATOM      5  C   UNL     1       1.375  -1.008  -7.406  0.00  0.00    +0.165 C 
ATOM      6  C   UNL     1       1.418   0.503  -7.714  0.00  0.00    +0.031 C 
ATOM      7  C   UNL     1       2.817   0.687  -8.360  0.00  0.00    +0.019 C 
ATOM      8  C   UNL     1       2.970  -0.637  -9.150  0.00  0.00    +0.110 C 
ATOM      9  N   UNL     1       2.346  -1.666  -8.293  0.00  0.00    -0.165 NA
BRANCH   9  10
ATOM     10  S   UNL     1       2.682  -3.287  -8.323  0.00  0.00    +0.062 S 
ATOM     11  O   UNL     1       3.990  -3.420  -8.862  0.00  0.00    -0.153 OA
ATOM     12  O   UNL     1       2.330  -3.799  -7.045  0.00  0.00    -0.153 OA
BRANCH  10  13
ATOM     13  C   UNL     1       1.581  -4.026  -9.483  0.00  0.00    +0.106 A 
ATOM     14  C   UNL     1       0.349  -4.493  -9.066  0.00  0.00    +0.028 A 
ATOM     15  C   UNL     1      -0.515  -5.073  -9.976  0.00  0.00    +0.002 A 
ATOM     16  C   UNL     1      -0.146  -5.186 -11.303  0.00  0.00    +0.000 A 
ATOM     17  C   UNL     1       1.086  -4.719 -11.721  0.00  0.00    +0.002 A 
ATOM     18  C   UNL     1       1.948  -4.135 -10.812  0.00  0.00    +0.028 A 
ENDBRANCH  10  13
ENDBRANCH   9  10
ENDBRANCH   2   5
BRANCH   1  19
ATOM     19  C   UNL     1       1.364  -0.963  -3.578  0.00  0.00    +0.108 C 
BRANCH  19  20
ATOM     20  C   UNL     1       0.353  -0.268  -2.664  0.00  0.00    +0.052 C 
BRANCH  20  23
ATOM     21  C   UNL     1      -0.019   1.526   0.010  0.00  0.00    +0.035 C 
ATOM     22  C   UNL     1       0.002  -0.004   0.002  0.00  0.00    +0.103 C 
ATOM     23  C   UNL     1       0.729  -0.509  -1.224  0.00  0.00    -0.037 C 
ATOM     24  C   UNL     1       1.785  -1.220  -0.768  0.00  0.00    -0.001 A 
ATOM     25  C   UNL     1       2.858  -1.954  -1.449  0.00  0.00    +0.010 A 
ATOM     26  C   UNL     1       3.797  -2.583  -0.705  0.00  0.00    +0.001 A 
ATOM     27  C   UNL     1       3.770  -2.551   0.696  0.00  0.00    +0.002 A 
ATOM     28  C   UNL     1       2.817  -1.897   1.393  0.00  0.00    +0.026 A 
ATOM     29  C   UNL     1       1.780  -1.201   0.712  0.00  0.00    +0.043 A 
ATOM     30  N   UNL     1       0.758  -0.506   1.155  0.00  0.00    -0.378 N 
ATOM     31  H   UNL     1       0.540  -0.349   2.087  0.00  0.00    +0.160 HD
ENDBRANCH  20  23
ENDBRANCH  19  20
ENDBRANCH   1  19
TORSDOF 6
