REMARK  Name = ZINC59115605
REMARK  11 active torsions:
REMARK  status: ('A' for Active; 'I' for Inactive)
REMARK    1  A    between atoms: C_1  and  C_2
REMARK    2  A    between atoms: C_5  and  N_9
REMARK    3  A    between atoms: C_6  and  C_8
REMARK    4  A    between atoms: N_9  and  C_10
REMARK    5  A    between atoms: C_10  and  N_12
REMARK    6  A    between atoms: N_15  and  C_20
REMARK    7  A    between atoms: C_16  and  C_19
REMARK    8  A    between atoms: C_20  and  N_22
REMARK    9  A    between atoms: N_22  and  C_23
REMARK   10  A    between atoms: C_26  and  C_30
REMARK   11  A    between atoms: C_28  and  C_29
REMARK                            x       y       z     vdW  Elec       q    Type
REMARK                         _______ _______ _______ _____ _____    ______ ____
ROOT
ATOM      1  N   UNL     1      -0.217  -6.021  -1.315  0.00  0.00    -0.309 N 
ATOM      2  C   UNL     1      -0.511  -6.728  -0.060  0.00  0.00    +0.126 C 
ATOM      3  C   UNL     1       0.529  -7.838   0.133  0.00  0.00    +0.126 C 
ATOM      4  N   UNL     1       0.623  -8.614  -1.112  0.00  0.00    -0.307 N 
ATOM      5  C   UNL     1       0.917  -7.908  -2.367  0.00  0.00    +0.089 C 
ATOM      6  C   UNL     1      -0.128  -6.797  -2.560  0.00  0.00    +0.129 C 
ATOM      7  C   UNL     1       0.848  -8.890  -3.538  0.00  0.00    +0.029 C 
ENDROOT
BRANCH   1   8
ATOM      8  C   UNL     1      -0.038  -4.686  -1.324  0.00  0.00    +0.137 C 
ATOM      9  S   UNL     1       0.164  -3.859  -2.809  0.00  0.00    -0.018 S 
BRANCH   8  10
ATOM     10  N   UNL     1      -0.017  -4.001  -0.163  0.00  0.00    -0.297 N 
ATOM     11  H   UNL     1      -0.064  -4.476   0.681  0.00  0.00    +0.154 HD
BRANCH  10  16
ATOM     12  C   UNL     1       0.340   1.661  -0.219  0.00  0.00    +0.044 C 
ATOM     13  C   UNL     1       0.245   0.157  -0.204  0.00  0.00    -0.050 A 
ATOM     14  C   UNL     1       1.088  -0.596  -1.002  0.00  0.00    +0.005 A 
ATOM     15  C   UNL     1       1.004  -1.974  -0.990  0.00  0.00    +0.024 A 
ATOM     16  C   UNL     1       0.071  -2.604  -0.177  0.00  0.00    +0.036 A 
ATOM     17  C   UNL     1      -0.774  -1.846   0.623  0.00  0.00    -0.029 A 
ATOM     18  C   UNL     1      -0.681  -0.468   0.611  0.00  0.00    +0.008 A 
ATOM     19  C   UNL     1      -1.788  -2.526   1.507  0.00  0.00    +0.045 C 
ENDBRANCH  10  16
ENDBRANCH   8  10
ENDBRANCH   1   8
BRANCH   4  20
ATOM     20  C   UNL     1       0.444  -9.950  -1.103  0.00  0.00    +0.137 C 
ATOM     21  S   UNL     1       0.405 -10.819  -2.578  0.00  0.00    -0.018 S 
BRANCH  20  22
ATOM     22  N   UNL     1       0.295 -10.602   0.067  0.00  0.00    -0.297 N 
ATOM     23  H   UNL     1      -0.572 -10.957   0.318  0.00  0.00    +0.154 HD
BRANCH  22  24
ATOM     24  C   UNL     1       1.391 -10.768   0.920  0.00  0.00    +0.036 A 
ATOM     25  C   UNL     1       2.611 -10.181   0.607  0.00  0.00    +0.024 A 
ATOM     26  C   UNL     1       3.692 -10.346   1.451  0.00  0.00    +0.005 A 
ATOM     27  C   UNL     1       3.560 -11.095   2.607  0.00  0.00    -0.050 A 
ATOM     28  C   UNL     1       2.347 -11.679   2.921  0.00  0.00    +0.008 A 
ATOM     29  C   UNL     1       1.261 -11.513   2.084  0.00  0.00    -0.029 A 
ATOM     30  C   UNL     1      -0.062 -12.146   2.430  0.00  0.00    +0.045 C 
ATOM     31  C   UNL     1       4.741 -11.273   3.526  0.00  0.00    +0.044 C 
ENDBRANCH  22  24
ENDBRANCH  20  22
ENDBRANCH   4  20
TORSDOF 6
