REMARK  Name = ZINC39660373
REMARK  10 active torsions:
REMARK  status: ('A' for Active; 'I' for Inactive)
REMARK    1  A    between atoms: C_1  and  C_2
REMARK    2  A    between atoms: C_2  and  C_3
REMARK    3  A    between atoms: C_3  and  C_4
REMARK    4  A    between atoms: C_4  and  C_5
REMARK    5  A    between atoms: C_5  and  C_6
REMARK    6  A    between atoms: C_6  and  N_7
REMARK    7  A    between atoms: C_8  and  C_10
REMARK    8  A    between atoms: C_21  and  C_23
REMARK    9  A    between atoms: C_25  and  O_30
REMARK   10  A    between atoms: O_30  and  C_31
REMARK                            x       y       z     vdW  Elec       q    Type
REMARK                         _______ _______ _______ _____ _____    ______ ____
ROOT
ATOM      1  C   UNL     1       3.643  -6.448  -5.323  0.00  0.00    +0.100 C 
ATOM      2  C   UNL     1       2.646  -6.022  -6.424  0.00  0.00    +0.121 C 
ATOM      3  N   UNL     1       2.582  -7.185  -7.341  0.00  0.00    -0.296 N 
ATOM      4  C   UNL     1       2.608  -8.364  -6.443  0.00  0.00    +0.115 C 
ATOM      5  C   UNL     1       3.615  -7.986  -5.338  0.00  0.00    -0.004 C 
ATOM      6  C   UNL     1       3.141  -8.519  -3.989  0.00  0.00    -0.010 C 
ATOM      7  C   UNL     1       3.177 -10.049  -4.008  0.00  0.00    -0.082 C 
ATOM      8  N   UNL     1       4.545 -10.505  -4.284  0.00  0.00    +0.379 N 
ATOM      9  C   UNL     1       4.958 -10.067  -5.623  0.00  0.00    -0.082 C 
ATOM     10  C   UNL     1       4.997  -8.537  -5.672  0.00  0.00    -0.010 C 
ATOM     11  C   UNL     1       2.514  -7.173  -8.687  0.00  0.00    +0.248 C 
ATOM     12  O   UNL     1       2.369  -8.214  -9.297  0.00  0.00    -0.270 OA
ATOM     13  H   UNL     1       5.172 -10.117  -3.596  0.00  0.00    -0.086 HD
ATOM     14  H   UNL     1       4.578 -11.512  -4.236  0.00  0.00    -0.086 HD
ENDROOT
BRANCH  11  15
ATOM     15  C   UNL     1       2.617  -5.894  -9.421  0.00  0.00    +0.054 A 
ATOM     16  C   UNL     1       2.059  -4.733  -8.886  0.00  0.00    +0.059 A 
ATOM     17  C   UNL     1       2.159  -3.539  -9.578  0.00  0.00    +0.121 A 
ATOM     18  C   UNL     1       2.815  -3.498 -10.802  0.00  0.00    +0.047 A 
ATOM     19  C   UNL     1       3.369  -4.646 -11.334  0.00  0.00    +0.019 A 
ATOM     20  C   UNL     1       3.279  -5.843 -10.649  0.00  0.00    +0.030 A 
ATOM     21 BR   UNL     1       4.046  -7.410 -11.378  0.00  0.00    -0.050 Br
BRANCH  17  22
ATOM     22  O   UNL     1       1.616  -2.406  -9.061  0.00  0.00    -0.495 OA
ATOM     23  C   UNL     1       1.757  -1.209  -9.829  0.00  0.00    +0.277 C 
ENDBRANCH  17  22
ENDBRANCH  11  15
BRANCH   1  25
ATOM     24  N   UNL     1       4.108  -5.653  -3.028  0.00  0.00    -0.315 N 
ATOM     25  C   UNL     1       3.196  -5.928  -3.981  0.00  0.00    +0.218 C 
ATOM     26  O   UNL     1       2.016  -5.757  -3.760  0.00  0.00    -0.275 OA
ATOM     27  H   UNL     1       5.052  -5.790  -3.205  0.00  0.00    +0.149 HD
BRANCH  24  28
ATOM     28  C   UNL     1       3.674  -5.147  -1.723  0.00  0.00    +0.104 C 
BRANCH  28  29
ATOM     29  C   UNL     1       4.896  -4.919  -0.832  0.00  0.00    +0.019 C 
BRANCH  29  30
ATOM     30  C   UNL     1       4.443  -4.391   0.530  0.00  0.00    +0.002 C 
BRANCH  30  31
ATOM     31  C   UNL     1       5.665  -4.162   1.422  0.00  0.00    -0.000 C 
BRANCH  31  33
ATOM     32  C   UNL     1       6.434  -3.405   3.675  0.00  0.00    +0.004 C 
ATOM     33  C   UNL     1       5.211  -3.634   2.784  0.00  0.00    -0.003 C 
ENDBRANCH  31  33
ENDBRANCH  30  31
ENDBRANCH  29  30
ENDBRANCH  28  29
ENDBRANCH  24  28
ENDBRANCH   1  25
TORSDOF 8
