REMARK  Name = ZINC05697756
REMARK  8 active torsions:
REMARK  status: ('A' for Active; 'I' for Inactive)
REMARK    1  A    between atoms: C_1  and  C_2
REMARK    2  A    between atoms: C_4  and  O_10
REMARK    3  A    between atoms: C_6  and  C_9
REMARK    4  A    between atoms: O_10  and  C_11
REMARK    5  A    between atoms: C_11  and  C_13
REMARK    6  A    between atoms: C_11  and  C_14
REMARK    7  A    between atoms: N_16  and  N_17
REMARK    8  A    between atoms: C_18  and  C_19
REMARK                            x       y       z     vdW  Elec       q    Type
REMARK                         _______ _______ _______ _____ _____    ______ ____
ROOT
ATOM      1  C   UNL     1       1.280   7.808  -0.131  0.00  0.00    +0.273 C 
ATOM      2  O   UNL     1       0.107   8.039   0.074  0.00  0.00    -0.270 OA
ATOM      3  N   UNL     1       1.695   6.539  -0.316  0.00  0.00    -0.204 N 
ATOM      4  H   UNL     1       2.633   6.354  -0.480  0.00  0.00    +0.177 HD
ENDROOT
BRANCH   1   5
ATOM      5  C   UNL     1       2.274   8.940  -0.180  0.00  0.00    +0.257 C 
ATOM      6  C   UNL     1       3.260   8.804   0.982  0.00  0.00    +0.062 C 
BRANCH   5   7
ATOM      7  O   UNL     1       1.582  10.186  -0.074  0.00  0.00    -0.480 OA
BRANCH   7  11
ATOM      8  C   UNL     1       5.500  12.178  -2.196  0.00  0.00    +0.045 C 
ATOM      9  C   UNL     1       4.101  12.288  -1.646  0.00  0.00    -0.028 A 
ATOM     10  C   UNL     1       3.481  11.177  -1.109  0.00  0.00    +0.050 A 
ATOM     11  C   UNL     1       2.194  11.278  -0.603  0.00  0.00    +0.122 A 
ATOM     12  C   UNL     1       1.529  12.496  -0.642  0.00  0.00    +0.050 A 
ATOM     13  C   UNL     1       2.155  13.606  -1.175  0.00  0.00    -0.028 A 
ATOM     14  C   UNL     1       3.439  13.502  -1.680  0.00  0.00    +0.047 A 
ATOM     15 CL   UNL     1       4.220  14.898  -2.355  0.00  0.00    -0.083 Cl
ATOM     16  C   UNL     1       1.435  14.930  -1.213  0.00  0.00    +0.045 C 
ENDBRANCH   7  11
ENDBRANCH   5   7
ENDBRANCH   1   5
BRANCH   3  17
ATOM     17  N   UNL     1       0.771   5.487  -0.270  0.00  0.00    -0.188 NA
ATOM     18  C   UNL     1       1.171   4.263  -0.448  0.00  0.00    +0.140 C 
BRANCH  18  19
ATOM     19  C   UNL     1       0.201   3.158  -0.400  0.00  0.00    +0.020 A 
ATOM     20  C   UNL     1       0.468   1.834  -0.566  0.00  0.00    +0.093 A 
ATOM     21  N   UNL     1      -0.685   1.116  -0.454  0.00  0.00    -0.360 N 
ATOM     22  H   UNL     1      -0.747   0.151  -0.535  0.00  0.00    +0.165 HD
ATOM     23  C   UNL     1      -1.751   1.957  -0.215  0.00  0.00    +0.047 A 
ATOM     24  C   UNL     1      -1.249   3.268  -0.164  0.00  0.00    +0.008 A 
ATOM     25  C   UNL     1      -2.112   4.337   0.071  0.00  0.00    +0.010 A 
ATOM     26  C   UNL     1      -3.456   4.100   0.258  0.00  0.00    +0.001 A 
ATOM     27  C   UNL     1      -3.952   2.804   0.214  0.00  0.00    +0.002 A 
ATOM     28  C   UNL     1      -3.111   1.738  -0.018  0.00  0.00    +0.026 A 
ENDBRANCH  18  19
ENDBRANCH   3  17
TORSDOF 5
