REMARK  Name = ZINC63907797
REMARK  8 active torsions:
REMARK  status: ('A' for Active; 'I' for Inactive)
REMARK    1  A    between atoms: C_1  and  C_2
REMARK    2  A    between atoms: C_3  and  O_36
REMARK    3  A    between atoms: C_12  and  C_13
REMARK    4  A    between atoms: C_13  and  S_14
REMARK    5  A    between atoms: S_14  and  C_15
REMARK    6  A    between atoms: C_18  and  C_27
REMARK    7  A    between atoms: N_19  and  C_20
REMARK    8  A    between atoms: C_20  and  C_21
REMARK                            x       y       z     vdW  Elec       q    Type
REMARK                         _______ _______ _______ _____ _____    ______ ____
ROOT
ATOM      1  C   UNL     1      -1.390  -6.735   2.111  0.00  0.00    +0.192 A 
ATOM      2  N   UNL     1      -0.282  -7.395   2.417  0.00  0.00    -0.122 NA
ATOM      3  N   UNL     1      -0.496  -8.661   2.376  0.00  0.00    -0.129 NA
ATOM      4  C   UNL     1      -1.757  -8.892   2.040  0.00  0.00    +0.163 A 
ATOM      5  N   UNL     1      -2.360  -7.658   1.868  0.00  0.00    -0.300 N 
ENDROOT
BRANCH   4   6
ATOM      6  C   UNL     1      -2.366 -10.148   1.891  0.00  0.00    +0.025 C 
ATOM      7  C   UNL     1      -1.774 -11.398   2.071  0.00  0.00    +0.006 A 
ATOM      8  C   UNL     1      -0.469 -11.792   2.435  0.00  0.00    +0.010 A 
ATOM      9  C   UNL     1      -0.167 -13.112   2.537  0.00  0.00    +0.001 A 
ATOM     10  C   UNL     1      -1.121 -14.101   2.289  0.00  0.00    +0.002 A 
ATOM     11  C   UNL     1      -2.394 -13.796   1.935  0.00  0.00    +0.026 A 
ATOM     12  C   UNL     1      -2.784 -12.437   1.809  0.00  0.00    +0.043 A 
ATOM     13  N   UNL     1      -3.938 -11.888   1.485  0.00  0.00    -0.380 N 
ATOM     14  C   UNL     1      -3.802 -10.428   1.508  0.00  0.00    +0.152 C 
ATOM     15  H   UNL     1      -4.750 -12.373   1.270  0.00  0.00    +0.160 HD
ENDBRANCH   4   6
BRANCH   1  16
ATOM     16  S   UNL     1      -1.575  -4.984   2.040  0.00  0.00    -0.081 S 
BRANCH  16  17
ATOM     17  C   UNL     1       0.071  -4.351   2.466  0.00  0.00    +0.113 C 
BRANCH  17  29
ATOM     18  C   UNL     1      -0.018   1.503   0.010  0.00  0.00    +0.051 C 
ATOM     19  C   UNL     1       0.002  -0.004   0.002  0.00  0.00    +0.034 A 
ATOM     20  C   UNL     1       0.006  -0.693  -1.200  0.00  0.00    +0.123 A 
ATOM     21  C   UNL     1       0.024  -2.086  -1.219  0.00  0.00    +0.046 A 
ATOM     22  C   UNL     1       0.039  -2.792  -0.051  0.00  0.00    +0.015 A 
ATOM     23  C   UNL     1       0.036  -2.113   1.173  0.00  0.00    +0.022 A 
ATOM     24  C   UNL     1       0.023  -0.706   1.198  0.00  0.00    +0.146 A 
ATOM     25  O   UNL     1       0.025  -0.054   2.380  0.00  0.00    -0.422 OA
ATOM     26  C   UNL     1       0.045  -0.719   3.546  0.00  0.00    +0.338 A 
ATOM     27  O   UNL     1       0.046  -0.089   4.588  0.00  0.00    -0.245 OA
ATOM     28  C   UNL     1       0.065  -2.128   3.595  0.00  0.00    +0.097 A 
ATOM     29  C   UNL     1       0.051  -2.845   2.441  0.00  0.00    -0.020 A 
BRANCH  20  30
ATOM     30  O   UNL     1      -0.009  -0.004  -2.370  0.00  0.00    -0.506 OA
ATOM     31  H   UNL     1       0.870   0.207  -2.713  0.00  0.00    +0.292 HD
ENDBRANCH  20  30
ENDBRANCH  17  29
ENDBRANCH  16  17
ENDBRANCH   1  16
BRANCH   5  32
ATOM     32  C   UNL     1      -3.753  -7.400   1.497  0.00  0.00    +0.157 C 
BRANCH  32  33
ATOM     33  C   UNL     1      -3.871  -7.328  -0.027  0.00  0.00    +0.138 C 
ATOM     34  C   UNL     1      -5.352  -7.146  -0.444  0.00  0.00    +0.035 C 
ATOM     35  C   UNL     1      -5.186  -6.471  -1.833  0.00  0.00    +0.031 C 
ATOM     36  C   UNL     1      -3.920  -5.612  -1.631  0.00  0.00    +0.160 C 
ATOM     37  O   UNL     1      -3.193  -6.165  -0.525  0.00  0.00    -0.375 OA
ENDBRANCH  32  33
ENDBRANCH   5  32
TORSDOF 7
