REMARK  Name = ZINC51046185
REMARK  5 active torsions:
REMARK  status: ('A' for Active; 'I' for Inactive)
REMARK    1  A    between atoms: C_6  and  N_7
REMARK    2  A    between atoms: C_8  and  C_10
REMARK    3  A    between atoms: C_10  and  N_11
REMARK    4  A    between atoms: C_15  and  C_18
REMARK    5  A    between atoms: N_20  and  C_21
REMARK                            x       y       z     vdW  Elec       q    Type
REMARK                         _______ _______ _______ _____ _____    ______ ____
ROOT
ATOM      1  N   UNL     1      -1.202  -0.721   0.010  0.00  0.00    -0.287 N 
ATOM      2  C   UNL     1      -2.374  -0.067   0.126  0.00  0.00    +0.201 C 
ATOM      3  O   UNL     1      -2.395   1.145   0.133  0.00  0.00    -0.278 OA
ATOM      4  H   UNL     1      -1.191  -1.687  -0.073  0.00  0.00    +0.155 HD
ENDROOT
BRANCH   1  10
ATOM      5  C   UNL     1       0.122   1.154   0.763  0.00  0.00    +0.027 A 
ATOM      6  C   UNL     1       1.309   1.863   0.763  0.00  0.00    +0.051 A 
ATOM      7  C   UNL     1       2.380   1.419   0.009  0.00  0.00    +0.167 A 
ATOM      8  C   UNL     1       2.264   0.254  -0.750  0.00  0.00    +0.169 A 
ATOM      9  C   UNL     1       1.077  -0.454  -0.749  0.00  0.00    +0.072 A 
ATOM     10  C   UNL     1       0.002  -0.004   0.008  0.00  0.00    +0.037 A 
ATOM     11  O   UNL     1       3.456   0.038  -1.392  0.00  0.00    -0.447 OA
ATOM     12  C   UNL     1       4.080   1.331  -1.399  0.00  0.00    +0.254 C 
ATOM     13  O   UNL     1       3.644   1.923  -0.168  0.00  0.00    -0.448 OA
ATOM     14  C   UNL     1       5.606   1.210  -1.449  0.00  0.00    +0.093 C 
ATOM     15  C   UNL     1       5.951   1.441  -2.944  0.00  0.00    +0.008 C 
ATOM     16  C   UNL     1       4.932   2.529  -3.369  0.00  0.00    +0.008 C 
ATOM     17  C   UNL     1       3.640   2.158  -2.607  0.00  0.00    +0.093 C 
ENDBRANCH   1  10
BRANCH   2  18
ATOM     18  C   UNL     1      -3.661  -0.843   0.247  0.00  0.00    +0.019 C 
BRANCH  18  19
ATOM     19  N   UNL     1      -4.788   0.092   0.360  0.00  0.00    +0.386 N 
ATOM     20  C   UNL     1      -4.907   0.865  -0.882  0.00  0.00    -0.078 C 
ATOM     21  C   UNL     1      -6.028   1.897  -0.739  0.00  0.00    -0.018 C 
ATOM     22  C   UNL     1      -7.348   1.173  -0.458  0.00  0.00    +0.009 C 
ATOM     23  C   UNL     1      -7.189   0.312   0.798  0.00  0.00    +0.058 C 
ATOM     24  C   UNL     1      -6.025  -0.661   0.599  0.00  0.00    -0.065 C 
ATOM     25  H   UNL     1      -4.625   0.722   1.132  0.00  0.00    -0.081 HD
BRANCH  23  26
ATOM     26  C   UNL     1      -8.458  -0.464   1.040  0.00  0.00    +0.215 C 
ATOM     27  O   UNL     1      -8.434  -1.676   1.056  0.00  0.00    -0.276 OA
ATOM     28  N   UNL     1      -9.620   0.190   1.239  0.00  0.00    -0.312 N 
ATOM     29  H   UNL     1      -9.639   1.160   1.226  0.00  0.00    +0.149 HD
BRANCH  28  30
ATOM     30  C   UNL     1     -10.854  -0.564   1.475  0.00  0.00    +0.073 C 
ATOM     31  C   UNL     1     -12.115  -0.100   0.743  0.00  0.00    +0.024 C 
ATOM     32  C   UNL     1     -11.973   0.137   2.248  0.00  0.00    +0.024 C 
ENDBRANCH  28  30
ENDBRANCH  23  26
ENDBRANCH  18  19
ENDBRANCH   2  18
TORSDOF 5
