REMARK  Name = ZINC29767263
REMARK  3 active torsions:
REMARK  status: ('A' for Active; 'I' for Inactive)
REMARK    1  A    between atoms: C_1  and  N_2
REMARK    2  A    between atoms: C_3  and  C_5
REMARK    3  A    between atoms: C_16  and  C_18
REMARK                            x       y       z     vdW  Elec       q    Type
REMARK                         _______ _______ _______ _____ _____    ______ ____
ROOT
ATOM      1  C   UNL     1      -2.896  -4.065   0.841  0.00  0.00    +0.276 C 
ATOM      2  C   UNL     1      -1.633  -4.846   0.453  0.00  0.00    +0.168 C 
ATOM      3  N   UNL     1      -0.488  -4.198   1.114  0.00  0.00    -0.264 N 
ATOM      4  C   UNL     1      -0.449  -2.793   1.123  0.00  0.00    +0.078 A 
ATOM      5  C   UNL     1       0.720  -2.132   1.467  0.00  0.00    +0.027 A 
ATOM      6  C   UNL     1       0.753  -0.750   1.478  0.00  0.00    +0.002 A 
ATOM      7  C   UNL     1      -0.379  -0.028   1.145  0.00  0.00    +0.004 A 
ATOM      8  C   UNL     1      -1.546  -0.682   0.799  0.00  0.00    +0.047 A 
ATOM      9  C   UNL     1      -1.588  -2.068   0.785  0.00  0.00    +0.143 A 
ATOM     10  O   UNL     1      -2.740  -2.702   0.439  0.00  0.00    -0.476 OA
ATOM     11  C   UNL     1       0.488  -4.926   1.691  0.00  0.00    +0.226 C 
ATOM     12  O   UNL     1       1.460  -4.374   2.161  0.00  0.00    -0.275 OA
ENDROOT
BRANCH  11  13
ATOM     13  C   UNL     1       0.372  -6.428   1.752  0.00  0.00    +0.050 C 
ATOM     14  C   UNL     1       0.192  -6.983   0.338  0.00  0.00    +0.019 C 
ATOM     15  C   UNL     1       0.074  -8.507   0.400  0.00  0.00    -0.008 C 
ATOM     16  C   UNL     1       1.344  -9.092   1.020  0.00  0.00    +0.007 C 
ATOM     17  C   UNL     1       1.525  -8.537   2.434  0.00  0.00    -0.008 C 
ATOM     18  C   UNL     1       1.643  -7.013   2.372  0.00  0.00    +0.019 C 
ATOM     19  C   UNL     1       0.317  -8.920   3.290  0.00  0.00    +0.026 C 
ATOM     20  C   UNL     1      -0.954  -8.335   2.671  0.00  0.00    +0.047 C 
ATOM     21  C   UNL     1      -1.135  -8.891   1.257  0.00  0.00    +0.026 C 
ATOM     22  C   UNL     1      -0.836  -6.811   2.609  0.00  0.00    +0.039 C 
ATOM     23 CL   UNL     1      -2.378  -8.787   3.680  0.00  0.00    -0.118 Cl
ENDBRANCH  11  13
BRANCH   1  26
ATOM     24  C   UNL     1      -5.654  -6.495  -0.228  0.00  0.00    +0.128 C 
ATOM     25  N   UNL     1      -4.491  -5.914   0.447  0.00  0.00    -0.315 N 
ATOM     26  C   UNL     1      -4.093  -4.662   0.147  0.00  0.00    +0.255 C 
ATOM     27  O   UNL     1      -4.698  -4.016  -0.682  0.00  0.00    -0.272 OA
ATOM     28  H   UNL     1      -4.007  -6.431   1.110  0.00  0.00    +0.148 HD
ENDBRANCH   1  26
TORSDOF 2
