REMARK  Name = ZINC01189889
REMARK  4 active torsions:
REMARK  status: ('A' for Active; 'I' for Inactive)
REMARK    1  A    between atoms: N_8  and  C_10
REMARK    2  A    between atoms: C_13  and  C_16
REMARK    3  A    between atoms: N_18  and  N_19
REMARK    4  A    between atoms: C_20  and  C_21
REMARK                            x       y       z     vdW  Elec       q    Type
REMARK                         _______ _______ _______ _____ _____    ______ ____
ROOT
ATOM      1  C   UNL     1       7.214   9.487  -0.013  0.00  0.00    +0.030 A 
ATOM      2  C   UNL     1       6.003  10.152  -0.184  0.00  0.00    +0.024 A 
ATOM      3  C   UNL     1       4.822   9.447  -0.178  0.00  0.00    +0.015 A 
ATOM      4  C   UNL     1       4.838   8.060  -0.001  0.00  0.00    +0.038 A 
ATOM      5  C   UNL     1       6.056   7.396   0.175  0.00  0.00    +0.015 A 
ATOM      6  C   UNL     1       7.234   8.106   0.164  0.00  0.00    +0.024 A 
ENDROOT
BRANCH   1  14
ATOM      7  C   UNL     1      12.472  11.511  -1.914  0.00  0.00    +0.000 A 
ATOM      8  C   UNL     1      11.767  12.684  -2.112  0.00  0.00    +0.000 A 
ATOM      9  C   UNL     1      10.415  12.735  -1.829  0.00  0.00    +0.005 A 
ATOM     10  C   UNL     1       9.769  11.614  -1.348  0.00  0.00    -0.026 A 
ATOM     11  C   UNL     1      10.476  10.439  -1.149  0.00  0.00    -0.026 A 
ATOM     12  C   UNL     1      11.826  10.388  -1.432  0.00  0.00    +0.005 A 
ATOM     13  C   UNL     1       9.508   9.400  -0.621  0.00  0.00    +0.141 C 
ATOM     14  N   UNL     1       8.406  10.203  -0.020  0.00  0.00    -0.321 N 
ATOM     15  C   UNL     1       8.328  11.361  -0.953  0.00  0.00    +0.141 C 
ENDBRANCH   1  14
BRANCH   4  16
ATOM     16  C   UNL     1       3.574   7.301   0.007  0.00  0.00    +0.263 C 
ATOM     17  O   UNL     1       2.515   7.882  -0.142  0.00  0.00    -0.268 OA
ATOM     18  N   UNL     1       3.591   5.965   0.178  0.00  0.00    -0.203 N 
ATOM     19  H   UNL     1       4.436   5.502   0.296  0.00  0.00    +0.178 HD
BRANCH  18  20
ATOM     20  N   UNL     1       2.390   5.244   0.185  0.00  0.00    -0.187 NA
ATOM     21  C   UNL     1       2.407   3.956   0.350  0.00  0.00    +0.141 C 
BRANCH  21  22
ATOM     22  C   UNL     1       1.143   3.198   0.358  0.00  0.00    +0.030 A 
ATOM     23  C   UNL     1       1.157   1.812   0.535  0.00  0.00    +0.012 A 
ATOM     24  C   UNL     1      -0.029   1.109   0.541  0.00  0.00    +0.001 A 
ATOM     25  C   UNL     1      -1.232   1.770   0.368  0.00  0.00    +0.003 A 
ATOM     26  C   UNL     1      -1.257   3.142   0.197  0.00  0.00    +0.039 A 
ATOM     27  C   UNL     1      -0.077   3.861   0.188  0.00  0.00    +0.132 A 
ATOM     28  F   UNL     1      -0.101   5.201   0.015  0.00  0.00    -0.205 F 
ENDBRANCH  21  22
ENDBRANCH  18  20
ENDBRANCH   4  16
TORSDOF 4
