REMARK  Name = ZINC08963865
REMARK  11 active torsions:
REMARK  status: ('A' for Active; 'I' for Inactive)
REMARK    1  A    between atoms: C_1  and  C_2
REMARK    2  A    between atoms: C_4  and  C_29
REMARK    3  A    between atoms: C_6  and  N_8
REMARK    4  A    between atoms: C_9  and  C_11
REMARK    5  A    between atoms: N_13  and  C_14
REMARK    6  A    between atoms: C_14  and  C_15
REMARK    7  A    between atoms: C_15  and  C_17
REMARK    8  A    between atoms: C_15  and  N_59
REMARK    9  A    between atoms: N_25  and  C_26
REMARK   10  A    between atoms: C_27  and  N_59
REMARK   11  A    between atoms: C_28  and  N_59
REMARK                            x       y       z     vdW  Elec       q    Type
REMARK                         _______ _______ _______ _____ _____    ______ ____
ROOT
ATOM      1  C   UNL     1      -1.234   7.918  -3.809  0.00  0.00    +0.299 C 
ATOM      2  O   UNL     1      -1.194   8.958  -3.185  0.00  0.00    -0.265 OA
ATOM      3  N   UNL     1      -2.144   6.976  -3.493  0.00  0.00    -0.309 N 
ATOM      4  H   UNL     1      -2.176   6.145  -3.992  0.00  0.00    +0.149 HD
ENDROOT
BRANCH   1   6
ATOM      5  N   UNL     1       0.636   8.624  -5.246  0.00  0.00    -0.278 N 
ATOM      6  C   UNL     1      -0.274   7.683  -4.929  0.00  0.00    +0.303 C 
ATOM      7  O   UNL     1      -0.315   6.643  -5.554  0.00  0.00    -0.265 OA
ATOM      8  H   UNL     1       0.623   9.483  -4.795  0.00  0.00    +0.155 HD
BRANCH   5  14
ATOM      9  C   UNL     1       3.473  10.232  -8.924  0.00  0.00    +0.044 C 
ATOM     10  C   UNL     1       2.993   9.125  -8.022  0.00  0.00    -0.048 A 
ATOM     11  C   UNL     1       3.506   7.848  -8.162  0.00  0.00    +0.006 A 
ATOM     12  C   UNL     1       3.069   6.829  -7.336  0.00  0.00    -0.048 A 
ATOM     13  C   UNL     1       2.117   7.083  -6.368  0.00  0.00    +0.026 A 
ATOM     14  C   UNL     1       1.599   8.364  -6.224  0.00  0.00    +0.034 A 
ATOM     15  C   UNL     1       2.037   9.385  -7.059  0.00  0.00    +0.026 A 
ATOM     16  C   UNL     1       3.631   5.440  -7.492  0.00  0.00    +0.044 C 
ENDBRANCH   5  14
ENDBRANCH   1   6
BRANCH   3  17
ATOM     17  C   UNL     1      -3.086   7.207  -2.394  0.00  0.00    +0.094 C 
BRANCH  17  18
ATOM     18  C   UNL     1      -3.915   5.944  -2.159  0.00  0.00    -0.021 C 
BRANCH  18  19
ATOM     19  C   UNL     1      -3.006   4.817  -1.738  0.00  0.00    -0.059 A 
ATOM     20  C   UNL     1      -2.569   4.732  -0.428  0.00  0.00    +0.004 A 
ATOM     21  C   UNL     1      -1.739   3.703  -0.038  0.00  0.00    +0.023 A 
ATOM     22  C   UNL     1      -1.335   2.740  -0.962  0.00  0.00    +0.033 A 
ATOM     23  C   UNL     1      -1.776   2.837  -2.276  0.00  0.00    -0.025 A 
ATOM     24  C   UNL     1      -2.607   3.868  -2.661  0.00  0.00    +0.007 A 
ATOM     25  C   UNL     1      -1.184   1.678  -3.054  0.00  0.00    +0.056 C 
ATOM     26  C   UNL     1      -0.049   1.186  -2.126  0.00  0.00    +0.109 C 
ATOM     27  N   UNL     1      -0.509   1.619  -0.789  0.00  0.00    -0.332 N 
ATOM     28  C   UNL     1       0.631   1.929   0.085  0.00  0.00    +0.129 C 
ENDBRANCH  18  19
BRANCH  18  31
ATOM     29  C   UNL     1      -5.791   7.308  -1.466  0.00  0.00    -0.096 C 
ATOM     30  C   UNL     1      -5.675   4.983  -0.802  0.00  0.00    -0.096 C 
ATOM     31  N   UNL     1      -4.889   6.204  -1.078  0.00  0.00    +0.382 N 
ATOM     32  H   UNL     1      -4.380   6.472  -0.228  0.00  0.00    -0.082 HD
ENDBRANCH  18  31
ENDBRANCH  17  18
ENDBRANCH   3  17
TORSDOF 6
