REMARK  Name = ZINC05066396
REMARK  4 active torsions:
REMARK  status: ('A' for Active; 'I' for Inactive)
REMARK    1  A    between atoms: C_1  and  C_2
REMARK    2  A    between atoms: C_7  and  C_8
REMARK    3  A    between atoms: N_9  and  N_10
REMARK    4  A    between atoms: C_19  and  C_21
REMARK                            x       y       z     vdW  Elec       q    Type
REMARK                         _______ _______ _______ _____ _____    ______ ____
ROOT
ATOM      1  N   UNL     1       1.229  -2.726  -2.336  0.00  0.00    -0.205 N 
ATOM      2  C   UNL     1       0.157  -2.114  -1.711  0.00  0.00    +0.236 A 
ATOM      3  N   UNL     1      -0.647  -2.850  -0.967  0.00  0.00    -0.213 NA
ATOM      4  C   UNL     1      -1.696  -2.295  -0.346  0.00  0.00    +0.077 A 
ATOM      5  C   UNL     1      -2.569  -3.049   0.453  0.00  0.00    +0.030 A 
ATOM      6  C   UNL     1      -3.622  -2.436   1.062  0.00  0.00    +0.022 A 
ATOM      7  C   UNL     1      -3.846  -1.069   0.906  0.00  0.00    +0.042 A 
ATOM      8  C   UNL     1      -3.015  -0.306   0.137  0.00  0.00    +0.032 A 
ATOM      9  C   UNL     1      -1.925  -0.905  -0.503  0.00  0.00    +0.028 A 
ATOM     10  C   UNL     1      -1.029  -0.164  -1.314  0.00  0.00    +0.084 A 
ATOM     11  N   UNL     1      -0.024  -0.808  -1.891  0.00  0.00    -0.213 NA
ATOM     12 CL   UNL     1      -5.199  -0.327   1.700  0.00  0.00    -0.084 Cl
ATOM     13  H   UNL     1       1.832  -2.204  -2.887  0.00  0.00    +0.177 HD
ENDROOT
BRANCH  10  14
ATOM     14  C   UNL     1      -1.215   1.290  -1.518  0.00  0.00    +0.001 A 
ATOM     15  C   UNL     1      -1.076   1.843  -2.791  0.00  0.00    +0.010 A 
ATOM     16  C   UNL     1      -1.256   3.199  -2.975  0.00  0.00    +0.001 A 
ATOM     17  C   UNL     1      -1.563   4.011  -1.898  0.00  0.00    +0.000 A 
ATOM     18  C   UNL     1      -1.696   3.470  -0.632  0.00  0.00    +0.001 A 
ATOM     19  C   UNL     1      -1.524   2.115  -0.436  0.00  0.00    +0.010 A 
ENDBRANCH  10  14
BRANCH   1  21
ATOM     20  C   UNL     1       2.449  -4.676  -2.757  0.00  0.00    +0.138 C 
ATOM     21  N   UNL     1       1.443  -4.101  -2.171  0.00  0.00    -0.188 NA
BRANCH  20  28
ATOM     22  C   UNL     1       0.780  -6.173  -0.929  0.00  0.00    +0.044 C 
ATOM     23  C   UNL     1       1.875  -6.857  -1.704  0.00  0.00    -0.042 A 
ATOM     24  C   UNL     1       2.092  -8.210  -1.548  0.00  0.00    +0.004 A 
ATOM     25  C   UNL     1       3.098  -8.840  -2.258  0.00  0.00    +0.000 A 
ATOM     26  C   UNL     1       3.894  -8.119  -3.131  0.00  0.00    +0.001 A 
ATOM     27  C   UNL     1       3.685  -6.766  -3.303  0.00  0.00    +0.010 A 
ATOM     28  C   UNL     1       2.675  -6.123  -2.584  0.00  0.00    -0.003 A 
ENDBRANCH  20  28
ENDBRANCH   1  21
TORSDOF 3
