REMARK  Name = ZINC66349096
REMARK  7 active torsions:
REMARK  status: ('A' for Active; 'I' for Inactive)
REMARK    1  A    between atoms: C_1  and  N_2
REMARK    2  A    between atoms: N_2  and  C_3
REMARK    3  A    between atoms: C_3  and  C_4
REMARK    4  A    between atoms: C_4  and  C_5
REMARK    5  A    between atoms: N_11  and  C_12
REMARK    6  A    between atoms: C_12  and  C_14
REMARK    7  A    between atoms: C_12  and  C_21
REMARK                            x       y       z     vdW  Elec       q    Type
REMARK                         _______ _______ _______ _____ _____    ______ ____
ROOT
ATOM      1  C   UNL     1      -0.022  -0.717  -3.605  0.00  0.00    +0.136 C 
ENDROOT
BRANCH   1   2
ATOM      2  C   UNL     1       0.556   0.161  -4.685  0.00  0.00    -0.023 A 
ATOM      3  C   UNL     1       0.249   1.508  -4.718  0.00  0.00    +0.007 A 
ATOM      4  C   UNL     1       0.779   2.314  -5.708  0.00  0.00    +0.020 A 
ATOM      5  C   UNL     1       1.617   1.772  -6.666  0.00  0.00    +0.041 A 
ATOM      6  C   UNL     1       1.924   0.423  -6.632  0.00  0.00    +0.020 A 
ATOM      7  C   UNL     1       1.398  -0.381  -5.638  0.00  0.00    +0.007 A 
ATOM      8 CL   UNL     1       2.283   2.783  -7.910  0.00  0.00    -0.084 Cl
ENDBRANCH   1   2
BRANCH   1  13
ATOM      9  C   UNL     1      -0.018   1.461   0.010  0.00  0.00    +0.133 C 
ATOM     10  N   UNL     1       0.002  -0.004   0.002  0.00  0.00    -0.288 N 
ATOM     11  C   UNL     1       0.000  -0.672  -1.169  0.00  0.00    +0.303 C 
ATOM     12  O   UNL     1       0.017  -1.887  -1.175  0.00  0.00    -0.253 OA
ATOM     13  N   UNL     1      -0.020   0.009  -2.332  0.00  0.00    -0.288 N 
ATOM     14  H   UNL     1      -0.033   0.978  -2.327  0.00  0.00    +0.151 HD
BRANCH  10  15
ATOM     15  C   UNL     1       0.024  -0.743   1.267  0.00  0.00    +0.118 C 
BRANCH  15  16
ATOM     16  C   UNL     1      -1.411  -1.020   1.720  0.00  0.00    +0.132 C 
BRANCH  16  17
ATOM     17  C   UNL     1      -1.387  -1.792   3.041  0.00  0.00    +0.392 C 
ATOM     18  F   UNL     1      -0.729  -1.033   4.014  0.00  0.00    -0.171 F 
ATOM     19  F   UNL     1      -2.699  -2.046   3.456  0.00  0.00    -0.171 F 
ATOM     20  F   UNL     1      -0.713  -3.005   2.861  0.00  0.00    -0.171 F 
ENDBRANCH  16  17
ENDBRANCH  15  16
ENDBRANCH  10  15
ENDBRANCH   1  13
BRANCH   1  21
ATOM     21  C   UNL     1      -1.436  -1.093  -3.967  0.00  0.00    -0.016 A 
ATOM     22  C   UNL     1      -1.715  -2.330  -4.516  0.00  0.00    +0.013 A 
ATOM     23  C   UNL     1      -2.997  -2.636  -4.830  0.00  0.00    +0.045 A 
ATOM     24  S   UNL     1      -3.861  -1.151  -4.346  0.00  0.00    -0.105 S 
ATOM     25  C   UNL     1      -2.455  -0.225  -3.752  0.00  0.00    +0.051 A 
ENDBRANCH   1  21
TORSDOF 6
