REMARK  Name = ZINC41272522
REMARK  6 active torsions:
REMARK  status: ('A' for Active; 'I' for Inactive)
REMARK    1  A    between atoms: C_3  and  C_6
REMARK    2  A    between atoms: C_9  and  C_11
REMARK    3  A    between atoms: C_11  and  N_12
REMARK    4  A    between atoms: C_15  and  C_18
REMARK    5  A    between atoms: N_20  and  C_21
REMARK    6  A    between atoms: C_21  and  C_22
REMARK                            x       y       z     vdW  Elec       q    Type
REMARK                         _______ _______ _______ _____ _____    ______ ____
ROOT
ATOM      1  N   UNL     1       7.844   1.397   1.309  0.00  0.00    +0.386 N 
ATOM      2  C   UNL     1       7.157   0.277   1.963  0.00  0.00    -0.077 C 
ATOM      3  C   UNL     1       7.604   0.182   3.423  0.00  0.00    -0.006 C 
ATOM      4  C   UNL     1       9.118  -0.046   3.474  0.00  0.00    +0.071 C 
ATOM      5  C   UNL     1       9.820   1.090   2.725  0.00  0.00    -0.006 C 
ATOM      6  C   UNL     1       9.291   1.152   1.290  0.00  0.00    -0.077 C 
ATOM      7  H   UNL     1       7.655   2.248   1.818  0.00  0.00    -0.081 HD
ENDROOT
BRANCH   4   8
ATOM      8  C   UNL     1       9.577  -0.063   4.909  0.00  0.00    +0.216 C 
ATOM      9  O   UNL     1       8.774   0.091   5.804  0.00  0.00    -0.276 OA
ATOM     10  N   UNL     1      10.880  -0.250   5.197  0.00  0.00    -0.311 N 
ATOM     11  H   UNL     1      11.523  -0.374   4.481  0.00  0.00    +0.149 HD
BRANCH  10  12
ATOM     12  C   UNL     1      11.327  -0.267   6.592  0.00  0.00    +0.139 C 
BRANCH  12  13
ATOM     13  C   UNL     1      12.816  -0.491   6.640  0.00  0.00    -0.029 A 
ATOM     14  C   UNL     1      13.320  -1.777   6.700  0.00  0.00    +0.008 A 
ATOM     15  C   UNL     1      14.685  -1.985   6.744  0.00  0.00    +0.040 A 
ATOM     16  C   UNL     1      15.550  -0.904   6.728  0.00  0.00    +0.142 A 
ATOM     17  C   UNL     1      15.045   0.385   6.668  0.00  0.00    +0.076 A 
ATOM     18  C   UNL     1      13.678   0.589   6.619  0.00  0.00    +0.028 A 
ATOM     19 CL   UNL     1      16.128   1.742   6.648  0.00  0.00    -0.081 Cl
ATOM     20  F   UNL     1      16.885  -1.106   6.771  0.00  0.00    -0.204 F 
ENDBRANCH  12  13
ENDBRANCH  10  12
ENDBRANCH   4   8
BRANCH   1  21
ATOM     21  C   UNL     1       7.354   1.534  -0.069  0.00  0.00    +0.021 C 
BRANCH  21  25
ATOM     22  C   UNL     1       3.740   1.810  -0.024  0.00  0.00    +0.255 A 
ATOM     23  N   UNL     1       4.124   3.067  -0.016  0.00  0.00    -0.107 NA
ATOM     24  N   UNL     1       5.410   3.117  -0.030  0.00  0.00    -0.114 NA
ATOM     25  C   UNL     1       5.894   1.907  -0.048  0.00  0.00    +0.202 A 
ATOM     26  O   UNL     1       4.855   1.052  -0.039  0.00  0.00    -0.422 OA
BRANCH  22  29
ATOM     27  C   UNL     1      -0.016   1.354   0.009  0.00  0.00    +0.008 A 
ATOM     28  C   UNL     1       1.174   2.044   0.002  0.00  0.00    +0.021 A 
ATOM     29  C   UNL     1       2.353   1.321  -0.013  0.00  0.00    +0.076 A 
ATOM     30  S   UNL     1       1.751  -0.360  -0.017  0.00  0.00    -0.092 S 
ATOM     31  C   UNL     1       0.002  -0.004   0.002  0.00  0.00    +0.046 A 
ENDBRANCH  22  29
ENDBRANCH  21  25
ENDBRANCH   1  21
TORSDOF 6
