REMARK  Name = ZINC35545807
REMARK  7 active torsions:
REMARK  status: ('A' for Active; 'I' for Inactive)
REMARK    1  A    between atoms: C_1  and  C_2
REMARK    2  A    between atoms: C_2  and  N_3
REMARK    3  A    between atoms: C_5  and  C_12
REMARK    4  A    between atoms: C_12  and  C_14
REMARK    5  A    between atoms: C_12  and  C_34
REMARK    6  A    between atoms: C_14  and  C_15
REMARK    7  A    between atoms: C_20  and  N_23
REMARK                            x       y       z     vdW  Elec       q    Type
REMARK                         _______ _______ _______ _____ _____    ______ ____
ROOT
ATOM      1  C   UNL     1       4.736  -0.542   2.734  0.00  0.00    +0.109 C 
ENDROOT
BRANCH   1   2
ATOM      2  C   UNL     1       6.070  -0.948   3.306  0.00  0.00    +0.216 C 
ATOM      3  O   UNL     1       6.203  -2.038   3.820  0.00  0.00    -0.276 OA
ATOM      4  N   UNL     1       7.115  -0.098   3.248  0.00  0.00    -0.301 N 
ATOM      5  C   UNL     1       6.968   1.229   2.635  0.00  0.00    +0.110 C 
ATOM      6  C   UNL     1       7.441   2.289   3.635  0.00  0.00    +0.044 C 
ATOM      7  C   UNL     1       8.866   1.959   4.086  0.00  0.00    +0.095 C 
ATOM      8  C   UNL     1       8.880   0.597   4.784  0.00  0.00    +0.044 C 
ATOM      9  C   UNL     1       8.421  -0.480   3.803  0.00  0.00    +0.110 C 
BRANCH   7  10
ATOM     10  N   UNL     1       9.334   2.989   5.017  0.00  0.00    -0.289 N 
ATOM     11  C   UNL     1      10.442   3.813   4.831  0.00  0.00    +0.070 A 
ATOM     12  C   UNL     1      11.380   3.931   3.818  0.00  0.00    +0.028 A 
ATOM     13  C   UNL     1      12.391   4.867   3.922  0.00  0.00    +0.002 A 
ATOM     14  C   UNL     1      12.470   5.687   5.035  0.00  0.00    +0.002 A 
ATOM     15  C   UNL     1      11.540   5.576   6.050  0.00  0.00    +0.028 A 
ATOM     16  C   UNL     1      10.522   4.640   5.953  0.00  0.00    +0.067 A 
ATOM     17  N   UNL     1       9.460   4.293   6.786  0.00  0.00    -0.306 N 
ATOM     18  H   UNL     1       9.256   4.698   7.643  0.00  0.00    +0.170 HD
ATOM     19  C   UNL     1       8.763   3.305   6.194  0.00  0.00    +0.328 A 
ATOM     20  O   UNL     1       7.769   2.775   6.656  0.00  0.00    -0.247 OA
ENDBRANCH   7  10
ENDBRANCH   1   2
BRANCH   1  21
ATOM     21  C   UNL     1       3.731  -1.678   2.928  0.00  0.00    +0.060 C 
BRANCH  21  24
ATOM     22  N   UNL     1       0.711  -0.489   1.189  0.00  0.00    -0.347 N 
ATOM     23  C   UNL     1       2.038  -0.820   1.232  0.00  0.00    +0.091 A 
ATOM     24  C   UNL     1       2.368  -1.227   2.467  0.00  0.00    -0.014 A 
ATOM     25  C   UNL     1       1.154  -1.151   3.283  0.00  0.00    +0.004 A 
ATOM     26  C   UNL     1       0.142  -0.675   2.429  0.00  0.00    +0.049 A 
ATOM     27  C   UNL     1      -1.143  -0.492   2.931  0.00  0.00    +0.026 A 
ATOM     28  C   UNL     1      -1.407  -0.774   4.253  0.00  0.00    +0.002 A 
ATOM     29  C   UNL     1      -0.405  -1.240   5.092  0.00  0.00    +0.001 A 
ATOM     30  C   UNL     1       0.862  -1.436   4.618  0.00  0.00    +0.010 A 
BRANCH  22  32
ATOM     31  C   UNL     1      -0.019   1.526   0.010  0.00  0.00    +0.027 C 
ATOM     32  C   UNL     1       0.002  -0.004   0.002  0.00  0.00    +0.118 C 
ENDBRANCH  22  32
ENDBRANCH  21  24
BRANCH  21  33
ATOM     33  C   UNL     1       4.163  -2.875   2.121  0.00  0.00    -0.039 A 
ATOM     34  C   UNL     1       4.297  -2.772   0.749  0.00  0.00    +0.007 A 
ATOM     35  C   UNL     1       4.694  -3.869   0.009  0.00  0.00    +0.038 A 
ATOM     36  C   UNL     1       4.958  -5.072   0.641  0.00  0.00    +0.123 A 
ATOM     37  C   UNL     1       4.824  -5.174   2.015  0.00  0.00    +0.038 A 
ATOM     38  C   UNL     1       4.431  -4.074   2.755  0.00  0.00    +0.007 A 
ATOM     39  F   UNL     1       5.346  -6.145  -0.082  0.00  0.00    -0.205 F 
ENDBRANCH  21  33
ENDBRANCH   1  21
TORSDOF 6
