REMARK  Name = ZINC04688818
REMARK  6 active torsions:
REMARK  status: ('A' for Active; 'I' for Inactive)
REMARK    1  A    between atoms: C_1  and  C_2
REMARK    2  A    between atoms: C_6  and  C_8
REMARK    3  A    between atoms: N_12  and  C_20
REMARK    4  A    between atoms: C_20  and  C_21
REMARK    5  A    between atoms: N_23  and  C_24
REMARK    6  A    between atoms: C_30  and  C_32
REMARK                            x       y       z     vdW  Elec       q    Type
REMARK                         _______ _______ _______ _____ _____    ______ ____
ROOT
ATOM      1  C   UNL     1      -2.999   0.604  -3.833  0.00  0.00    +0.059 C 
ATOM      2  C   UNL     1      -2.608   1.395  -2.809  0.00  0.00    +0.191 C 
ATOM      3  C   UNL     1      -2.257   0.828  -1.489  0.00  0.00    +0.287 C 
ATOM      4  O   UNL     1      -2.714  -0.237  -1.118  0.00  0.00    -0.266 OA
ATOM      5  N   UNL     1      -1.411   1.541  -0.708  0.00  0.00    -0.253 N 
ATOM      6  C   UNL     1      -0.900   2.751  -1.195  0.00  0.00    +0.080 A 
ATOM      7  C   UNL     1       0.170   3.361  -0.556  0.00  0.00    +0.027 A 
ATOM      8  C   UNL     1       0.673   4.554  -1.040  0.00  0.00    +0.002 A 
ATOM      9  C   UNL     1       0.113   5.144  -2.158  0.00  0.00    +0.004 A 
ATOM     10  C   UNL     1      -0.954   4.543  -2.800  0.00  0.00    +0.048 A 
ATOM     11  C   UNL     1      -1.464   3.347  -2.322  0.00  0.00    +0.150 A 
ATOM     12  O   UNL     1      -2.516   2.752  -2.950  0.00  0.00    -0.449 OA
ENDROOT
BRANCH   1  18
ATOM     13  C   UNL     1      -0.568  -3.433  -2.204  0.00  0.00    +0.044 C 
ATOM     14  C   UNL     1      -1.732  -2.809  -2.929  0.00  0.00    -0.050 A 
ATOM     15  C   UNL     1      -2.711  -3.614  -3.485  0.00  0.00    +0.003 A 
ATOM     16  C   UNL     1      -3.784  -3.050  -4.153  0.00  0.00    +0.001 A 
ATOM     17  C   UNL     1      -3.884  -1.679  -4.271  0.00  0.00    +0.008 A 
ATOM     18  C   UNL     1      -2.899  -0.860  -3.712  0.00  0.00    -0.021 A 
ATOM     19  C   UNL     1      -1.815  -1.437  -3.043  0.00  0.00    +0.011 A 
ENDBRANCH   1  18
BRANCH   5  20
ATOM     20  C   UNL     1      -1.032   1.053   0.620  0.00  0.00    +0.209 C 
BRANCH  20  21
ATOM     21  C   UNL     1      -2.003   1.579   1.645  0.00  0.00    +0.231 C 
ATOM     22  O   UNL     1      -2.921   2.292   1.300  0.00  0.00    -0.274 OA
ATOM     23  N   UNL     1      -1.851   1.257   2.945  0.00  0.00    -0.311 N 
ATOM     24  H   UNL     1      -1.116   0.687   3.221  0.00  0.00    +0.149 HD
BRANCH  23  25
ATOM     25  C   UNL     1      -2.795   1.769   3.942  0.00  0.00    +0.076 C 
ATOM     26  C   UNL     1      -4.015   0.848   4.008  0.00  0.00    +0.022 C 
ATOM     27  C   UNL     1      -3.570  -0.561   4.404  0.00  0.00    +0.002 C 
ATOM     28  C   UNL     1      -2.890  -0.515   5.774  0.00  0.00    +0.000 C 
ATOM     29  C   UNL     1      -1.670   0.406   5.707  0.00  0.00    +0.005 C 
ATOM     30  C   UNL     1      -2.115   1.815   5.312  0.00  0.00    +0.006 C 
ATOM     31  C   UNL     1      -0.895   2.736   5.245  0.00  0.00    +0.009 C 
ENDBRANCH  23  25
ENDBRANCH  20  21
ENDBRANCH   5  20
TORSDOF 4
