REMARK  Name = ZINC20326560
REMARK  7 active torsions:
REMARK  status: ('A' for Active; 'I' for Inactive)
REMARK    1  A    between atoms: C_1  and  C_2
REMARK    2  A    between atoms: C_6  and  N_8
REMARK    3  A    between atoms: C_9  and  C_11
REMARK    4  A    between atoms: C_11  and  S_12
REMARK    5  A    between atoms: S_12  and  C_13
REMARK    6  A    between atoms: N_21  and  C_24
REMARK    7  A    between atoms: N_27  and  C_28
REMARK                            x       y       z     vdW  Elec       q    Type
REMARK                         _______ _______ _______ _____ _____    ______ ____
ROOT
ATOM      1  C   UNL     1       2.442   9.815   0.868  0.00  0.00    +0.178 A 
ATOM      2  N   UNL     1       1.197  10.247   0.867  0.00  0.00    -0.215 NA
ATOM      3  C   UNL     1       0.919  11.519   0.606  0.00  0.00    +0.117 A 
ATOM      4  C   UNL     1       1.921  12.458   0.307  0.00  0.00    +0.076 A 
ATOM      5  C   UNL     1       1.457  13.818   0.035  0.00  0.00    -0.020 A 
ATOM      6  C   UNL     1       0.127  14.037   0.096  0.00  0.00    +0.010 A 
ATOM      7  S   UNL     1      -0.579  12.468   0.514  0.00  0.00    -0.072 S 
ATOM      8  C   UNL     1      -0.576  15.339  -0.140  0.00  0.00    +0.126 C 
ATOM      9  N   UNL     1       0.428  16.419  -0.102  0.00  0.00    -0.300 NA
ATOM     10  C   UNL     1       1.579  16.086  -0.953  0.00  0.00    +0.089 C 
ATOM     11  C   UNL     1       2.402  14.967  -0.310  0.00  0.00    +0.052 C 
ATOM     12  C   UNL     1      -0.166  17.703  -0.497  0.00  0.00    +0.105 C 
ATOM     13  C   UNL     1       3.262  11.960   0.309  0.00  0.00    +0.268 A 
ATOM     14  O   UNL     1       4.197  12.702   0.061  0.00  0.00    -0.267 OA
ATOM     15  N   UNL     1       3.478  10.661   0.588  0.00  0.00    -0.255 N 
ENDROOT
BRANCH  15  16
ATOM     16  C   UNL     1       4.790  10.167   0.591  0.00  0.00    +0.052 A 
ATOM     17  C   UNL     1       5.584  10.313   1.720  0.00  0.00    +0.028 A 
ATOM     18  C   UNL     1       6.875   9.820   1.722  0.00  0.00    +0.022 A 
ATOM     19  C   UNL     1       7.380   9.193   0.597  0.00  0.00    +0.041 A 
ATOM     20  C   UNL     1       6.591   9.052  -0.531  0.00  0.00    +0.022 A 
ATOM     21  C   UNL     1       5.298   9.537  -0.537  0.00  0.00    +0.028 A 
ATOM     22 CL   UNL     1       9.004   8.582   0.601  0.00  0.00    -0.084 Cl
ENDBRANCH  15  16
BRANCH   1  23
ATOM     23  S   UNL     1       2.775   8.122   1.227  0.00  0.00    -0.078 S 
BRANCH  23  24
ATOM     24  C   UNL     1       1.089   7.523   1.505  0.00  0.00    +0.173 C 
BRANCH  24  26
ATOM     25  N   UNL     1      -0.019   5.389   2.085  0.00  0.00    -0.285 N 
ATOM     26  C   UNL     1       1.127   6.053   1.837  0.00  0.00    +0.227 C 
ATOM     27  O   UNL     1       2.189   5.469   1.882  0.00  0.00    -0.275 OA
ATOM     28  H   UNL     1      -0.987   5.895   1.956  0.00  0.00    +0.155 HD
BRANCH  25  34
ATOM     29  C   UNL     1      -2.118   0.947   2.287  0.00  0.00    +0.044 C 
ATOM     30  C   UNL     1      -0.981   1.880   2.618  0.00  0.00    -0.049 A 
ATOM     31  C   UNL     1       0.105   1.417   3.338  0.00  0.00    +0.003 A 
ATOM     32  C   UNL     1       1.153   2.268   3.638  0.00  0.00    +0.002 A 
ATOM     33  C   UNL     1       1.115   3.586   3.224  0.00  0.00    +0.023 A 
ATOM     34  C   UNL     1       0.023   4.055   2.506  0.00  0.00    +0.034 A 
ATOM     35  C   UNL     1      -1.028   3.197   2.206  0.00  0.00    +0.026 A 
ENDBRANCH  25  34
ENDBRANCH  24  26
ENDBRANCH  23  24
ENDBRANCH   1  23
TORSDOF 5
