REMARK  Name = ZINC66268512
REMARK  8 active torsions:
REMARK  status: ('A' for Active; 'I' for Inactive)
REMARK    1  A    between atoms: C_1  and  C_2
REMARK    2  A    between atoms: C_2  and  C_4
REMARK    3  A    between atoms: C_2  and  N_16
REMARK    4  A    between atoms: C_4  and  C_5
REMARK    5  A    between atoms: N_7  and  C_8
REMARK    6  A    between atoms: C_13  and  S_14
REMARK    7  A    between atoms: S_14  and  C_15
REMARK    8  A    between atoms: C_17  and  C_19
REMARK                            x       y       z     vdW  Elec       q    Type
REMARK                         _______ _______ _______ _____ _____    ______ ____
ROOT
ATOM      1  C   UNL     1       0.729  -0.510   1.250  0.00  0.00    +0.118 C 
ENDROOT
BRANCH   1   2
ATOM      2  C   UNL     1       0.654  -2.014   1.300  0.00  0.00    +0.219 C 
ATOM      3  O   UNL     1       0.065  -2.621   0.430  0.00  0.00    -0.275 OA
ATOM      4  N   UNL     1       1.241  -2.685   2.311  0.00  0.00    -0.285 N 
ATOM      5  H   UNL     1       1.779  -2.208   2.962  0.00  0.00    +0.155 HD
BRANCH   4   6
ATOM      6  C   UNL     1       1.073  -4.072   2.421  0.00  0.00    +0.047 A 
ATOM      7  C   UNL     1      -0.041  -4.684   1.867  0.00  0.00    +0.024 A 
ATOM      8  C   UNL     1      -0.204  -6.053   1.977  0.00  0.00    +0.002 A 
ATOM      9  C   UNL     1       0.742  -6.816   2.638  0.00  0.00    +0.001 A 
ATOM     10  C   UNL     1       1.856  -6.214   3.193  0.00  0.00    +0.016 A 
ATOM     11  C   UNL     1       2.030  -4.842   3.083  0.00  0.00    +0.029 A 
BRANCH  11  12
ATOM     12  S   UNL     1       3.453  -4.073   3.783  0.00  0.00    -0.127 S 
ATOM     13  C   UNL     1       4.379  -5.449   4.517  0.00  0.00    +0.090 C 
ENDBRANCH  11  12
ENDBRANCH   4   6
ENDBRANCH   1   2
BRANCH   1  15
ATOM     14  C   UNL     1      -0.043   1.527   0.027  0.00  0.00    +0.028 C 
ATOM     15  C   UNL     1      -0.013  -0.002   0.012  0.00  0.00    +0.079 C 
BRANCH  15  16
ATOM     16  N   UNL     1       0.678  -0.465  -1.194  0.00  0.00    -0.312 N 
ATOM     17  C   UNL     1      -0.001  -0.596  -2.351  0.00  0.00    +0.216 C 
ATOM     18  O   UNL     1      -1.184  -0.331  -2.393  0.00  0.00    -0.276 OA
ATOM     19  H   UNL     1       1.624  -0.677  -1.161  0.00  0.00    +0.149 HD
BRANCH  17  20
ATOM     20  C   UNL     1       0.709  -1.072  -3.592  0.00  0.00    +0.075 C 
ATOM     21  C   UNL     1       1.841  -0.101  -3.936  0.00  0.00    +0.013 C 
ATOM     22  C   UNL     1       2.562  -0.584  -5.196  0.00  0.00    +0.001 C 
ATOM     23  C   UNL     1       1.571  -0.644  -6.360  0.00  0.00    +0.000 C 
ATOM     24  C   UNL     1       0.439  -1.615  -6.016  0.00  0.00    +0.001 C 
ATOM     25  C   UNL     1      -0.282  -1.132  -4.756  0.00  0.00    +0.013 C 
ENDBRANCH  17  20
ENDBRANCH  15  16
ENDBRANCH   1  15
TORSDOF 6
