REMARK  Name = ZINC22851335
REMARK  13 active torsions:
REMARK  status: ('A' for Active; 'I' for Inactive)
REMARK    1  A    between atoms: C_1  and  C_2
REMARK    2  A    between atoms: C_2  and  N_3
REMARK    3  A    between atoms: N_6  and  C_9
REMARK    4  A    between atoms: C_9  and  C_10
REMARK    5  A    between atoms: C_10  and  C_12
REMARK    6  A    between atoms: C_10  and  O_29
REMARK    7  A    between atoms: C_12  and  O_13
REMARK    8  A    between atoms: O_13  and  C_14
REMARK    9  A    between atoms: C_18  and  C_20
REMARK   10  A    between atoms: C_20  and  N_21
REMARK   11  A    between atoms: N_21  and  C_22
REMARK   12  A    between atoms: C_22  and  C_23
REMARK   13  A    between atoms: C_26  and  C_28
REMARK                            x       y       z     vdW  Elec       q    Type
REMARK                         _______ _______ _______ _____ _____    ______ ____
ROOT
ATOM      1  C   UNL     1      -2.803   1.328   2.402  0.00  0.00    +0.121 A 
ATOM      2  C   UNL     1      -2.319   2.206   3.362  0.00  0.00    +0.045 A 
ATOM      3  C   UNL     1      -3.107   2.546   4.444  0.00  0.00    +0.004 A 
ATOM      4  C   UNL     1      -4.376   2.013   4.572  0.00  0.00    +0.002 A 
ATOM      5  C   UNL     1      -4.860   1.138   3.617  0.00  0.00    -0.061 A 
ATOM      6  C   UNL     1      -4.078   0.798   2.530  0.00  0.00    +0.047 A 
ENDROOT
BRANCH   1   7
ATOM      7  O   UNL     1      -2.030   0.991   1.336  0.00  0.00    -0.489 OA
BRANCH   7   8
ATOM      8  C   UNL     1      -0.729   1.579   1.267  0.00  0.00    +0.261 C 
BRANCH   8   9
ATOM      9  C   UNL     1      -0.013   1.086   0.008  0.00  0.00    +0.166 C 
BRANCH   9  10
ATOM     10  O   UNL     1      -0.704   1.559  -1.150  0.00  0.00    -0.387 OA
ATOM     11  H   UNL     1      -1.755   1.280  -1.315  0.00  0.00    +0.210 HD
ENDBRANCH   9  10
BRANCH   9  12
ATOM     12  C   UNL     1       1.423   1.615  -0.003  0.00  0.00    +0.119 C 
BRANCH  12  16
ATOM     13  N   UNL     1       4.221  -0.105  -2.659  0.00  0.00    +0.381 N 
ATOM     14  C   UNL     1       4.052   1.355  -2.688  0.00  0.00    -0.063 C 
ATOM     15  C   UNL     1       3.405   1.816  -1.379  0.00  0.00    +0.066 C 
ATOM     16  N   UNL     1       2.110   1.142  -1.212  0.00  0.00    -0.303 NA
ATOM     17  C   UNL     1       2.280  -0.318  -1.183  0.00  0.00    +0.066 C 
ATOM     18  C   UNL     1       2.926  -0.779  -2.491  0.00  0.00    -0.063 C 
ATOM     19  H   UNL     1       4.850  -0.357  -1.793  0.00  0.00    -0.082 HD
BRANCH  13  21
ATOM     20  C   UNL     1       5.289  -2.050  -3.695  0.00  0.00    -0.017 C 
ATOM     21  C   UNL     1       4.909  -0.579  -3.868  0.00  0.00    -0.082 C 
ENDBRANCH  13  21
ENDBRANCH  12  16
ENDBRANCH   9  12
ENDBRANCH   8   9
ENDBRANCH   7   8
ENDBRANCH   1   7
BRANCH   5  22
ATOM     22  C   UNL     1      -6.245   0.560   3.759  0.00  0.00    -0.046 C 
BRANCH  22  23
ATOM     23  N   UNL     1      -7.214   1.438   3.091  0.00  0.00    +0.385 N 
ATOM     24  H   UNL     1      -7.184   2.436   3.554  0.00  0.00    -0.085 HD
ATOM     25  H   UNL     1      -6.959   1.522   2.024  0.00  0.00    -0.085 HD
BRANCH  23  26
ATOM     26  C   UNL     1      -8.577   0.905   3.209  0.00  0.00    -0.039 C 
BRANCH  26  27
ATOM     27  C   UNL     1      -9.541   1.831   2.514  0.00  0.00    -0.027 A 
ATOM     28  C   UNL     1      -9.955   1.820   1.223  0.00  0.00    +0.009 A 
ATOM     29  C   UNL     1     -10.857   2.778   0.800  0.00  0.00    +0.011 A 
ATOM     30  C   UNL     1     -11.300   3.701   1.688  0.00  0.00    -0.013 A 
ATOM     31  S   UNL     1     -10.441   3.223   3.178  0.00  0.00    -0.100 S 
ATOM     32  C   UNL     1     -12.272   4.833   1.475  0.00  0.00    +0.051 C 
ENDBRANCH  26  27
ENDBRANCH  23  26
ENDBRANCH  22  23
ENDBRANCH   5  22
TORSDOF 11
