REMARK  Name = ZINC39927326
REMARK  7 active torsions:
REMARK  status: ('A' for Active; 'I' for Inactive)
REMARK    1  A    between atoms: C_1  and  O_2
REMARK    2  A    between atoms: O_2  and  C_3
REMARK    3  A    between atoms: C_8  and  C_9
REMARK    4  A    between atoms: C_13  and  S_17
REMARK    5  A    between atoms: N_15  and  N_16
REMARK    6  A    between atoms: S_17  and  C_18
REMARK    7  A    between atoms: C_18  and  C_19
REMARK                            x       y       z     vdW  Elec       q    Type
REMARK                         _______ _______ _______ _____ _____    ______ ____
ROOT
ATOM      1  C   UNL     1       0.018  -2.829  -0.013  0.00  0.00    +0.219 C 
ATOM      2  N   UNL     1       1.038  -2.189   0.828  0.00  0.00    -0.288 N 
ATOM      3  N   UNL     1       1.610  -3.017   1.544  0.00  0.00    -0.183 NA
ATOM      4  C   UNL     1       1.083  -4.369   1.319  0.00  0.00    +0.270 C 
ATOM      5  N   UNL     1      -0.204  -4.161   0.605  0.00  0.00    -0.183 NA
ATOM      6  H   UNL     1       1.237  -1.240   0.822  0.00  0.00    +0.184 HD
ENDROOT
BRANCH   1  12
ATOM      7  C   UNL     1      -1.200  -0.637   0.010  0.00  0.00    +0.127 A 
ATOM      8  C   UNL     1      -2.375   0.101   0.019  0.00  0.00    +0.046 A 
ATOM      9  C   UNL     1      -3.596  -0.545   0.027  0.00  0.00    +0.004 A 
ATOM     10  C   UNL     1      -3.648  -1.927   0.026  0.00  0.00    +0.001 A 
ATOM     11  C   UNL     1      -2.479  -2.665   0.017  0.00  0.00    +0.011 A 
ATOM     12  C   UNL     1      -1.255  -2.023   0.003  0.00  0.00    +0.034 A 
BRANCH   7  14
ATOM     13  C   UNL     1      -0.017   1.425   0.010  0.00  0.00    +0.277 C 
ATOM     14  O   UNL     1       0.002  -0.004   0.002  0.00  0.00    -0.495 OA
ENDBRANCH   7  14
ENDBRANCH   1  12
BRANCH   5  15
ATOM     15  N   UNL     1      -0.409  -5.179  -0.413  0.00  0.00    -0.263 NA
ATOM     16  H   UNL     1      -0.560  -6.084   0.007  0.00  0.00    +0.137 HD
ATOM     17  H   UNL     1      -1.173  -4.931  -1.024  0.00  0.00    +0.137 HD
ENDBRANCH   5  15
BRANCH   4  18
ATOM     18  S   UNL     1       0.802  -5.210   2.902  0.00  0.00    -0.108 S 
BRANCH  18  19
ATOM     19  C   UNL     1      -0.366  -4.129   3.772  0.00  0.00    +0.146 C 
BRANCH  19  20
ATOM     20  C   UNL     1      -0.688  -4.719   5.120  0.00  0.00    +0.118 A 
ATOM     21  N   UNL     1      -0.032  -4.474   6.217  0.00  0.00    -0.232 NA
ATOM     22  C   UNL     1      -0.585  -5.168   7.245  0.00  0.00    +0.089 A 
ATOM     23  C   UNL     1      -0.289  -5.273   8.606  0.00  0.00    +0.030 A 
ATOM     24  C   UNL     1      -1.052  -6.074   9.409  0.00  0.00    +0.002 A 
ATOM     25  C   UNL     1      -2.120  -6.788   8.886  0.00  0.00    +0.002 A 
ATOM     26  C   UNL     1      -2.430  -6.700   7.545  0.00  0.00    +0.028 A 
ATOM     27  C   UNL     1      -1.668  -5.891   6.715  0.00  0.00    +0.066 A 
ATOM     28  N   UNL     1      -1.710  -5.581   5.370  0.00  0.00    -0.341 N 
ATOM     29  H   UNL     1      -2.349  -5.918   4.723  0.00  0.00    +0.167 HD
ENDBRANCH  19  20
ENDBRANCH  18  19
ENDBRANCH   4  18
TORSDOF 6
