REMARK  Name = ZINC08873844
REMARK  8 active torsions:
REMARK  status: ('A' for Active; 'I' for Inactive)
REMARK    1  A    between atoms: C_1  and  C_2
REMARK    2  A    between atoms: C_4  and  C_30
REMARK    3  A    between atoms: C_8  and  C_26
REMARK    4  A    between atoms: N_12  and  C_13
REMARK    5  A    between atoms: C_13  and  C_14
REMARK    6  A    between atoms: C_14  and  N_15
REMARK    7  A    between atoms: N_15  and  C_16
REMARK    8  A    between atoms: C_19  and  C_21
REMARK                            x       y       z     vdW  Elec       q    Type
REMARK                         _______ _______ _______ _____ _____    ______ ____
ROOT
ATOM      1  C   UNL     1      -0.803  -5.055   2.401  0.00  0.00    +0.061 C 
ATOM      2  C   UNL     1      -1.676  -5.399   1.222  0.00  0.00    +0.010 C 
ATOM      3  C   UNL     1      -2.698  -6.240   1.472  0.00  0.00    +0.041 C 
ATOM      4  C   UNL     1      -3.676  -6.750   0.587  0.00  0.00    +0.040 C 
ATOM      5  N   UNL     1      -3.838  -6.532  -0.690  0.00  0.00    -0.251 NA
ATOM      6  C   UNL     1      -3.095  -5.738  -1.532  0.00  0.00    +0.086 A 
ATOM      7  C   UNL     1      -3.585  -5.764  -2.833  0.00  0.00    +0.042 A 
ATOM      8  C   UNL     1      -2.957  -5.019  -3.819  0.00  0.00    +0.057 A 
ATOM      9  C   UNL     1      -1.850  -4.254  -3.515  0.00  0.00    +0.014 A 
ATOM     10  C   UNL     1      -1.355  -4.223  -2.218  0.00  0.00    +0.026 A 
ATOM     11  C   UNL     1      -1.971  -4.960  -1.228  0.00  0.00    +0.059 A 
ATOM     12  N   UNL     1      -1.331  -4.806   0.021  0.00  0.00    -0.301 N 
ATOM     13  C   UNL     1      -4.680  -7.686   1.211  0.00  0.00    +0.065 C 
ENDROOT
BRANCH   8  14
ATOM     14  C   UNL     1      -3.486  -5.046  -5.230  0.00  0.00    +0.417 C 
ATOM     15  F   UNL     1      -4.434  -4.029  -5.392  0.00  0.00    -0.166 F 
ATOM     16  F   UNL     1      -2.432  -4.848  -6.127  0.00  0.00    -0.166 F 
ATOM     17  F   UNL     1      -4.085  -6.285  -5.480  0.00  0.00    -0.166 F 
ENDBRANCH   8  14
BRANCH  12  18
ATOM     18  C   UNL     1      -0.163  -3.921   0.047  0.00  0.00    +0.129 C 
BRANCH  18  19
ATOM     19  C   UNL     1       1.073  -4.694  -0.418  0.00  0.00    +0.122 C 
BRANCH  19  20
ATOM     20  N   UNL     1       2.240  -3.810  -0.392  0.00  0.00    -0.328 N 
ATOM     21  H   UNL     1       2.144  -2.888  -0.108  0.00  0.00    +0.147 HD
BRANCH  20  22
ATOM     22  C   UNL     1       3.487  -4.293  -0.776  0.00  0.00    +0.115 A 
ATOM     23  C   UNL     1       4.593  -3.447  -0.749  0.00  0.00    +0.079 A 
ATOM     24  C   UNL     1       5.827  -3.941  -1.133  0.00  0.00    +0.037 A 
ATOM     25  C   UNL     1       5.914  -5.268  -1.532  0.00  0.00    +0.072 A 
ATOM     26  C   UNL     1       4.777  -6.050  -1.534  0.00  0.00    +0.096 A 
ATOM     27 CL   UNL     1       4.425  -1.795  -0.241  0.00  0.00    -0.080 Cl
ATOM     28  N   UNL     1       3.548  -5.599  -1.164  0.00  0.00    -0.348 N 
ATOM     29  H   UNL     1       2.719  -6.204  -1.176  0.00  0.00    +0.167 HD
BRANCH  25  30
ATOM     30  C   UNL     1       7.238  -5.849  -1.958  0.00  0.00    +0.419 C 
ATOM     31  F   UNL     1       7.066  -7.192  -2.310  0.00  0.00    -0.166 F 
ATOM     32  F   UNL     1       7.727  -5.137  -3.058  0.00  0.00    -0.166 F 
ATOM     33  F   UNL     1       8.149  -5.758  -0.900  0.00  0.00    -0.166 F 
ENDBRANCH  25  30
ENDBRANCH  20  22
ENDBRANCH  19  20
ENDBRANCH  18  19
ENDBRANCH  12  18
TORSDOF 6
