REMARK  Name = ZINC01144565
REMARK  9 active torsions:
REMARK  status: ('A' for Active; 'I' for Inactive)
REMARK    1  A    between atoms: C_1  and  O_2
REMARK    2  A    between atoms: O_2  and  C_3
REMARK    3  A    between atoms: C_5  and  C_10
REMARK    4  A    between atoms: C_8  and  O_9
REMARK    5  A    between atoms: C_12  and  C_33
REMARK    6  A    between atoms: C_13  and  S_22
REMARK    7  A    between atoms: S_22  and  C_23
REMARK    8  A    between atoms: C_23  and  C_24
REMARK    9  A    between atoms: N_26  and  C_27
REMARK                            x       y       z     vdW  Elec       q    Type
REMARK                         _______ _______ _______ _____ _____    ______ ____
ROOT
ATOM      1  C   UNL     1      -4.871   0.257   0.037  0.00  0.00    +0.097 C 
ATOM      2  C   UNL     1      -5.631  -0.042  -1.243  0.00  0.00    +0.073 C 
ATOM      3  C   UNL     1      -6.911  -0.552  -1.116  0.00  0.00    +0.112 C 
ATOM      4  N   UNL     1      -7.474  -0.781   0.072  0.00  0.00    -0.244 NA
ATOM      5  C   UNL     1      -6.913  -0.561   1.235  0.00  0.00    +0.050 C 
ATOM      6  C   UNL     1      -5.612  -0.045   1.326  0.00  0.00    +0.029 C 
ATOM      7  C   UNL     1      -5.020   0.186   2.510  0.00  0.00    +0.162 C 
ATOM      8  C   UNL     1      -5.726  -0.104   3.807  0.00  0.00    +0.080 C 
ATOM      9  C   UNL     1      -7.236   0.058   3.608  0.00  0.00    +0.014 C 
ATOM     10  C   UNL     1      -7.686  -0.875   2.495  0.00  0.00    +0.056 C 
ATOM     11  O   UNL     1      -3.769   0.687   2.536  0.00  0.00    -0.292 OA
ENDROOT
BRANCH   1  14
ATOM     12  C   UNL     1      -1.201  -0.638   0.010  0.00  0.00    +0.162 A 
ATOM     13  C   UNL     1      -2.374   0.099   0.019  0.00  0.00    +0.054 A 
ATOM     14  C   UNL     1      -3.596  -0.546   0.027  0.00  0.00    -0.031 A 
ATOM     15  C   UNL     1      -3.652  -1.928   0.026  0.00  0.00    +0.008 A 
ATOM     16  C   UNL     1      -2.485  -2.669   0.017  0.00  0.00    +0.049 A 
ATOM     17  C   UNL     1      -1.257  -2.028   0.003  0.00  0.00    +0.158 A 
BRANCH  12  19
ATOM     18  C   UNL     1      -0.017   1.425   0.010  0.00  0.00    +0.277 C 
ATOM     19  O   UNL     1       0.002  -0.004   0.002  0.00  0.00    -0.491 OA
ENDBRANCH  12  19
BRANCH  17  20
ATOM     20  O   UNL     1      -0.108  -2.756  -0.012  0.00  0.00    -0.503 OA
ATOM     21  H   UNL     1       0.232  -2.972   0.867  0.00  0.00    +0.292 HD
ENDBRANCH  17  20
ENDBRANCH   1  14
BRANCH   2  22
ATOM     22  C   UNL     1      -5.046   0.196  -2.529  0.00  0.00    +0.098 C 
ATOM     23  N   UNL     1      -4.583   0.384  -3.549  0.00  0.00    -0.191 NA
ENDBRANCH   2  22
BRANCH   3  24
ATOM     24  S   UNL     1      -7.830  -0.913  -2.575  0.00  0.00    -0.096 S 
BRANCH  24  25
ATOM     25  C   UNL     1      -9.412  -1.546  -1.952  0.00  0.00    +0.171 C 
BRANCH  25  26
ATOM     26  C   UNL     1     -10.305  -1.898  -3.114  0.00  0.00    +0.223 C 
ATOM     27  O   UNL     1      -9.914  -1.737  -4.250  0.00  0.00    -0.275 OA
ATOM     28  N   UNL     1     -11.540  -2.390  -2.890  0.00  0.00    -0.312 N 
ATOM     29  H   UNL     1     -11.853  -2.519  -1.981  0.00  0.00    +0.149 HD
BRANCH  28  30
ATOM     30  C   UNL     1     -12.408  -2.732  -4.019  0.00  0.00    +0.073 C 
ATOM     31  C   UNL     1     -13.152  -1.480  -4.487  0.00  0.00    +0.022 C 
ATOM     32  C   UNL     1     -14.059  -1.837  -5.667  0.00  0.00    +0.002 C 
ATOM     33  C   UNL     1     -15.071  -2.898  -5.229  0.00  0.00    +0.000 C 
ATOM     34  C   UNL     1     -14.327  -4.150  -4.761  0.00  0.00    +0.002 C 
ATOM     35  C   UNL     1     -13.420  -3.793  -3.582  0.00  0.00    +0.022 C 
ENDBRANCH  28  30
ENDBRANCH  25  26
ENDBRANCH  24  25
ENDBRANCH   3  24
TORSDOF 8
