REMARK  Name = ZINC03267656
REMARK  2 active torsions:
REMARK  status: ('A' for Active; 'I' for Inactive)
REMARK    1  A    between atoms: C_2  and  S_11
REMARK    2  A    between atoms: S_11  and  C_14
REMARK                            x       y       z     vdW  Elec       q    Type
REMARK                         _______ _______ _______ _____ _____    ______ ____
ROOT
ATOM      1  S   UNL     1       1.145   3.849   0.011  0.00  0.00    +0.028 S 
ATOM      2  O   UNL     1       2.025   4.273  -1.020  0.00  0.00    -0.164 OA
ATOM      3  O   UNL     1      -0.222   4.235   0.053  0.00  0.00    -0.164 OA
ENDROOT
BRANCH   1   5
ATOM      4  C   UNL     1      -0.017   1.379   0.010  0.00  0.00    +0.050 A 
ATOM      5  C   UNL     1       1.171   2.087   0.002  0.00  0.00    +0.115 A 
ATOM      6  C   UNL     1       2.378   1.413  -0.013  0.00  0.00    +0.086 A 
ATOM      7  C   UNL     1       2.399   0.029  -0.021  0.00  0.00    +0.081 A 
ATOM      8  C   UNL     1       1.210  -0.680  -0.013  0.00  0.00    +0.079 A 
ATOM      9  C   UNL     1       0.002  -0.004   0.002  0.00  0.00    +0.063 A 
ATOM     10 CL   UNL     1      -1.489  -0.892   0.011  0.00  0.00    -0.082 Cl
ATOM     11 CL   UNL     1       1.235  -2.416  -0.023  0.00  0.00    -0.080 Cl
ATOM     12 CL   UNL     1       3.915  -0.817  -0.040  0.00  0.00    -0.080 Cl
ATOM     13 CL   UNL     1       3.869   2.304  -0.023  0.00  0.00    -0.080 Cl
ENDBRANCH   1   5
BRANCH   1  14
ATOM     14  C   UNL     1       1.863   4.372   1.533  0.00  0.00    +0.115 A 
ATOM     15  C   UNL     1       3.049   5.082   1.529  0.00  0.00    +0.050 A 
ATOM     16  C   UNL     1       3.614   5.494   2.722  0.00  0.00    +0.063 A 
ATOM     17  C   UNL     1       2.991   5.195   3.922  0.00  0.00    +0.079 A 
ATOM     18  C   UNL     1       1.803   4.484   3.926  0.00  0.00    +0.081 A 
ATOM     19  C   UNL     1       1.236   4.078   2.730  0.00  0.00    +0.086 A 
ATOM     20 CL   UNL     1      -0.257   3.192   2.734  0.00  0.00    -0.080 Cl
ATOM     21 CL   UNL     1       1.021   4.108   5.430  0.00  0.00    -0.080 Cl
ATOM     22 CL   UNL     1       3.699   5.711   5.421  0.00  0.00    -0.080 Cl
ATOM     23 CL   UNL     1       5.104   6.385   2.716  0.00  0.00    -0.082 Cl
ENDBRANCH   1  14
TORSDOF 2
