REMARK  Name = ZINC35374934
REMARK  7 active torsions:
REMARK  status: ('A' for Active; 'I' for Inactive)
REMARK    1  A    between atoms: C_1  and  C_2
REMARK    2  A    between atoms: C_2  and  C_3
REMARK    3  A    between atoms: C_3  and  C_5
REMARK    4  A    between atoms: C_3  and  C_6
REMARK    5  A    between atoms: C_6  and  N_7
REMARK    6  A    between atoms: C_8  and  C_10
REMARK    7  A    between atoms: C_21  and  C_23
REMARK                            x       y       z     vdW  Elec       q    Type
REMARK                         _______ _______ _______ _____ _____    ______ ____
ROOT
ATOM      1  C   UNL     1      -3.607  -4.543   0.915  0.00  0.00    +0.028 C 
ATOM      2  C   UNL     1      -4.239  -3.976  -0.390  0.00  0.00    +0.061 C 
ATOM      3  S   UNL     1      -5.737  -5.060  -0.462  0.00  0.00    -0.174 S 
ATOM      4  C   UNL     1      -4.992  -6.531   0.351  0.00  0.00    -0.016 C 
ATOM      5  N   UNL     1      -3.777  -5.998   0.986  0.00  0.00    +0.397 N 
ATOM      6  C   UNL     1      -5.959  -7.084   1.388  0.00  0.00    +0.017 C 
ATOM      7  C   UNL     1      -5.328  -8.300   2.077  0.00  0.00    +0.107 C 
ATOM      8  N   UNL     1      -4.900  -9.256   1.048  0.00  0.00    -0.298 N 
ATOM      9  C   UNL     1      -4.009  -8.793  -0.024  0.00  0.00    +0.107 C 
ATOM     10  C   UNL     1      -4.647  -7.574  -0.702  0.00  0.00    +0.017 C 
ATOM     11  C   UNL     1      -5.319 -10.537   1.085  0.00  0.00    +0.248 C 
ATOM     12  O   UNL     1      -5.993 -10.929   2.017  0.00  0.00    -0.270 OA
ATOM     13  H   UNL     1      -2.977  -6.430   0.549  0.00  0.00    -0.083 HD
ATOM     14  H   UNL     1      -3.787  -6.267   1.958  0.00  0.00    -0.083 HD
ENDROOT
BRANCH  11  15
ATOM     15  C   UNL     1      -4.957 -11.465  -0.007  0.00  0.00    +0.051 A 
ATOM     16  C   UNL     1      -3.617 -11.652  -0.353  0.00  0.00    +0.014 A 
ATOM     17  C   UNL     1      -3.286 -12.520  -1.373  0.00  0.00    +0.001 A 
ATOM     18  C   UNL     1      -4.279 -13.204  -2.053  0.00  0.00    +0.001 A 
ATOM     19  C   UNL     1      -5.608 -13.024  -1.716  0.00  0.00    +0.016 A 
ATOM     20  C   UNL     1      -5.953 -12.163  -0.693  0.00  0.00    +0.030 A 
ATOM     21 BR   UNL     1      -7.770 -11.924  -0.228  0.00  0.00    -0.050 Br
ENDBRANCH  11  15
BRANCH   1  23
ATOM     22  N   UNL     1      -1.733  -2.928   0.909  0.00  0.00    -0.316 N 
ATOM     23  C   UNL     1      -2.137  -4.214   0.938  0.00  0.00    +0.200 C 
ATOM     24  O   UNL     1      -1.316  -5.106   0.982  0.00  0.00    -0.278 OA
ATOM     25  H   UNL     1      -2.389  -2.214   0.875  0.00  0.00    +0.149 HD
BRANCH  22  26
ATOM     26  C   UNL     1      -0.304  -2.608   0.931  0.00  0.00    +0.107 C 
BRANCH  26  27
ATOM     27  C   UNL     1      -0.120  -1.090   0.891  0.00  0.00    +0.003 C 
ATOM     28  C   UNL     1      -0.636  -0.548  -0.444  0.00  0.00    +0.009 C 
BRANCH  27  30
ATOM     29  C   UNL     1       1.535   0.767   1.125  0.00  0.00    +0.004 C 
ATOM     30  C   UNL     1       1.364  -0.751   1.040  0.00  0.00    +0.001 C 
ENDBRANCH  27  30
ENDBRANCH  26  27
ENDBRANCH  22  26
ENDBRANCH   1  23
TORSDOF 5
