REMARK  Name = ZINC60349853
REMARK  6 active torsions:
REMARK  status: ('A' for Active; 'I' for Inactive)
REMARK    1  A    between atoms: C_1  and  C_2
REMARK    2  A    between atoms: C_3  and  C_13
REMARK    3  A    between atoms: C_5  and  C_7
REMARK    4  A    between atoms: C_13  and  N_14
REMARK    5  A    between atoms: C_17  and  C_21
REMARK    6  A    between atoms: C_17  and  C_22
REMARK                            x       y       z     vdW  Elec       q    Type
REMARK                         _______ _______ _______ _____ _____    ______ ____
ROOT
ATOM      1  N   UNL     1       1.367   0.042  -3.054  0.00  0.00    -0.219 N 
ATOM      2  C   UNL     1       2.067   1.182  -2.897  0.00  0.00    +0.254 C 
ATOM      3  O   UNL     1       1.692   2.205  -2.366  0.00  0.00    -0.272 OA
ATOM      4  C   UNL     1       3.423   0.920  -3.523  0.00  0.00    +0.168 C 
ATOM      5  N   UNL     1       3.318  -0.469  -4.005  0.00  0.00    -0.279 N 
ATOM      6  C   UNL     1       2.085  -0.897  -3.681  0.00  0.00    +0.310 C 
ATOM      7  O   UNL     1       1.669  -2.011  -3.932  0.00  0.00    -0.252 OA
ATOM      8  C   UNL     1       3.671   1.877  -4.691  0.00  0.00    +0.050 C 
ATOM      9  H   UNL     1       4.006  -0.976  -4.464  0.00  0.00    +0.152 HD
ENDROOT
BRANCH   4  10
ATOM     10  C   UNL     1       4.515   1.043  -2.493  0.00  0.00    +0.138 A 
ATOM     11  C   UNL     1       5.674   0.370  -2.519  0.00  0.00    +0.056 A 
ATOM     12  C   UNL     1       6.423   0.799  -1.332  0.00  0.00    +0.020 A 
ATOM     13  C   UNL     1       7.670   0.478  -0.798  0.00  0.00    +0.011 A 
ATOM     14  C   UNL     1       8.086   1.076   0.359  0.00  0.00    +0.001 A 
ATOM     15  C   UNL     1       7.274   1.998   1.005  0.00  0.00    +0.004 A 
ATOM     16  C   UNL     1       6.038   2.328   0.491  0.00  0.00    +0.047 A 
ATOM     17  C   UNL     1       5.597   1.732  -0.684  0.00  0.00    +0.135 A 
ATOM     18  O   UNL     1       4.472   1.848  -1.417  0.00  0.00    -0.457 OA
ENDBRANCH   4  10
BRANCH   1  19
ATOM     19  C   UNL     1      -0.010  -0.149  -2.589  0.00  0.00    +0.162 C 
BRANCH  19  22
ATOM     20  C   UNL     1      -0.018   1.503   0.010  0.00  0.00    +0.066 C 
ATOM     21  C   UNL     1       0.002  -0.004   0.002  0.00  0.00    +0.051 A 
ATOM     22  C   UNL     1       0.005  -0.679  -1.179  0.00  0.00    +0.031 A 
ATOM     23  S   UNL     1       0.031  -2.368  -0.593  0.00  0.00    -0.070 S 
ATOM     24  C   UNL     1       0.035  -1.993   1.155  0.00  0.00    +0.109 A 
ATOM     25  N   UNL     1       0.022  -0.667   1.134  0.00  0.00    -0.244 NA
BRANCH  24  26
ATOM     26  C   UNL     1       0.053  -2.913   2.313  0.00  0.00    +0.007 A 
ATOM     27  C   UNL     1       0.076  -4.293   2.110  0.00  0.00    +0.010 A 
ATOM     28  C   UNL     1       0.092  -5.146   3.194  0.00  0.00    +0.001 A 
ATOM     29  C   UNL     1       0.086  -4.636   4.480  0.00  0.00    +0.000 A 
ATOM     30  C   UNL     1       0.063  -3.268   4.688  0.00  0.00    +0.001 A 
ATOM     31  C   UNL     1       0.053  -2.404   3.612  0.00  0.00    +0.010 A 
ENDBRANCH  24  26
ENDBRANCH  19  22
ENDBRANCH   1  19
TORSDOF 4
