REMARK  Name = ZINC35865787
REMARK  10 active torsions:
REMARK  status: ('A' for Active; 'I' for Inactive)
REMARK    1  A    between atoms: C_1  and  C_2
REMARK    2  A    between atoms: C_11  and  N_18
REMARK    3  A    between atoms: C_13  and  C_15
REMARK    4  A    between atoms: C_15  and  C_16
REMARK    5  A    between atoms: C_15  and  C_17
REMARK    6  A    between atoms: C_24  and  C_26
REMARK    7  A    between atoms: C_26  and  C_27
REMARK    8  A    between atoms: C_27  and  C_28
REMARK    9  A    between atoms: C_27  and  C_29
REMARK   10  A    between atoms: C_27  and  C_30
REMARK                            x       y       z     vdW  Elec       q    Type
REMARK                         _______ _______ _______ _____ _____    ______ ____
ROOT
ATOM      1  C   UNL     1      -1.177   1.151   0.215  0.00  0.00    +0.008 C 
ATOM      2  C   UNL     1      -0.893  -0.351   0.145  0.00  0.00    -0.009 C 
ATOM      3  C   UNL     1      -0.042  -0.655  -1.092  0.00  0.00    +0.008 C 
ATOM      4  C   UNL     1       0.038  -2.167  -1.306  0.00  0.00    +0.037 C 
ATOM      5  C   UNL     1       0.507  -2.826  -0.012  0.00  0.00    -0.025 A 
ATOM      6  C   UNL     1       0.416  -2.168   1.166  0.00  0.00    -0.004 A 
ATOM      7  S   UNL     1       1.063  -3.291   2.380  0.00  0.00    -0.073 S 
ATOM      8  C   UNL     1       1.455  -4.638   1.311  0.00  0.00    +0.114 A 
ATOM      9  C   UNL     1       1.065  -4.168   0.031  0.00  0.00    +0.051 A 
ATOM     10  C   UNL     1       1.262  -5.053  -1.067  0.00  0.00    +0.133 A 
ATOM     11  N   UNL     1       1.796  -6.237  -0.769  0.00  0.00    -0.216 NA
ATOM     12  C   UNL     1       2.134  -6.606   0.449  0.00  0.00    +0.135 A 
ATOM     13  N   UNL     1       1.978  -5.831   1.516  0.00  0.00    -0.224 NA
ATOM     14  C   UNL     1      -0.119  -0.788   1.397  0.00  0.00    +0.046 C 
ENDROOT
BRANCH  10  15
ATOM     15  N   UNL     1       0.921  -4.705  -2.361  0.00  0.00    -0.312 N 
ATOM     16  C   UNL     1       1.929  -4.157  -3.279  0.00  0.00    +0.125 C 
ATOM     17  C   UNL     1       1.958  -5.019  -4.547  0.00  0.00    +0.126 C 
ATOM     18  N   UNL     1       0.581  -5.192  -5.030  0.00  0.00    -0.298 N 
ATOM     19  C   UNL     1      -0.427  -5.741  -4.112  0.00  0.00    +0.126 C 
ATOM     20  C   UNL     1      -0.455  -4.884  -2.846  0.00  0.00    +0.125 C 
ATOM     21  C   UNL     1       0.248  -4.854  -6.291  0.00  0.00    +0.216 C 
ATOM     22  O   UNL     1       1.089  -4.401  -7.039  0.00  0.00    -0.276 OA
BRANCH  21  23
ATOM     23  C   UNL     1      -1.168  -5.037  -6.771  0.00  0.00    +0.102 C 
BRANCH  23  24
ATOM     24  C   UNL     1      -1.276  -4.579  -8.227  0.00  0.00    -0.029 C 
ATOM     25  C   UNL     1      -0.331  -5.412  -9.095  0.00  0.00    +0.011 C 
ATOM     26  C   UNL     1      -2.714  -4.765  -8.715  0.00  0.00    +0.011 C 
ATOM     27  C   UNL     1      -0.891  -3.102  -8.327  0.00  0.00    +0.011 C 
ENDBRANCH  23  24
ENDBRANCH  21  23
ENDBRANCH  10  15
BRANCH  12  28
ATOM     28  C   UNL     1       2.728  -7.978   0.642  0.00  0.00    +0.051 C 
ATOM     29  C   UNL     1       4.130  -7.846   1.241  0.00  0.00    +0.015 C 
ATOM     30  C   UNL     1       1.842  -8.788   1.591  0.00  0.00    +0.015 C 
ENDBRANCH  12  28
TORSDOF 4
