REMARK  Name = ZINC08530357
REMARK  12 active torsions:
REMARK  status: ('A' for Active; 'I' for Inactive)
REMARK    1  A    between atoms: C_1  and  C_2
REMARK    2  A    between atoms: C_2  and  C_4
REMARK    3  A    between atoms: C_2  and  N_14
REMARK    4  A    between atoms: N_9  and  C_10
REMARK    5  A    between atoms: C_10  and  C_11
REMARK    6  A    between atoms: C_10  and  C_12
REMARK    7  A    between atoms: C_10  and  C_13
REMARK    8  A    between atoms: N_14  and  C_15
REMARK    9  A    between atoms: N_14  and  C_16
REMARK   10  A    between atoms: C_16  and  C_17
REMARK   11  A    between atoms: C_22  and  O_23
REMARK   12  A    between atoms: O_23  and  C_24
REMARK                            x       y       z     vdW  Elec       q    Type
REMARK                         _______ _______ _______ _____ _____    ______ ____
ROOT
ATOM      1  C   UNL     1       0.025   1.398  -0.600  0.00  0.00    -0.004 C 
ATOM      2  C   UNL     1      -0.097  -0.042  -0.097  0.00  0.00    +0.017 C 
ENDROOT
BRANCH   2   3
ATOM      3  C   UNL     1      -1.528  -0.497  -0.223  0.00  0.00    +0.207 C 
ATOM      4  O   UNL     1      -1.891  -1.086  -1.219  0.00  0.00    -0.277 OA
ATOM      5  N   UNL     1      -2.404  -0.251   0.771  0.00  0.00    -0.242 N 
ATOM      6  C   UNL     1      -3.684  -0.659   0.658  0.00  0.00    +0.306 C 
ATOM      7  O   UNL     1      -4.048  -1.249  -0.340  0.00  0.00    -0.252 OA
ATOM      8  N   UNL     1      -4.560  -0.412   1.652  0.00  0.00    -0.294 N 
ATOM      9  H   UNL     1      -2.114   0.220   1.568  0.00  0.00    +0.159 HD
ATOM     10  H   UNL     1      -4.269   0.058   2.449  0.00  0.00    +0.151 HD
BRANCH   8  11
ATOM     11  C   UNL     1      -5.950  -0.856   1.530  0.00  0.00    +0.028 C 
ATOM     12  C   UNL     1      -5.989  -2.377   1.372  0.00  0.00    +0.031 C 
ATOM     13  C   UNL     1      -6.727  -0.454   2.785  0.00  0.00    +0.031 C 
ATOM     14  C   UNL     1      -6.589  -0.200   0.304  0.00  0.00    +0.031 C 
ENDBRANCH   8  11
ENDBRANCH   2   3
BRANCH   2  15
ATOM     15  N   UNL     1       0.768  -0.916  -0.899  0.00  0.00    +0.388 N 
ATOM     16  C   UNL     1       2.158  -0.449  -0.806  0.00  0.00    -0.095 C 
ATOM     17  H   UNL     1       0.469  -0.893  -1.863  0.00  0.00    -0.081 HD
BRANCH  15  18
ATOM     18  C   UNL     1       0.679  -2.292  -0.392  0.00  0.00    -0.039 C 
BRANCH  18  19
ATOM     19  C   UNL     1       1.457  -3.212  -1.297  0.00  0.00    -0.021 A 
ATOM     20  C   UNL     1       0.797  -3.969  -2.247  0.00  0.00    +0.020 A 
ATOM     21  C   UNL     1       1.511  -4.814  -3.077  0.00  0.00    +0.018 A 
ATOM     22  C   UNL     1       2.887  -4.903  -2.959  0.00  0.00    +0.019 A 
ATOM     23  C   UNL     1       3.550  -4.148  -2.012  0.00  0.00    +0.047 A 
ATOM     24  C   UNL     1       2.837  -3.296  -1.181  0.00  0.00    +0.122 A 
ATOM     25 BR   UNL     1       0.605  -5.848  -4.375  0.00  0.00    -0.050 Br
BRANCH  24  26
ATOM     26  O   UNL     1       3.488  -2.549  -0.251  0.00  0.00    -0.495 OA
ATOM     27  C   UNL     1       4.909  -2.686  -0.189  0.00  0.00    +0.277 C 
ENDBRANCH  24  26
ENDBRANCH  18  19
ENDBRANCH  15  18
ENDBRANCH   2  15
TORSDOF 6
