REMARK  Name = ZINC09542754
REMARK  10 active torsions:
REMARK  status: ('A' for Active; 'I' for Inactive)
REMARK    1  A    between atoms: C_1  and  C_2
REMARK    2  A    between atoms: C_2  and  O_3
REMARK    3  A    between atoms: O_3  and  C_4
REMARK    4  A    between atoms: C_8  and  C_11
REMARK    5  A    between atoms: C_9  and  O_10
REMARK    6  A    between atoms: C_14  and  C_27
REMARK    7  A    between atoms: C_16  and  C_18
REMARK    8  A    between atoms: C_23  and  O_24
REMARK    9  A    between atoms: O_24  and  C_25
REMARK   10  A    between atoms: C_30  and  C_33
REMARK                            x       y       z     vdW  Elec       q    Type
REMARK                         _______ _______ _______ _____ _____    ______ ____
ROOT
ATOM      1  C   UNL     1      -4.246   3.364   3.305  0.00  0.00    -0.028 C 
ATOM      2  C   UNL     1      -4.842   1.991   2.977  0.00  0.00    +0.044 C 
ATOM      3  C   UNL     1      -3.739   1.044   2.595  0.00  0.00    +0.040 C 
ATOM      4  N   UNL     1      -2.504   1.276   2.836  0.00  0.00    -0.298 NA
ATOM      5  C   UNL     1      -2.011   2.478   3.495  0.00  0.00    +0.084 C 
ATOM      6  N   UNL     1      -3.097   3.164   4.210  0.00  0.00    +0.401 N 
ATOM      7  H   UNL     1      -3.391   2.594   5.012  0.00  0.00    -0.081 HD
ATOM      8  H   UNL     1      -2.764   4.077   4.543  0.00  0.00    -0.081 HD
ENDROOT
BRANCH   5   9
ATOM      9  C   UNL     1      -1.430   3.408   2.462  0.00  0.00    +0.002 A 
ATOM     10  C   UNL     1      -1.533   4.776   2.627  0.00  0.00    +0.022 A 
ATOM     11  C   UNL     1      -1.004   5.630   1.676  0.00  0.00    +0.018 A 
ATOM     12  C   UNL     1      -0.367   5.117   0.560  0.00  0.00    +0.019 A 
ATOM     13  C   UNL     1      -0.258   3.751   0.393  0.00  0.00    +0.047 A 
ATOM     14  C   UNL     1      -0.787   2.892   1.346  0.00  0.00    +0.123 A 
ATOM     15 BR   UNL     1      -1.152   7.502   1.902  0.00  0.00    -0.050 Br
BRANCH  14  16
ATOM     16  O   UNL     1      -0.682   1.547   1.184  0.00  0.00    -0.495 OA
ATOM     17  C   UNL     1      -0.013   1.086   0.008  0.00  0.00    +0.277 C 
ENDBRANCH  14  16
ENDBRANCH   5   9
BRANCH   3  18
ATOM     18  C   UNL     1      -4.098  -0.213   1.908  0.00  0.00    -0.004 A 
ATOM     19  C   UNL     1      -5.436  -0.504   1.633  0.00  0.00    +0.010 A 
ATOM     20  C   UNL     1      -5.763  -1.678   0.986  0.00  0.00    +0.004 A 
ATOM     21  C   UNL     1      -4.771  -2.570   0.621  0.00  0.00    -0.050 A 
ATOM     22  C   UNL     1      -3.445  -2.291   0.896  0.00  0.00    +0.004 A 
ATOM     23  C   UNL     1      -3.102  -1.118   1.537  0.00  0.00    +0.010 A 
ATOM     24  C   UNL     1      -5.138  -3.853  -0.080  0.00  0.00    +0.044 C 
ENDBRANCH   3  18
BRANCH   1  29
ATOM     25  C   UNL     1      -7.194   5.671   3.867  0.00  0.00    +0.162 A 
ATOM     26  C   UNL     1      -7.188   5.788   5.247  0.00  0.00    +0.049 A 
ATOM     27  C   UNL     1      -6.232   5.123   5.993  0.00  0.00    +0.004 A 
ATOM     28  C   UNL     1      -5.285   4.336   5.365  0.00  0.00    +0.006 A 
ATOM     29  C   UNL     1      -5.283   4.219   3.987  0.00  0.00    -0.016 A 
ATOM     30  C   UNL     1      -6.238   4.883   3.234  0.00  0.00    +0.160 A 
BRANCH  30  31
ATOM     31  O   UNL     1      -6.240   4.764   1.879  0.00  0.00    -0.503 OA
ATOM     32  H   UNL     1      -6.777   4.030   1.550  0.00  0.00    +0.292 HD
ENDBRANCH  30  31
BRANCH  25  33
ATOM     33  O   UNL     1      -8.133   6.325   3.132  0.00  0.00    -0.489 OA
BRANCH  33  35
ATOM     34  C   UNL     1     -10.052   7.769   2.861  0.00  0.00    +0.048 C 
ATOM     35  C   UNL     1      -9.084   7.115   3.849  0.00  0.00    +0.226 C 
ENDBRANCH  33  35
ENDBRANCH  25  33
ENDBRANCH   1  29
TORSDOF 7
