REMARK  Name = ZINC01817567
REMARK  12 active torsions:
REMARK  status: ('A' for Active; 'I' for Inactive)
REMARK    1  A    between atoms: C_1  and  C_2
REMARK    2  A    between atoms: C_2  and  C_3
REMARK    3  A    between atoms: C_8  and  C_30
REMARK    4  A    between atoms: C_9  and  C_25
REMARK    5  A    between atoms: C_12  and  C_15
REMARK    6  A    between atoms: C_13  and  O_14
REMARK    7  A    between atoms: C_15  and  N_69
REMARK    8  A    between atoms: C_16  and  C_24
REMARK    9  A    between atoms: C_21  and  C_23
REMARK   10  A    between atoms: C_25  and  O_27
REMARK   11  A    between atoms: O_27  and  C_28
REMARK   12  A    between atoms: C_28  and  C_29
REMARK                            x       y       z     vdW  Elec       q    Type
REMARK                         _______ _______ _______ _____ _____    ______ ____
ROOT
ATOM      1  C   UNL     1       6.176   0.628  -0.932  0.00  0.00    -0.005 A 
ATOM      2  C   UNL     1       5.318   1.670  -1.136  0.00  0.00    +0.022 A 
ATOM      3  C   UNL     1       3.939   1.457  -1.074  0.00  0.00    +0.065 A 
ATOM      4  C   UNL     1       2.989   2.561  -1.291  0.00  0.00    +0.203 A 
ATOM      5  O   UNL     1       3.370   3.693  -1.530  0.00  0.00    -0.286 OA
ATOM      6  C   UNL     1       1.549   2.230  -1.205  0.00  0.00    +0.104 A 
ATOM      7  C   UNL     1       1.190   0.926  -0.930  0.00  0.00    +0.225 A 
ATOM      8  O   UNL     1       2.101  -0.039  -0.742  0.00  0.00    -0.447 OA
ATOM      9  C   UNL     1       3.430   0.173  -0.802  0.00  0.00    +0.144 A 
ATOM     10  C   UNL     1       4.318  -0.875  -0.595  0.00  0.00    +0.021 A 
ATOM     11  C   UNL     1       5.682  -0.647  -0.662  0.00  0.00    +0.125 A 
ENDROOT
BRANCH   6  12
ATOM     12  C   UNL     1       0.522   3.267  -1.413  0.00  0.00    +0.117 A 
ATOM     13  N   UNL     1      -0.786   3.134  -1.478  0.00  0.00    -0.239 NA
ATOM     14  C   UNL     1      -1.610   4.173  -1.669  0.00  0.00    +0.079 A 
ATOM     15  C   UNL     1      -3.024   4.164  -1.753  0.00  0.00    +0.029 A 
ATOM     16  C   UNL     1      -3.717   5.316  -1.958  0.00  0.00    +0.002 A 
ATOM     17  C   UNL     1      -3.075   6.539  -2.094  0.00  0.00    +0.001 A 
ATOM     18  C   UNL     1      -1.696   6.593  -2.019  0.00  0.00    +0.017 A 
ATOM     19  C   UNL     1      -0.985   5.436  -1.812  0.00  0.00    +0.040 A 
ATOM     20  S   UNL     1       0.736   5.026  -1.651  0.00  0.00    -0.067 S 
ENDBRANCH   6  12
BRANCH   1  22
ATOM     21  C   UNL     1       8.169   0.522  -2.403  0.00  0.00    +0.009 C 
ATOM     22  C   UNL     1       7.664   0.857  -0.998  0.00  0.00    +0.035 C 
ENDBRANCH   1  22
BRANCH  11  23
ATOM     23  O   UNL     1       6.546  -1.674  -0.461  0.00  0.00    -0.506 OA
ATOM     24  H   UNL     1       6.808  -1.793   0.463  0.00  0.00    +0.292 HD
ENDBRANCH  11  23
BRANCH   7  25
ATOM     25  C   UNL     1      -0.244   0.583  -0.842  0.00  0.00    +0.376 C 
ATOM     26  O   UNL     1      -0.832   0.168  -1.821  0.00  0.00    -0.241 OA
BRANCH  25  27
ATOM     27  O   UNL     1      -0.901   0.729   0.326  0.00  0.00    -0.459 OA
BRANCH  27  28
ATOM     28  C   UNL     1      -2.309   0.372   0.340  0.00  0.00    +0.229 C 
ATOM     29  C   UNL     1      -2.880   0.604   1.740  0.00  0.00    +0.048 C 
ENDBRANCH  27  28
ENDBRANCH  25  27
ENDBRANCH   7  25
BRANCH  10  30
ATOM     30  C   UNL     1       3.797  -2.258  -0.302  0.00  0.00    -0.035 C 
BRANCH  30  38
ATOM     31  C   UNL     1       2.447  -2.479  -2.299  0.00  0.00    -0.071 C 
ATOM     32  C   UNL     1       2.370  -3.161  -3.667  0.00  0.00    -0.016 C 
ATOM     33  C   UNL     1       2.250  -4.674  -3.472  0.00  0.00    -0.003 C 
ATOM     34  C   UNL     1       3.448  -5.173  -2.660  0.00  0.00    -0.016 C 
ATOM     35  C   UNL     1       3.495  -4.433  -1.321  0.00  0.00    -0.071 C 
ATOM     36  C   UNL     1       4.702  -4.914  -0.514  0.00  0.00    -0.013 C 
ATOM     37  C   UNL     1       1.172  -2.776  -1.508  0.00  0.00    -0.013 C 
ATOM     38  N   UNL     1       3.635  -2.984  -1.578  0.00  0.00    +0.386 N 
ATOM     39  H   UNL     1       4.468  -2.828  -2.158  0.00  0.00    -0.081 HD
ENDBRANCH  30  38
ENDBRANCH  10  30
TORSDOF 8
