REMARK  Name = ZINC60347058
REMARK  4 active torsions:
REMARK  status: ('A' for Active; 'I' for Inactive)
REMARK    1  A    between atoms: C_5  and  C_7
REMARK    2  A    between atoms: C_10  and  C_12
REMARK    3  A    between atoms: C_13  and  C_14
REMARK    4  A    between atoms: C_21  and  C_23
REMARK                            x       y       z     vdW  Elec       q    Type
REMARK                         _______ _______ _______ _____ _____    ______ ____
ROOT
ATOM      1  C   UNL     1       2.091  -6.116  -0.701  0.00  0.00    +0.020 C 
ATOM      2  C   UNL     1       2.915  -6.324  -1.760  0.00  0.00    +0.068 C 
ENDROOT
BRANCH   2   3
ATOM      3  C   UNL     1       3.233  -7.642  -2.160  0.00  0.00    +0.240 C 
ATOM      4  O   UNL     1       2.842  -8.589  -1.502  0.00  0.00    -0.271 OA
ATOM      5  N   UNL     1       3.969  -7.851  -3.270  0.00  0.00    -0.290 N 
ATOM      6  C   UNL     1       4.571  -6.721  -3.992  0.00  0.00    +0.108 C 
ATOM      7  C   UNL     1       6.072  -6.982  -4.152  0.00  0.00    +0.019 C 
ATOM      8  C   UNL     1       6.281  -8.341  -4.824  0.00  0.00    +0.003 C 
ATOM      9  C   UNL     1       5.690  -9.444  -3.942  0.00  0.00    +0.027 C 
ATOM     10  C   UNL     1       4.190  -9.212  -3.777  0.00  0.00    +0.132 C 
BRANCH  10  11
ATOM     11  C   UNL     1       3.622 -10.227  -2.783  0.00  0.00    +0.270 C 
ATOM     12  O   UNL     1       3.976 -11.558  -3.197  0.00  0.00    -0.347 OA
ATOM     13  C   UNL     1       2.831 -12.372  -2.845  0.00  0.00    +0.191 C 
ATOM     14  C   UNL     1       1.657 -11.402  -3.129  0.00  0.00    +0.191 C 
ATOM     15  O   UNL     1       2.193 -10.120  -2.748  0.00  0.00    -0.347 OA
ENDBRANCH  10  11
ENDBRANCH   2   3
BRANCH   1  19
ATOM     16  C   UNL     1       1.449  -2.147   0.099  0.00  0.00    +0.023 A 
ATOM     17  C   UNL     1       0.796  -3.032   0.944  0.00  0.00    +0.017 A 
ATOM     18  C   UNL     1       0.959  -4.373   0.745  0.00  0.00    +0.016 A 
ATOM     19  C   UNL     1       1.773  -4.798  -0.301  0.00  0.00    +0.013 A 
ATOM     20  S   UNL     1       2.308  -3.250  -1.012  0.00  0.00    -0.089 S 
BRANCH  16  25
ATOM     21  C   UNL     1       0.210   1.396   0.178  0.00  0.00    +0.001 A 
ATOM     22  C   UNL     1       1.401   2.100   0.133  0.00  0.00    +0.003 A 
ATOM     23  C   UNL     1       2.608   1.428   0.077  0.00  0.00    +0.039 A 
ATOM     24  C   UNL     1       2.632   0.046   0.066  0.00  0.00    +0.132 A 
ATOM     25  C   UNL     1       1.432  -0.671   0.111  0.00  0.00    +0.024 A 
ATOM     26  C   UNL     1       0.218   0.017   0.168  0.00  0.00    +0.012 A 
ATOM     27  F   UNL     1       3.812  -0.611   0.010  0.00  0.00    -0.205 F 
ENDBRANCH  16  25
ENDBRANCH   1  19
TORSDOF 4
