REMARK  Name = ZINC09491126
REMARK  5 active torsions:
REMARK  status: ('A' for Active; 'I' for Inactive)
REMARK    1  A    between atoms: C_4  and  S_7
REMARK    2  A    between atoms: S_7  and  C_10
REMARK    3  A    between atoms: C_10  and  C_22
REMARK    4  A    between atoms: C_11  and  C_12
REMARK    5  A    between atoms: C_16  and  N_18
REMARK                            x       y       z     vdW  Elec       q    Type
REMARK                         _______ _______ _______ _____ _____    ______ ____
ROOT
ATOM      1  C   UNL     1       4.737   2.649  -0.226  0.00  0.00    +0.136 C 
ATOM      2  C   UNL     1       5.441   1.538   0.061  0.00  0.00    +0.039 C 
ENDROOT
BRANCH   1   3
ATOM      3  C   UNL     1       3.351   2.539  -0.694  0.00  0.00    +0.158 A 
ATOM      4  N   UNL     1       2.953   1.905  -1.844  0.00  0.00    -0.337 N 
ATOM      5  H   UNL     1       3.546   1.442  -2.503  0.00  0.00    +0.167 HD
ATOM      6  C   UNL     1       1.579   2.026  -1.918  0.00  0.00    +0.066 A 
ATOM      7  C   UNL     1       0.623   1.601  -2.830  0.00  0.00    +0.028 A 
ATOM      8  C   UNL     1      -0.707   1.895  -2.615  0.00  0.00    +0.002 A 
ATOM      9  C   UNL     1      -1.097   2.604  -1.487  0.00  0.00    +0.002 A 
ATOM     10  C   UNL     1      -0.171   3.032  -0.578  0.00  0.00    +0.030 A 
ATOM     11  C   UNL     1       1.185   2.750  -0.778  0.00  0.00    +0.090 A 
ATOM     12  N   UNL     1       2.301   3.032  -0.075  0.00  0.00    -0.226 NA
ENDBRANCH   1   3
BRANCH   2  13
ATOM     13  C   UNL     1       4.776   0.224   0.061  0.00  0.00    -0.021 A 
ATOM     14  C   UNL     1       3.451   0.107   0.491  0.00  0.00    +0.009 A 
ATOM     15  C   UNL     1       2.833  -1.125   0.482  0.00  0.00    +0.023 A 
ATOM     16  C   UNL     1       3.525  -2.247   0.059  0.00  0.00    +0.071 A 
ATOM     17  C   UNL     1       4.839  -2.140  -0.364  0.00  0.00    +0.145 A 
ATOM     18  C   UNL     1       5.468  -0.913  -0.365  0.00  0.00    +0.042 A 
ATOM     19 CL   UNL     1       2.740  -3.796   0.058  0.00  0.00    -0.081 Cl
BRANCH  17  20
ATOM     20  N   UNL     1       5.571  -3.345  -0.815  0.00  0.00    +0.058 N 
ATOM     21  O   UNL     1       6.727  -3.252  -1.187  0.00  0.00    -0.126 OA
ATOM     22  O   UNL     1       5.016  -4.430  -0.814  0.00  0.00    -0.126 OA
ENDBRANCH  17  20
ENDBRANCH   2  13
BRANCH   1  23
ATOM     23  S   UNL     1       5.480   4.236  -0.038  0.00  0.00    +0.029 S 
ATOM     24  O   UNL     1       4.561   5.030   0.699  0.00  0.00    -0.164 OA
ATOM     25  O   UNL     1       6.813   4.011   0.398  0.00  0.00    -0.164 OA
BRANCH  23  29
ATOM     26  C   UNL     1       5.760   6.077  -4.164  0.00  0.00    +0.000 A 
ATOM     27  C   UNL     1       4.635   6.286  -3.389  0.00  0.00    +0.002 A 
ATOM     28  C   UNL     1       4.549   5.724  -2.129  0.00  0.00    +0.027 A 
ATOM     29  C   UNL     1       5.589   4.953  -1.644  0.00  0.00    +0.094 A 
ATOM     30  C   UNL     1       6.717   4.748  -2.417  0.00  0.00    +0.027 A 
ATOM     31  C   UNL     1       6.800   5.306  -3.679  0.00  0.00    +0.002 A 
ENDBRANCH  23  29
ENDBRANCH   1  23
TORSDOF 5
