REMARK  Name = ZINC39205079
REMARK  5 active torsions:
REMARK  status: ('A' for Active; 'I' for Inactive)
REMARK    1  A    between atoms: C_6  and  C_10
REMARK    2  A    between atoms: C_10  and  C_22
REMARK    3  A    between atoms: C_11  and  C_12
REMARK    4  A    between atoms: C_15  and  O_20
REMARK    5  A    between atoms: C_17  and  O_18
REMARK                            x       y       z     vdW  Elec       q    Type
REMARK                         _______ _______ _______ _____ _____    ______ ____
ROOT
ATOM      1  C   UNL     1       3.569  -2.753  -1.287  0.00  0.00    +0.072 C 
ATOM      2  C   UNL     1       4.302  -3.882  -1.180  0.00  0.00    +0.030 C 
ENDROOT
BRANCH   1   8
ATOM      3  C   UNL     1       0.415   1.660   0.065  0.00  0.00    +0.002 A 
ATOM      4  C   UNL     1       1.601   2.366  -0.201  0.00  0.00    +0.002 A 
ATOM      5  C   UNL     1       2.795   1.755  -0.340  0.00  0.00    +0.027 A 
ATOM      6  C   UNL     1       2.881   0.293  -0.211  0.00  0.00    +0.060 A 
ATOM      7  N   UNL     1       3.872  -0.546  -0.294  0.00  0.00    -0.359 N 
ATOM      8  C   UNL     1       3.330  -1.892  -0.073  0.00  0.00    +0.216 C 
ATOM      9  N   UNL     1       1.888  -1.726   0.150  0.00  0.00    -0.359 N 
ATOM     10  C   UNL     1       1.624  -0.454   0.070  0.00  0.00    +0.060 A 
ATOM     11  C   UNL     1       0.382   0.319   0.201  0.00  0.00    +0.027 A 
ATOM     12  H   UNL     1       4.800  -0.323  -0.471  0.00  0.00    +0.162 HD
ATOM     13  H   UNL     1       1.249  -2.435   0.325  0.00  0.00    +0.162 HD
ENDBRANCH   1   8
BRANCH   2  14
ATOM     14  C   UNL     1       4.662  -4.641  -2.385  0.00  0.00    +0.020 A 
ATOM     15  C   UNL     1       4.894  -3.973  -3.593  0.00  0.00    +0.030 A 
ATOM     16  C   UNL     1       5.231  -4.688  -4.720  0.00  0.00    +0.061 A 
ATOM     17  C   UNL     1       5.342  -6.074  -4.663  0.00  0.00    +0.148 A 
ATOM     18  C   UNL     1       5.114  -6.747  -3.471  0.00  0.00    +0.102 A 
ATOM     19  C   UNL     1       4.780  -6.039  -2.329  0.00  0.00    +0.141 A 
ATOM     20 BR   UNL     1       5.266  -8.630  -3.405  0.00  0.00    -0.043 Br
ATOM     21 BR   UNL     1       5.545  -3.784  -6.351  0.00  0.00    -0.046 Br
BRANCH  19  22
ATOM     22  O   UNL     1       4.563  -6.695  -1.160  0.00  0.00    -0.505 OA
ATOM     23  H   UNL     1       3.644  -6.966  -1.026  0.00  0.00    +0.292 HD
ENDBRANCH  19  22
BRANCH  17  24
ATOM     24  O   UNL     1       5.674  -6.772  -5.780  0.00  0.00    -0.504 OA
ATOM     25  H   UNL     1       6.626  -6.897  -5.897  0.00  0.00    +0.292 HD
ENDBRANCH  17  24
ENDBRANCH   2  14
BRANCH   1  26
ATOM     26  C   UNL     1       3.020  -2.373  -2.554  0.00  0.00    +0.099 C 
ATOM     27  N   UNL     1       2.584  -2.071  -3.558  0.00  0.00    -0.191 NA
ENDBRANCH   1  26
TORSDOF 5
