REMARK  Name = ZINC40688779
REMARK  8 active torsions:
REMARK  status: ('A' for Active; 'I' for Inactive)
REMARK    1  A    between atoms: C_1  and  C_2
REMARK    2  A    between atoms: C_4  and  C_24
REMARK    3  A    between atoms: C_7  and  N_8
REMARK    4  A    between atoms: C_10  and  N_22
REMARK    5  A    between atoms: C_11  and  O_15
REMARK    6  A    between atoms: O_15  and  C_16
REMARK    7  A    between atoms: C_24  and  C_26
REMARK    8  A    between atoms: C_24  and  C_28
REMARK                            x       y       z     vdW  Elec       q    Type
REMARK                         _______ _______ _______ _____ _____    ______ ____
ROOT
ATOM      1  C   UNL     1       0.342   0.869   0.824  0.00  0.00    +0.045 C 
ATOM      2  C   UNL     1       0.626  -0.594   0.602  0.00  0.00    -0.029 A 
ATOM      3  C   UNL     1       0.570  -1.124  -0.672  0.00  0.00    +0.011 A 
ATOM      4  C   UNL     1       0.830  -2.467  -0.876  0.00  0.00    -0.008 A 
ATOM      5  C   UNL     1       1.149  -3.284   0.195  0.00  0.00    +0.047 A 
ATOM      6  C   UNL     1       1.207  -2.759   1.472  0.00  0.00    +0.043 A 
ATOM      7  C   UNL     1       0.951  -1.410   1.679  0.00  0.00    +0.037 A 
ATOM      8 CL   UNL     1       1.474  -4.969  -0.067  0.00  0.00    -0.083 Cl
ENDROOT
BRANCH   7   9
ATOM      9  N   UNL     1       1.015  -0.875   2.969  0.00  0.00    -0.298 N 
ATOM     10  C   UNL     1       0.721  -1.674   4.067  0.00  0.00    +0.151 A 
ATOM     11  C   UNL     1       0.898  -1.188   5.366  0.00  0.00    +0.128 A 
ATOM     12  C   UNL     1       0.589  -2.031   6.432  0.00  0.00    +0.246 A 
ATOM     13  N   UNL     1       0.139  -3.256   6.176  0.00  0.00    -0.199 NA
ATOM     14  C   UNL     1      -0.014  -3.676   4.937  0.00  0.00    +0.227 A 
ATOM     15  N   UNL     1       0.262  -2.911   3.900  0.00  0.00    -0.218 NA
ATOM     16  H   UNL     1       1.263   0.054   3.097  0.00  0.00    +0.154 HD
BRANCH  11  17
ATOM     17  N   UNL     1       1.375   0.113   5.590  0.00  0.00    -0.351 N 
ATOM     18  H   UNL     1       1.587   0.688   4.838  0.00  0.00    +0.143 HD
ATOM     19  H   UNL     1       1.494   0.436   6.497  0.00  0.00    +0.143 HD
ENDBRANCH  11  17
BRANCH  12  20
ATOM     20  O   UNL     1       0.743  -1.607   7.712  0.00  0.00    -0.435 OA
BRANCH  20  21
ATOM     21  C   UNL     1       0.331  -2.432   8.711  0.00  0.00    +0.148 A 
ATOM     22  C   UNL     1       1.093  -3.538   9.073  0.00  0.00    +0.049 A 
ATOM     23  C   UNL     1       0.631  -4.349  10.097  0.00  0.00    +0.023 A 
ATOM     24  C   UNL     1      -0.562  -4.035  10.721  0.00  0.00    +0.111 A 
ATOM     25  N   UNL     1      -1.261  -2.979  10.353  0.00  0.00    -0.260 NA
ATOM     26  C   UNL     1      -0.854  -2.179   9.387  0.00  0.00    +0.157 A 
ENDBRANCH  20  21
ENDBRANCH  12  20
ENDBRANCH   7   9
BRANCH   4  27
ATOM     27  C   UNL     1       0.766  -3.041  -2.268  0.00  0.00    +0.153 C 
BRANCH  27  28
ATOM     28  C   UNL     1       1.820  -2.392  -3.128  0.00  0.00    -0.026 A 
ATOM     29  C   UNL     1       1.683  -1.070  -3.509  0.00  0.00    +0.006 A 
ATOM     30  C   UNL     1       2.648  -0.474  -4.298  0.00  0.00    +0.020 A 
ATOM     31  C   UNL     1       3.753  -1.201  -4.706  0.00  0.00    +0.041 A 
ATOM     32  C   UNL     1       3.890  -2.524  -4.325  0.00  0.00    +0.020 A 
ATOM     33  C   UNL     1       2.926  -3.117  -3.531  0.00  0.00    +0.006 A 
ATOM     34 CL   UNL     1       4.966  -0.453  -5.698  0.00  0.00    -0.084 Cl
ENDBRANCH  27  28
BRANCH  27  35
ATOM     35  C   UNL     1      -0.564  -2.785  -2.844  0.00  0.00    +0.075 C 
ATOM     36  N   UNL     1      -1.590  -2.588  -3.289  0.00  0.00    -0.196 NA
ENDBRANCH  27  35
ENDBRANCH   4  27
TORSDOF 7
