REMARK  Name = ZINC16424389
REMARK  15 active torsions:
REMARK  status: ('A' for Active; 'I' for Inactive)
REMARK    1  A    between atoms: C_1  and  C_2
REMARK    2  A    between atoms: C_2  and  N_71
REMARK    3  A    between atoms: C_3  and  C_4
REMARK    4  A    between atoms: C_3  and  N_71
REMARK    5  A    between atoms: C_5  and  C_6
REMARK    6  A    between atoms: C_5  and  N_71
REMARK    7  A    between atoms: C_6  and  C_7
REMARK    8  A    between atoms: C_7  and  C_8
REMARK    9  A    between atoms: C_8  and  C_10
REMARK   10  A    between atoms: C_8  and  N_11
REMARK   11  A    between atoms: N_11  and  C_12
REMARK   12  A    between atoms: C_12  and  C_13
REMARK   13  A    between atoms: C_21  and  C_22
REMARK   14  A    between atoms: C_21  and  C_23
REMARK   15  A    between atoms: N_26  and  C_27
REMARK                            x       y       z     vdW  Elec       q    Type
REMARK                         _______ _______ _______ _____ _____    ______ ____
ROOT
ATOM      1  N   UNL     1       0.304   1.233  -0.478  0.00  0.00    -0.279 N 
ATOM      2  C   UNL     1      -0.764   1.860  -1.011  0.00  0.00    +0.307 C 
ATOM      3  O   UNL     1      -0.825   3.075  -0.997  0.00  0.00    -0.252 OA
ATOM      4  N   UNL     1      -1.763   1.141  -1.560  0.00  0.00    -0.268 N 
ATOM      5  H   UNL     1      -1.687   0.176  -1.625  0.00  0.00    +0.156 HD
ENDROOT
BRANCH   4   6
ATOM      6  C   UNL     1      -2.909   1.787  -2.037  0.00  0.00    +0.049 A 
ATOM      7  C   UNL     1      -2.838   3.106  -2.465  0.00  0.00    +0.024 A 
ATOM      8  C   UNL     1      -3.971   3.740  -2.935  0.00  0.00    +0.002 A 
ATOM      9  C   UNL     1      -5.176   3.063  -2.981  0.00  0.00    +0.001 A 
ATOM     10  C   UNL     1      -5.251   1.749  -2.556  0.00  0.00    +0.017 A 
ATOM     11  C   UNL     1      -4.120   1.107  -2.089  0.00  0.00    +0.039 A 
ATOM     12 BR   UNL     1      -4.221  -0.692  -1.516  0.00  0.00    -0.048 Br
ENDBRANCH   4   6
BRANCH   1  13
ATOM     13  C   UNL     1       1.392   2.015   0.113  0.00  0.00    +0.075 C 
ATOM     14  C   UNL     1       2.660   1.839  -0.725  0.00  0.00    +0.028 C 
BRANCH  13  15
ATOM     15  C   UNL     1       1.653   1.529   1.540  0.00  0.00    +0.020 C 
BRANCH  15  16
ATOM     16  C   UNL     1       0.410   1.775   2.398  0.00  0.00    -0.017 C 
BRANCH  16  17
ATOM     17  C   UNL     1       0.712   1.405   3.852  0.00  0.00    -0.079 C 
BRANCH  17  18
ATOM     18  N   UNL     1      -0.524   1.559   4.647  0.00  0.00    +0.379 N 
ATOM     19  H   UNL     1      -0.966   2.454   4.407  0.00  0.00    -0.082 HD
BRANCH  18  21
ATOM     20  C   UNL     1      -0.873  -0.886   4.759  0.00  0.00    -0.017 C 
ATOM     21  C   UNL     1      -1.464   0.461   4.338  0.00  0.00    -0.082 C 
ENDBRANCH  18  21
BRANCH  18  22
ATOM     22  C   UNL     1      -0.200   1.555   6.089  0.00  0.00    -0.082 C 
ATOM     23  C   UNL     1      -1.415   2.064   6.867  0.00  0.00    -0.017 C 
ENDBRANCH  18  22
ENDBRANCH  17  18
ENDBRANCH  16  17
ENDBRANCH  15  16
ENDBRANCH  13  15
ENDBRANCH   1  13
BRANCH   1  24
ATOM     24  C   UNL     1       0.378  -0.230  -0.495  0.00  0.00    +0.140 C 
BRANCH  24  25
ATOM     25  C   UNL     1       0.970  -0.687  -1.803  0.00  0.00    -0.053 C 
ATOM     26  C   UNL     1       2.247  -0.979  -1.909  0.00  0.00    -0.025 C 
ATOM     27  C   UNL     1       2.797  -1.446  -3.235  0.00  0.00    +0.031 C 
ATOM     28  C   UNL     1       1.691  -1.405  -4.298  0.00  0.00    -0.000 C 
ATOM     29  C   UNL     1       0.425  -2.133  -3.800  0.00  0.00    +0.012 C 
ATOM     30  C   UNL     1       0.116  -0.823  -3.052  0.00  0.00    +0.022 C 
ATOM     31  C   UNL     1       0.842  -0.124  -4.227  0.00  0.00    -0.025 C 
ATOM     32  C   UNL     1      -0.042   0.102  -5.455  0.00  0.00    +0.012 C 
ATOM     33  C   UNL     1       1.631   1.121  -3.816  0.00  0.00    +0.012 C 
ENDBRANCH  24  25
ENDBRANCH   1  24
TORSDOF 10
