REMARK  Name = ZINC33068917
REMARK  8 active torsions:
REMARK  status: ('A' for Active; 'I' for Inactive)
REMARK    1  A    between atoms: C_1  and  C_2
REMARK    2  A    between atoms: C_2  and  C_3
REMARK    3  A    between atoms: C_3  and  N_4
REMARK    4  A    between atoms: N_4  and  C_5
REMARK    5  A    between atoms: N_4  and  C_13
REMARK    6  A    between atoms: C_5  and  C_6
REMARK    7  A    between atoms: C_13  and  C_14
REMARK    8  A    between atoms: C_20  and  C_24
REMARK                            x       y       z     vdW  Elec       q    Type
REMARK                         _______ _______ _______ _____ _____    ______ ____
ROOT
ATOM      1  C   UNL     1      -0.738  -2.421   1.392  0.00  0.00    +0.138 C 
ENDROOT
BRANCH   1   2
ATOM      2  C   UNL     1      -0.792  -3.926   1.323  0.00  0.00    +0.037 A 
ATOM      3  C   UNL     1      -1.133  -4.668   2.433  0.00  0.00    +0.093 A 
ATOM      4  C   UNL     1      -1.178  -6.059   2.349  0.00  0.00    +0.259 A 
ATOM      5  O   UNL     1      -1.480  -6.721   3.330  0.00  0.00    -0.267 OA
ATOM      6  N   UNL     1      -0.885  -6.681   1.168  0.00  0.00    -0.263 N 
ATOM      7  C   UNL     1      -0.886  -8.034   0.929  0.00  0.00    +0.107 A 
ATOM      8  C   UNL     1      -0.579  -8.521  -0.273  0.00  0.00    +0.007 A 
ATOM      9  S   UNL     1      -0.252  -7.029  -1.199  0.00  0.00    -0.056 S 
ATOM     10  C   UNL     1      -0.556  -5.869   0.116  0.00  0.00    +0.158 A 
ATOM     11  N   UNL     1      -0.516  -4.561   0.187  0.00  0.00    -0.337 N 
ATOM     12  C   UNL     1      -0.523  -9.955  -0.732  0.00  0.00    +0.053 C 
ATOM     13  H   UNL     1      -0.279  -4.048  -0.602  0.00  0.00    +0.168 HD
ENDBRANCH   1   2
BRANCH   1  14
ATOM     14  N   UNL     1       0.643  -1.970   1.173  0.00  0.00    -0.293 NA
BRANCH  14  15
ATOM     15  C   UNL     1       0.685  -0.534   0.869  0.00  0.00    +0.085 C 
BRANCH  15  17
ATOM     16  C   UNL     1       0.277   1.185  -0.898  0.00  0.00    +0.005 C 
ATOM     17  C   UNL     1       0.116  -0.291  -0.530  0.00  0.00    +0.012 C 
ENDBRANCH  15  17
ENDBRANCH  14  15
BRANCH  14  18
ATOM     18  C   UNL     1       1.491  -2.289   2.329  0.00  0.00    +0.120 C 
BRANCH  18  19
ATOM     19  C   UNL     1       2.935  -2.039   1.978  0.00  0.00    -0.033 A 
ATOM     20  C   UNL     1       3.696  -3.053   1.426  0.00  0.00    +0.006 A 
ATOM     21  C   UNL     1       5.021  -2.825   1.103  0.00  0.00    +0.020 A 
ATOM     22  C   UNL     1       5.584  -1.582   1.332  0.00  0.00    +0.041 A 
ATOM     23  C   UNL     1       4.821  -0.568   1.884  0.00  0.00    +0.020 A 
ATOM     24  C   UNL     1       3.496  -0.796   2.201  0.00  0.00    +0.006 A 
ATOM     25 CL   UNL     1       7.248  -1.295   0.927  0.00  0.00    -0.084 Cl
ENDBRANCH  18  19
ENDBRANCH  14  18
ENDBRANCH   1  14
TORSDOF 6
