REMARK  Name = ZINC03463756
REMARK  5 active torsions:
REMARK  status: ('A' for Active; 'I' for Inactive)
REMARK    1  A    between atoms: C_1  and  C_2
REMARK    2  A    between atoms: C_5  and  N_9
REMARK    3  A    between atoms: C_6  and  C_8
REMARK    4  A    between atoms: C_13  and  C_15
REMARK    5  A    between atoms: C_15  and  N_16
REMARK                            x       y       z     vdW  Elec       q    Type
REMARK                         _______ _______ _______ _____ _____    ______ ____
ROOT
ATOM      1  C   UNL     1      -0.317  -8.357  -2.353  0.00  0.00    +0.214 C 
ENDROOT
BRANCH   1   2
ATOM      2  N   UNL     1      -0.415  -8.840  -3.733  0.00  0.00    -0.215 N 
ATOM      3  C   UNL     1      -1.579  -9.016  -4.395  0.00  0.00    +0.251 C 
ATOM      4  O   UNL     1      -2.700  -8.812  -3.980  0.00  0.00    -0.272 OA
ATOM      5  C   UNL     1      -1.186  -9.518  -5.760  0.00  0.00    +0.138 C 
ATOM      6  C   UNL     1      -1.681  -8.573  -6.863  0.00  0.00    +0.045 C 
ATOM      7  C   UNL     1      -3.008  -9.241  -7.290  0.00  0.00    +0.038 C 
ATOM      8  C   UNL     1      -2.849 -10.705  -6.938  0.00  0.00    -0.042 A 
ATOM      9  C   UNL     1      -1.795 -10.862  -6.053  0.00  0.00    -0.012 A 
ATOM     10  C   UNL     1      -1.468 -12.127  -5.594  0.00  0.00    +0.006 A 
ATOM     11  C   UNL     1      -2.187 -13.229  -6.014  0.00  0.00    +0.000 A 
ATOM     12  C   UNL     1      -3.239 -13.071  -6.897  0.00  0.00    +0.000 A 
ATOM     13  C   UNL     1      -3.567 -11.811  -7.357  0.00  0.00    +0.004 A 
ATOM     14  N   UNL     1       0.276  -9.579  -5.725  0.00  0.00    -0.281 N 
ATOM     15  C   UNL     1       0.639  -9.156  -4.497  0.00  0.00    +0.310 C 
ATOM     16  O   UNL     1       1.793  -9.075  -4.124  0.00  0.00    -0.252 OA
ATOM     17  H   UNL     1       0.864  -9.862  -6.441  0.00  0.00    +0.152 HD
ENDBRANCH   1   2
BRANCH   1  22
ATOM     18  N   UNL     1       0.059  -4.170  -0.021  0.00  0.00    -0.269 N 
ATOM     19  C   UNL     1      -0.040  -4.839  -1.187  0.00  0.00    +0.310 C 
ATOM     20  O   UNL     1      -0.054  -4.229  -2.238  0.00  0.00    -0.252 OA
ATOM     21  N   UNL     1      -0.124  -6.184  -1.187  0.00  0.00    -0.239 N 
ATOM     22  C   UNL     1      -0.223  -6.853  -2.353  0.00  0.00    +0.238 C 
ATOM     23  O   UNL     1      -0.237  -6.244  -3.401  0.00  0.00    -0.274 OA
ATOM     24  H   UNL     1       0.135  -4.658   0.814  0.00  0.00    +0.156 HD
ATOM     25  H   UNL     1      -0.113  -6.671  -0.348  0.00  0.00    +0.159 HD
BRANCH  18  30
ATOM     26  C   UNL     1       0.025   1.503   0.005  0.00  0.00    +0.044 C 
ATOM     27  C   UNL     1       0.034  -0.004  -0.002  0.00  0.00    -0.050 A 
ATOM     28  C   UNL     1       0.632  -0.685  -1.046  0.00  0.00    +0.005 A 
ATOM     29  C   UNL     1       0.641  -2.066  -1.055  0.00  0.00    +0.024 A 
ATOM     30  C   UNL     1       0.051  -2.771  -0.014  0.00  0.00    +0.038 A 
ATOM     31  C   UNL     1      -0.548  -2.083   1.033  0.00  0.00    -0.029 A 
ATOM     32  C   UNL     1      -0.551  -0.702   1.039  0.00  0.00    +0.008 A 
ATOM     33  C   UNL     1      -1.191  -2.843   2.165  0.00  0.00    +0.045 C 
ENDBRANCH  18  30
ENDBRANCH   1  22
TORSDOF 3
