REMARK  Name = ZINC18266621
REMARK  5 active torsions:
REMARK  status: ('A' for Active; 'I' for Inactive)
REMARK    1  A    between atoms: C_6  and  C_7
REMARK    2  A    between atoms: C_7  and  C_8
REMARK    3  A    between atoms: C_8  and  O_10
REMARK    4  A    between atoms: O_10  and  C_11
REMARK    5  A    between atoms: C_11  and  C_12
REMARK                            x       y       z     vdW  Elec       q    Type
REMARK                         _______ _______ _______ _____ _____    ______ ____
ROOT
ATOM      1  C   UNL     1       1.236   3.547   0.002  0.00  0.00    +0.170 A 
ATOM      2  N   UNL     1       1.147   4.179   1.159  0.00  0.00    -0.214 NA
ATOM      3  C   UNL     1       0.778   5.446   1.244  0.00  0.00    +0.128 A 
ATOM      4  C   UNL     1       0.465   6.157   0.052  0.00  0.00    +0.051 A 
ATOM      5  C   UNL     1       0.037   7.549  -0.100  0.00  0.00    -0.025 A 
ATOM      6  C   UNL     1      -0.199   7.982  -1.355  0.00  0.00    -0.004 A 
ATOM      7  S   UNL     1       0.128   6.586  -2.397  0.00  0.00    -0.073 S 
ATOM      8  C   UNL     1       0.583   5.417  -1.142  0.00  0.00    +0.114 A 
ATOM      9  N   UNL     1       0.964   4.155  -1.136  0.00  0.00    -0.221 NA
ATOM     10  C   UNL     1      -0.643   9.351  -1.774  0.00  0.00    +0.043 C 
ATOM     11  C   UNL     1      -1.154  10.096  -0.533  0.00  0.00    +0.005 C 
ATOM     12  C   UNL     1      -0.132   9.929   0.595  0.00  0.00    +0.005 C 
ATOM     13  C   UNL     1      -0.140   8.483   1.093  0.00  0.00    +0.037 C 
ATOM     14  N   UNL     1       0.698   6.072   2.475  0.00  0.00    -0.343 N 
ATOM     15  H   UNL     1       1.122   5.673   3.250  0.00  0.00    +0.144 HD
ATOM     16  H   UNL     1       0.217   6.910   2.562  0.00  0.00    +0.144 HD
ENDROOT
BRANCH   1  17
ATOM     17  C   UNL     1       1.664   2.102  -0.018  0.00  0.00    +0.308 C 
BRANCH  17  18
ATOM     18  O   UNL     1       0.493   1.249   0.088  0.00  0.00    -0.456 OA
BRANCH  18  19
ATOM     19  C   UNL     1       0.702  -0.076   0.084  0.00  0.00    +0.312 C 
ATOM     20  O   UNL     1       1.827  -0.510  -0.004  0.00  0.00    -0.250 OA
BRANCH  19  21
ATOM     21  C   UNL     1      -0.465  -1.024   0.191  0.00  0.00    +0.155 C 
BRANCH  21  27
ATOM     22  C   UNL     1       0.164  -3.110  -1.041  0.00  0.00    +0.007 A 
ATOM     23  C   UNL     1       0.629  -4.411  -1.067  0.00  0.00    +0.038 A 
ATOM     24  C   UNL     1       0.958  -5.052   0.116  0.00  0.00    +0.123 A 
ATOM     25  C   UNL     1       0.826  -4.386   1.323  0.00  0.00    +0.038 A 
ATOM     26  C   UNL     1       0.366  -3.083   1.346  0.00  0.00    +0.007 A 
ATOM     27  C   UNL     1       0.038  -2.445   0.164  0.00  0.00    -0.037 A 
ATOM     28  F   UNL     1       1.409  -6.325   0.092  0.00  0.00    -0.205 F 
ENDBRANCH  21  27
ENDBRANCH  19  21
ENDBRANCH  18  19
ENDBRANCH  17  18
ENDBRANCH   1  17
TORSDOF 5
