REMARK  Name = ZINC40007849
REMARK  12 active torsions:
REMARK  status: ('A' for Active; 'I' for Inactive)
REMARK    1  A    between atoms: C_1  and  C_2
REMARK    2  A    between atoms: C_9  and  N_31
REMARK    3  A    between atoms: C_10  and  C_13
REMARK    4  A    between atoms: N_17  and  C_21
REMARK    5  A    between atoms: C_21  and  C_22
REMARK    6  A    between atoms: C_22  and  C_23
REMARK    7  A    between atoms: C_26  and  O_29
REMARK    8  A    between atoms: O_29  and  C_30
REMARK    9  A    between atoms: N_31  and  C_32
REMARK   10  A    between atoms: C_32  and  C_33
REMARK   11  A    between atoms: C_33  and  C_35
REMARK   12  A    between atoms: C_33  and  O_36
REMARK                            x       y       z     vdW  Elec       q    Type
REMARK                         _______ _______ _______ _____ _____    ______ ____
ROOT
ATOM      1  C   UNL     1       0.339   1.532   0.042  0.00  0.00    +0.047 C 
ATOM      2  C   UNL     1       0.077   0.048   0.032  0.00  0.00    -0.007 A 
ATOM      3  C   UNL     1      -0.156  -0.599  -1.145  0.00  0.00    +0.008 A 
ATOM      4  C   UNL     1      -0.398  -1.980  -1.139  0.00  0.00    +0.019 A 
ATOM      5  C   UNL     1      -0.401  -2.662   0.029  0.00  0.00    +0.096 A 
ATOM      6  N   UNL     1      -0.170  -2.024   1.211  0.00  0.00    -0.267 N 
ATOM      7  C   UNL     1       0.076  -0.679   1.236  0.00  0.00    +0.145 A 
ATOM      8  N   UNL     1       0.310  -0.038   2.381  0.00  0.00    -0.214 NA
ATOM      9  C   UNL     1       0.321  -0.674   3.544  0.00  0.00    +0.134 A 
ATOM     10  C   UNL     1       0.080  -2.067   3.579  0.00  0.00    +0.081 A 
ATOM     11  C   UNL     1      -0.179  -2.735   2.359  0.00  0.00    +0.267 A 
ATOM     12  O   UNL     1      -0.393  -3.936   2.342  0.00  0.00    -0.267 OA
ENDROOT
BRANCH  10  13
ATOM     13  C   UNL     1       0.085  -2.773   4.805  0.00  0.00    +0.037 C 
ATOM     14  C   UNL     1      -0.746  -2.389   5.817  0.00  0.00    +0.077 C 
ATOM     15  C   UNL     1      -0.823  -2.867   7.156  0.00  0.00    +0.258 C 
ATOM     16  O   UNL     1      -0.078  -3.746   7.552  0.00  0.00    -0.269 OA
ATOM     17  N   UNL     1      -1.725  -2.329   7.959  0.00  0.00    -0.255 N 
ATOM     18  C   UNL     1      -2.552  -1.354   7.520  0.00  0.00    +0.121 C 
ATOM     19  S   UNL     1      -3.781  -0.523   8.375  0.00  0.00    -0.027 S 
ATOM     20  S   UNL     1      -2.030  -1.146   5.824  0.00  0.00    -0.061 S 
BRANCH  17  21
ATOM     21  C   UNL     1      -1.831  -2.797   9.343  0.00  0.00    +0.119 C 
BRANCH  21  22
ATOM     22  C   UNL     1      -0.909  -1.964  10.235  0.00  0.00    +0.054 C 
BRANCH  22  23
ATOM     23  C   UNL     1      -1.018  -2.445  11.659  0.00  0.00    -0.046 A 
ATOM     24  C   UNL     1      -1.963  -1.892  12.504  0.00  0.00    +0.007 A 
ATOM     25  C   UNL     1      -2.064  -2.331  13.810  0.00  0.00    +0.046 A 
ATOM     26  C   UNL     1      -1.218  -3.328  14.273  0.00  0.00    +0.120 A 
ATOM     27  C   UNL     1      -0.271  -3.882  13.423  0.00  0.00    +0.046 A 
ATOM     28  C   UNL     1      -0.177  -3.443  12.117  0.00  0.00    +0.007 A 
BRANCH  26  29
ATOM     29  O   UNL     1      -1.316  -3.762  15.557  0.00  0.00    -0.495 OA
ATOM     30  C   UNL     1      -0.412  -4.791  15.965  0.00  0.00    +0.277 C 
ENDBRANCH  26  29
ENDBRANCH  22  23
ENDBRANCH  21  22
ENDBRANCH  17  21
ENDBRANCH  10  13
BRANCH   9  31
ATOM     31  N   UNL     1       0.567   0.018   4.710  0.00  0.00    -0.326 N 
ATOM     32  H   UNL     1       0.574  -0.451   5.559  0.00  0.00    +0.148 HD
BRANCH  31  33
ATOM     33  C   UNL     1       0.816   1.461   4.667  0.00  0.00    +0.134 C 
BRANCH  33  34
ATOM     34  C   UNL     1       1.058   1.979   6.086  0.00  0.00    +0.128 C 
ATOM     35  C   UNL     1       1.195   3.502   6.057  0.00  0.00    +0.039 C 
BRANCH  34  36
ATOM     36  O   UNL     1       2.258   1.403   6.606  0.00  0.00    -0.391 OA
ATOM     37  H   UNL     1       3.049   1.608   6.089  0.00  0.00    +0.210 HD
ENDBRANCH  34  36
ENDBRANCH  33  34
ENDBRANCH  31  33
ENDBRANCH   9  31
TORSDOF 9
