REMARK  Name = ZINC02435588
REMARK  3 active torsions:
REMARK  status: ('A' for Active; 'I' for Inactive)
REMARK    1  A    between atoms: C_1  and  C_2
REMARK    2  A    between atoms: C_5  and  N_8
REMARK    3  A    between atoms: C_26  and  C_34
REMARK                            x       y       z     vdW  Elec       q    Type
REMARK                         _______ _______ _______ _____ _____    ______ ____
ROOT
ATOM      1  N   UNL     1       0.059  -4.172  -0.021  0.00  0.00    -0.210 N 
ATOM      2  C   UNL     1      -0.030  -4.891  -1.146  0.00  0.00    +0.228 C 
ATOM      3  O   UNL     1      -0.134  -4.433  -2.264  0.00  0.00    -0.275 OA
ATOM      4  C   UNL     1       0.019  -6.364  -0.807  0.00  0.00    +0.074 C 
ATOM      5  C   UNL     1       1.327  -6.970  -1.348  0.00  0.00    -0.054 C 
ATOM      6  C   UNL     1       1.830  -6.120  -2.529  0.00  0.00    -0.016 C 
ATOM      7  C   UNL     1       2.764  -5.062  -1.908  0.00  0.00    -0.020 C 
ATOM      8  C   UNL     1       2.733  -5.338  -0.392  0.00  0.00    -0.076 C 
ATOM      9  N   UNL     1       2.328  -6.783  -0.254  0.00  0.00    +0.395 N 
ATOM     10  C   UNL     1       1.560  -6.977   0.987  0.00  0.00    +0.053 C 
ATOM     11  C   UNL     1       0.159  -6.370   0.740  0.00  0.00    +0.089 C 
ATOM     12  C   UNL     1       0.172  -4.901   1.096  0.00  0.00    +0.229 C 
ATOM     13  O   UNL     1       0.269  -4.452   2.218  0.00  0.00    -0.275 OA
ATOM     14  C   UNL     1       1.466  -8.431   1.357  0.00  0.00    -0.026 A 
ATOM     15  C   UNL     1       0.956  -9.540   0.718  0.00  0.00    +0.008 A 
ATOM     16  C   UNL     1       1.017 -10.780   1.328  0.00  0.00    -0.049 A 
ATOM     17  C   UNL     1       1.591 -10.904   2.580  0.00  0.00    +0.025 A 
ATOM     18  C   UNL     1       2.102  -9.796   3.225  0.00  0.00    +0.063 A 
ATOM     19  C   UNL     1       2.045  -8.543   2.616  0.00  0.00    +0.054 A 
ATOM     20  N   UNL     1       2.487  -7.294   3.058  0.00  0.00    -0.285 N 
ATOM     21  C   UNL     1       2.241  -6.321   2.159  0.00  0.00    +0.212 C 
ATOM     22  O   UNL     1       2.513  -5.145   2.273  0.00  0.00    -0.277 OA
ATOM     23 CL   UNL     1       2.818  -9.963   4.797  0.00  0.00    -0.082 Cl
ATOM     24  C   UNL     1       0.459 -11.993   0.629  0.00  0.00    +0.044 C 
ATOM     25  H   UNL     1       2.921  -7.144   3.912  0.00  0.00    +0.155 HD
ATOM     26  H   UNL     1       3.111  -7.415  -0.334  0.00  0.00    -0.079 HD
ENDROOT
BRANCH   1  31
ATOM     27  C   UNL     1      -0.016   1.503   0.009  0.00  0.00    +0.044 C 
ATOM     28  C   UNL     1       0.004  -0.004   0.001  0.00  0.00    -0.050 A 
ATOM     29  C   UNL     1       1.155  -0.681   0.361  0.00  0.00    +0.005 A 
ATOM     30  C   UNL     1       1.176  -2.062   0.355  0.00  0.00    +0.024 A 
ATOM     31  C   UNL     1       0.040  -2.771  -0.013  0.00  0.00    +0.044 A 
ATOM     32  C   UNL     1      -1.114  -2.088  -0.374  0.00  0.00    +0.024 A 
ATOM     33  C   UNL     1      -1.131  -0.707  -0.361  0.00  0.00    +0.005 A 
ENDBRANCH   1  31
TORSDOF 1
