REMARK  Name = ZINC39638201
REMARK  11 active torsions:
REMARK  status: ('A' for Active; 'I' for Inactive)
REMARK    1  A    between atoms: C_1  and  C_2
REMARK    2  A    between atoms: C_2  and  C_3
REMARK    3  A    between atoms: C_3  and  C_5
REMARK    4  A    between atoms: C_3  and  N_8
REMARK    5  A    between atoms: C_5  and  O_6
REMARK    6  A    between atoms: O_6  and  C_7
REMARK    7  A    between atoms: C_9  and  C_11
REMARK    8  A    between atoms: C_22  and  C_24
REMARK    9  A    between atoms: C_24  and  O_25
REMARK   10  A    between atoms: O_25  and  C_26
REMARK   11  A    between atoms: C_36  and  C_37
REMARK                            x       y       z     vdW  Elec       q    Type
REMARK                         _______ _______ _______ _____ _____    ______ ____
ROOT
ATOM      1  C   UNL     1      -0.688   1.503  -4.202  0.00  0.00    +0.100 C 
ATOM      2  C   UNL     1      -2.203   1.395  -3.914  0.00  0.00    +0.121 C 
ATOM      3  N   UNL     1      -2.606   2.764  -3.514  0.00  0.00    -0.297 N 
ATOM      4  C   UNL     1      -1.840   3.653  -4.418  0.00  0.00    +0.115 C 
ATOM      5  C   UNL     1      -0.455   2.986  -4.536  0.00  0.00    -0.004 C 
ATOM      6  C   UNL     1       0.081   3.130  -5.957  0.00  0.00    -0.010 C 
ATOM      7  C   UNL     1       0.360   4.607  -6.246  0.00  0.00    -0.082 C 
ATOM      8  N   UNL     1       1.338   5.121  -5.279  0.00  0.00    +0.379 N 
ATOM      9  C   UNL     1       0.777   5.065  -3.924  0.00  0.00    -0.082 C 
ATOM     10  C   UNL     1       0.516   3.607  -3.536  0.00  0.00    -0.010 C 
ATOM     11  C   UNL     1      -3.475   3.119  -2.546  0.00  0.00    +0.253 C 
ATOM     12  O   UNL     1      -3.703   4.292  -2.337  0.00  0.00    -0.272 OA
ATOM     13  H   UNL     1       2.175   4.559  -5.318  0.00  0.00    -0.086 HD
ATOM     14  H   UNL     1       1.566   6.076  -5.508  0.00  0.00    -0.086 HD
ENDROOT
BRANCH   1  16
ATOM     15  N   UNL     1       1.341   0.586  -3.126  0.00  0.00    -0.310 N 
ATOM     16  C   UNL     1       0.107   1.109  -2.984  0.00  0.00    +0.218 C 
ATOM     17  O   UNL     1      -0.363   1.262  -1.877  0.00  0.00    -0.275 OA
ATOM     18  H   UNL     1       1.717   0.463  -4.011  0.00  0.00    +0.149 HD
BRANCH  15  19
ATOM     19  C   UNL     1       2.114   0.202  -1.942  0.00  0.00    +0.098 C 
BRANCH  19  21
ATOM     20  C   UNL     1       0.261  -1.224  -1.063  0.00  0.00    +0.006 C 
ATOM     21  C   UNL     1       1.723  -1.214  -1.514  0.00  0.00    +0.021 C 
ENDBRANCH  19  21
BRANCH  19  22
ATOM     22  C   UNL     1       3.607   0.240  -2.273  0.00  0.00    +0.181 C 
BRANCH  22  23
ATOM     23  O   UNL     1       3.902  -0.754  -3.256  0.00  0.00    -0.381 OA
ATOM     24  C   UNL     1       5.278  -0.803  -3.639  0.00  0.00    +0.194 C 
ENDBRANCH  22  23
ENDBRANCH  19  22
ENDBRANCH  15  19
ENDBRANCH   1  16
BRANCH  11  25
ATOM     25  C   UNL     1      -4.162   2.059  -1.724  0.00  0.00    +0.324 C 
BRANCH  25  26
ATOM     26  O   UNL     1      -5.027   2.681  -0.772  0.00  0.00    -0.479 OA
BRANCH  26  27
ATOM     27  C   UNL     1      -5.727   1.860   0.055  0.00  0.00    +0.164 A 
ATOM     28  C   UNL     1      -5.581   0.488  -0.044  0.00  0.00    +0.049 A 
ATOM     29  C   UNL     1      -6.290  -0.360   0.794  0.00  0.00    +0.004 A 
ATOM     30  C   UNL     1      -7.151   0.152   1.738  0.00  0.00    +0.012 A 
ATOM     31  C   UNL     1      -7.310   1.538   1.851  0.00  0.00    +0.024 A 
ATOM     32  C   UNL     1      -6.590   2.399   1.008  0.00  0.00    +0.181 A 
ATOM     33  O   UNL     1      -6.742   3.736   1.123  0.00  0.00    -0.418 OA
ATOM     34  C   UNL     1      -7.568   4.271   2.035  0.00  0.00    +0.338 A 
ATOM     35  O   UNL     1      -7.673   5.483   2.102  0.00  0.00    -0.245 OA
ATOM     36  C   UNL     1      -8.318   3.465   2.918  0.00  0.00    +0.096 A 
ATOM     37  C   UNL     1      -8.220   2.114   2.847  0.00  0.00    -0.033 A 
ATOM     38  C   UNL     1      -9.010   1.230   3.777  0.00  0.00    +0.045 C 
ENDBRANCH  26  27
ENDBRANCH  25  26
ENDBRANCH  11  25
TORSDOF 8
