REMARK  Name = ZINC36024389
REMARK  11 active torsions:
REMARK  status: ('A' for Active; 'I' for Inactive)
REMARK    1  A    between atoms: C_1  and  C_2
REMARK    2  A    between atoms: C_2  and  C_3
REMARK    3  A    between atoms: C_3  and  N_4
REMARK    4  A    between atoms: C_7  and  C_27
REMARK    5  A    between atoms: N_13  and  C_16
REMARK    6  A    between atoms: C_16  and  N_18
REMARK    7  A    between atoms: N_18  and  C_19
REMARK    8  A    between atoms: C_22  and  O_25
REMARK    9  A    between atoms: O_25  and  C_26
REMARK   10  A    between atoms: C_27  and  C_28
REMARK   11  A    between atoms: C_27  and  C_29
REMARK                            x       y       z     vdW  Elec       q    Type
REMARK                         _______ _______ _______ _____ _____    ______ ____
ROOT
ATOM      1  N   UNL     1       0.652  -1.923  -1.323  0.00  0.00    -0.314 N 
ATOM      2  C   UNL     1       1.535  -2.773  -0.759  0.00  0.00    +0.201 C 
ATOM      3  O   UNL     1       2.511  -2.455  -0.113  0.00  0.00    -0.277 OA
ATOM      4  C   UNL     1       1.101  -4.189  -1.068  0.00  0.00    +0.022 C 
ATOM      5  N   UNL     1       0.140  -4.055  -2.189  0.00  0.00    +0.401 N 
ATOM      6  C   UNL     1      -0.394  -2.687  -2.007  0.00  0.00    +0.006 C 
ATOM      7  C   UNL     1      -1.660  -2.733  -1.154  0.00  0.00    +0.025 C 
ATOM      8  C   UNL     1      -2.182  -1.308  -0.942  0.00  0.00    +0.107 C 
ATOM      9  N   UNL     1      -2.351  -0.667  -2.253  0.00  0.00    -0.312 N 
ATOM     10  C   UNL     1      -1.209  -0.637  -3.178  0.00  0.00    +0.107 C 
ATOM     11  C   UNL     1      -0.695  -2.068  -3.371  0.00  0.00    +0.025 C 
ATOM     12  H   UNL     1       0.613  -4.143  -3.076  0.00  0.00    -0.082 HD
ATOM     13  H   UNL     1      -0.599  -4.738  -2.108  0.00  0.00    -0.082 HD
ENDROOT
BRANCH   4  14
ATOM     14  C   UNL     1       2.305  -5.034  -1.493  0.00  0.00    -0.023 C 
ATOM     15  C   UNL     1       3.317  -5.092  -0.347  0.00  0.00    +0.006 C 
ATOM     16  C   UNL     1       1.839  -6.450  -1.835  0.00  0.00    +0.006 C 
ENDBRANCH   4  14
BRANCH   9  17
ATOM     17  C   UNL     1      -3.530  -0.116  -2.601  0.00  0.00    +0.137 C 
ATOM     18  S   UNL     1      -4.811  -0.047  -1.467  0.00  0.00    -0.018 S 
BRANCH  17  19
ATOM     19  N   UNL     1      -3.702   0.382  -3.842  0.00  0.00    -0.297 N 
ATOM     20  H   UNL     1      -4.177  -0.136  -4.510  0.00  0.00    +0.154 HD
BRANCH  19  21
ATOM     21  C   UNL     1      -3.194   1.646  -4.166  0.00  0.00    +0.033 A 
ATOM     22  C   UNL     1      -2.423   2.342  -3.244  0.00  0.00    +0.027 A 
ATOM     23  C   UNL     1      -1.923   3.589  -3.565  0.00  0.00    +0.047 A 
ATOM     24  C   UNL     1      -2.189   4.146  -4.807  0.00  0.00    +0.120 A 
ATOM     25  C   UNL     1      -2.960   3.451  -5.728  0.00  0.00    +0.047 A 
ATOM     26  C   UNL     1      -3.456   2.202  -5.411  0.00  0.00    +0.027 A 
BRANCH  24  27
ATOM     27  O   UNL     1      -1.696   5.373  -5.122  0.00  0.00    -0.495 OA
ATOM     28  C   UNL     1      -2.010   5.885  -6.418  0.00  0.00    +0.277 C 
ENDBRANCH  24  27
ENDBRANCH  19  21
ENDBRANCH  17  19
ENDBRANCH   9  17
BRANCH   1  29
ATOM     29  C   UNL     1       0.724  -0.461  -1.256  0.00  0.00    +0.106 C 
BRANCH  29  31
ATOM     30  C   UNL     1       1.531   1.591  -2.430  0.00  0.00    +0.005 C 
ATOM     31  C   UNL     1       1.566   0.062  -2.421  0.00  0.00    +0.015 C 
ENDBRANCH  29  31
ENDBRANCH   1  29
TORSDOF 7
