REMARK  Name = ZINC07108633
REMARK  7 active torsions:
REMARK  status: ('A' for Active; 'I' for Inactive)
REMARK    1  A    between atoms: C_1  and  C_2
REMARK    2  A    between atoms: C_2  and  C_4
REMARK    3  A    between atoms: C_2  and  O_15
REMARK    4  A    between atoms: N_6  and  C_7
REMARK    5  A    between atoms: C_7  and  C_13
REMARK    6  A    between atoms: O_15  and  C_16
REMARK    7  A    between atoms: C_16  and  C_18
REMARK                            x       y       z     vdW  Elec       q    Type
REMARK                         _______ _______ _______ _____ _____    ______ ____
ROOT
ATOM      1  C   UNL     1      -2.828   0.785  -1.423  0.00  0.00    +0.062 C 
ATOM      2  C   UNL     1      -2.397   1.061   0.019  0.00  0.00    +0.259 C 
ENDROOT
BRANCH   2   3
ATOM      3  C   UNL     1      -3.495   1.801   0.739  0.00  0.00    +0.255 C 
ATOM      4  O   UNL     1      -3.310   2.935   1.125  0.00  0.00    -0.272 OA
ATOM      5  N   UNL     1      -4.683   1.201   0.953  0.00  0.00    -0.294 N 
ATOM      6  H   UNL     1      -4.831   0.294   0.644  0.00  0.00    +0.150 HD
BRANCH   5   7
ATOM      7  C   UNL     1      -5.751   1.920   1.653  0.00  0.00    +0.121 C 
ATOM      8  C   UNL     1      -5.273   2.305   3.054  0.00  0.00    +0.041 C 
ATOM      9  C   UNL     1      -6.388   3.056   3.785  0.00  0.00    +0.003 C 
ATOM     10  C   UNL     1      -7.621   2.157   3.896  0.00  0.00    +0.000 C 
ATOM     11  C   UNL     1      -8.099   1.772   2.494  0.00  0.00    +0.003 C 
ATOM     12  C   UNL     1      -6.984   1.021   1.764  0.00  0.00    +0.041 C 
BRANCH   7  13
ATOM     13  C   UNL     1      -6.097   3.137   0.901  0.00  0.00    +0.088 C 
ATOM     14  N   UNL     1      -6.365   4.076   0.321  0.00  0.00    -0.194 NA
ENDBRANCH   7  13
ENDBRANCH   5   7
ENDBRANCH   2   3
BRANCH   2  15
ATOM     15  O   UNL     1      -1.190   1.868   0.018  0.00  0.00    -0.449 OA
BRANCH  15  16
ATOM     16  C   UNL     1      -0.014   1.211   0.009  0.00  0.00    +0.341 C 
ATOM     17  O   UNL     1       0.002  -0.004   0.002  0.00  0.00    -0.245 OA
BRANCH  16  18
ATOM     18  C   UNL     1       1.254   1.966   0.001  0.00  0.00    +0.079 A 
ATOM     19  C   UNL     1       1.239   3.363   0.008  0.00  0.00    +0.036 A 
ATOM     20  C   UNL     1       2.428   4.063   0.001  0.00  0.00    +0.042 A 
ATOM     21  C   UNL     1       3.636   3.383  -0.015  0.00  0.00    +0.021 A 
ATOM     22  C   UNL     1       3.658   2.001  -0.022  0.00  0.00    +0.022 A 
ATOM     23  C   UNL     1       2.475   1.287  -0.009  0.00  0.00    +0.055 A 
ATOM     24 CL   UNL     1       2.506  -0.449  -0.011  0.00  0.00    -0.083 Cl
ATOM     25 CL   UNL     1       2.412   5.798   0.011  0.00  0.00    -0.084 Cl
ENDBRANCH  16  18
ENDBRANCH  15  16
ENDBRANCH   2  15
TORSDOF 6
