REMARK  Name = ZINC07987075
REMARK  3 active torsions:
REMARK  status: ('A' for Active; 'I' for Inactive)
REMARK    1  A    between atoms: C_9  and  S_11
REMARK    2  A    between atoms: S_11  and  N_14
REMARK    3  A    between atoms: C_19  and  C_21
REMARK                            x       y       z     vdW  Elec       q    Type
REMARK                         _______ _______ _______ _____ _____    ______ ____
ROOT
ATOM      1  S   UNL     1       1.015   4.505   0.161  0.00  0.00    +0.058 S 
ATOM      2  O   UNL     1      -0.346   4.885   0.312  0.00  0.00    -0.153 OA
ATOM      3  O   UNL     1       2.058   5.084   0.934  0.00  0.00    -0.153 OA
ENDROOT
BRANCH   1  12
ATOM      4  C   UNL     1       0.160  -2.089   1.308  0.00  0.00    +0.000 A 
ATOM      5  C   UNL     1      -1.022  -1.534   0.851  0.00  0.00    +0.001 A 
ATOM      6  C   UNL     1      -1.103  -0.178   0.604  0.00  0.00    +0.008 A 
ATOM      7  C   UNL     1       0.012   0.628   0.820  0.00  0.00    -0.020 A 
ATOM      8  C   UNL     1       1.197   0.066   1.295  0.00  0.00    -0.040 A 
ATOM      9  C   UNL     1       1.268  -1.291   1.530  0.00  0.00    +0.004 A 
ATOM     10  C   UNL     1       2.381   0.956   1.568  0.00  0.00    +0.042 C 
ATOM     11  C   UNL     1       2.426   2.092   0.548  0.00  0.00    +0.061 C 
ATOM     12  C   UNL     1       1.087   2.767   0.440  0.00  0.00    +0.084 C 
ATOM     13  C   UNL     1      -0.039   2.080   0.550  0.00  0.00    +0.032 C 
ENDBRANCH   1  12
BRANCH   1  14
ATOM     14  N   UNL     1       1.405   4.763  -1.428  0.00  0.00    -0.165 NA
ATOM     15  C   UNL     1       2.760   5.188  -1.807  0.00  0.00    +0.110 C 
ATOM     16  C   UNL     1       2.664   6.452  -2.659  0.00  0.00    +0.017 C 
ATOM     17  C   UNL     1       1.730   6.197  -3.844  0.00  0.00    +0.003 C 
ATOM     18  C   UNL     1       0.331   5.853  -3.328  0.00  0.00    +0.030 C 
ATOM     19  C   UNL     1       0.402   4.577  -2.485  0.00  0.00    +0.165 C 
BRANCH  19  20
ATOM     20  C   UNL     1      -0.943   4.304  -1.862  0.00  0.00    +0.229 C 
ATOM     21  O   UNL     1      -1.624   5.225  -1.463  0.00  0.00    -0.274 OA
ATOM     22  N   UNL     1      -1.389   3.038  -1.748  0.00  0.00    -0.328 N 
ATOM     23  H   UNL     1      -0.845   2.301  -2.067  0.00  0.00    +0.145 HD
ATOM     24  H   UNL     1      -2.255   2.862  -1.347  0.00  0.00    +0.145 HD
ENDBRANCH  19  20
ENDBRANCH   1  14
TORSDOF 3
