REMARK  Name = ZINC32951818
REMARK  8 active torsions:
REMARK  status: ('A' for Active; 'I' for Inactive)
REMARK    1  A    between atoms: C_1  and  C_2
REMARK    2  A    between atoms: C_2  and  C_3
REMARK    3  A    between atoms: C_3  and  C_4
REMARK    4  A    between atoms: C_7  and  S_10
REMARK    5  A    between atoms: S_10  and  N_13
REMARK    6  A    between atoms: C_16  and  C_19
REMARK    7  A    between atoms: C_19  and  N_20
REMARK    8  A    between atoms: C_23  and  C_26
REMARK                            x       y       z     vdW  Elec       q    Type
REMARK                         _______ _______ _______ _____ _____    ______ ____
ROOT
ATOM      1  N   UNL     1       1.165   4.378   1.541  0.00  0.00    -0.177 NA
ATOM      2  C   UNL     1      -0.113   4.606   2.229  0.00  0.00    +0.109 C 
ATOM      3  C   UNL     1      -0.095   5.995   2.865  0.00  0.00    +0.019 C 
ATOM      4  C   UNL     1       1.136   6.127   3.764  0.00  0.00    -0.025 C 
ATOM      5  C   UNL     1       2.404   5.962   2.924  0.00  0.00    +0.019 C 
ATOM      6  C   UNL     1       2.415   4.567   2.291  0.00  0.00    +0.109 C 
ENDROOT
BRANCH   1   7
ATOM      7  S   UNL     1       1.197   3.924  -0.051  0.00  0.00    +0.061 S 
ATOM      8  O   UNL     1       2.460   4.326  -0.563  0.00  0.00    -0.153 OA
ATOM      9  O   UNL     1      -0.029   4.359  -0.622  0.00  0.00    -0.153 OA
BRANCH   7  13
ATOM     10  C   UNL     1       1.139  -0.601  -0.154  0.00  0.00    -0.047 A 
ATOM     11  C   UNL     1      -0.049   0.106  -0.166  0.00  0.00    +0.005 A 
ATOM     12  C   UNL     1      -0.031   1.487  -0.135  0.00  0.00    +0.029 A 
ATOM     13  C   UNL     1       1.175   2.163  -0.091  0.00  0.00    +0.105 A 
ATOM     14  C   UNL     1       2.362   1.456  -0.080  0.00  0.00    +0.029 A 
ATOM     15  C   UNL     1       2.345   0.074  -0.110  0.00  0.00    +0.005 A 
BRANCH  10  16
ATOM     16  C   UNL     1       1.120  -2.108  -0.188  0.00  0.00    +0.035 C 
BRANCH  16  18
ATOM     17  C   UNL     1       1.128  -4.115  -1.675  0.00  0.00    +0.004 C 
ATOM     18  C   UNL     1       1.147  -2.586  -1.641  0.00  0.00    +0.001 C 
ENDBRANCH  16  18
ENDBRANCH  10  16
ENDBRANCH   7  13
ENDBRANCH   1   7
BRANCH   4  19
ATOM     19  C   UNL     1       1.139   7.506   4.426  0.00  0.00    -0.075 C 
BRANCH  19  20
ATOM     20  N   UNL     1      -0.055   7.647   5.270  0.00  0.00    +0.380 N 
ATOM     21  C   UNL     1      -0.181   6.515   6.197  0.00  0.00    -0.079 C 
ATOM     22  C   UNL     1      -1.506   6.620   6.955  0.00  0.00    -0.016 C 
ATOM     23  C   UNL     1      -1.544   7.942   7.727  0.00  0.00    -0.018 C 
ATOM     24  C   UNL     1      -1.363   9.102   6.744  0.00  0.00    -0.016 C 
ATOM     25  C   UNL     1      -0.042   8.926   5.992  0.00  0.00    -0.079 C 
ATOM     26  C   UNL     1      -2.891   8.081   8.438  0.00  0.00    +0.007 C 
ATOM     27  H   UNL     1      -0.938   7.643   4.613  0.00  0.00    -0.082 HD
ENDBRANCH  19  20
ENDBRANCH   4  19
TORSDOF 6
