REMARK  Name = ZINC42684021
REMARK  7 active torsions:
REMARK  status: ('A' for Active; 'I' for Inactive)
REMARK    1  A    between atoms: C_1  and  N_2
REMARK    2  A    between atoms: N_2  and  C_3
REMARK    3  A    between atoms: N_2  and  C_16
REMARK    4  A    between atoms: C_3  and  C_4
REMARK    5  A    between atoms: N_6  and  C_7
REMARK    6  A    between atoms: N_10  and  C_13
REMARK    7  A    between atoms: C_16  and  C_17
REMARK                            x       y       z     vdW  Elec       q    Type
REMARK                         _______ _______ _______ _____ _____    ______ ____
ROOT
ATOM      1  C   UNL     1      -1.212  -0.963  -0.068  0.00  0.00    +0.018 C 
ENDROOT
BRANCH   1   2
ATOM      2  C   UNL     1      -1.892  -0.884  -1.410  0.00  0.00    +0.197 C 
ATOM      3  O   UNL     1      -1.339  -0.336  -2.340  0.00  0.00    -0.278 OA
ATOM      4  N   UNL     1      -3.116  -1.422  -1.578  0.00  0.00    -0.314 N 
ATOM      5  H   UNL     1      -3.559  -1.861  -0.835  0.00  0.00    +0.149 HD
BRANCH   4   6
ATOM      6  C   UNL     1      -3.778  -1.345  -2.883  0.00  0.00    +0.069 C 
ATOM      7  C   UNL     1      -4.520  -0.011  -3.003  0.00  0.00    +0.003 C 
ATOM      8  C   UNL     1      -5.274   0.029  -4.334  0.00  0.00    -0.077 C 
ATOM      9  N   UNL     1      -6.239  -1.075  -4.388  0.00  0.00    +0.382 N 
ATOM     10  C   UNL     1      -5.529  -2.359  -4.346  0.00  0.00    -0.077 C 
ATOM     11  C   UNL     1      -4.785  -2.492  -3.015  0.00  0.00    +0.003 C 
ATOM     12  H   UNL     1      -6.865  -1.012  -3.599  0.00  0.00    -0.081 HD
BRANCH   9  13
ATOM     13  C   UNL     1      -7.013  -0.986  -5.633  0.00  0.00    -0.069 C 
ATOM     14  C   UNL     1      -8.496  -0.628  -5.518  0.00  0.00    -0.017 C 
ATOM     15  C   UNL     1      -8.079  -2.055  -5.880  0.00  0.00    -0.017 C 
ENDBRANCH   9  13
ENDBRANCH   4   6
ENDBRANCH   1   2
BRANCH   1  17
ATOM     16  C   UNL     1      -0.082   1.127  -0.404  0.00  0.00    -0.096 C 
ATOM     17  N   UNL     1       0.101  -0.308  -0.145  0.00  0.00    +0.384 N 
ATOM     18  H   UNL     1       0.638  -0.719  -0.894  0.00  0.00    -0.082 HD
BRANCH  17  19
ATOM     19  C   UNL     1       0.814  -0.489   1.126  0.00  0.00    -0.072 C 
BRANCH  19  20
ATOM     20  C   UNL     1       2.243   0.041   0.990  0.00  0.00    -0.043 C 
ATOM     21  C   UNL     1       3.118  -0.563   2.089  0.00  0.00    +0.008 C 
ATOM     22  C   UNL     1       4.547  -0.033   1.953  0.00  0.00    -0.010 C 
ATOM     23  C   UNL     1       4.540   1.491   2.086  0.00  0.00    +0.007 C 
ATOM     24  C   UNL     1       3.664   2.096   0.987  0.00  0.00    -0.010 C 
ATOM     25  C   UNL     1       2.236   1.565   1.123  0.00  0.00    +0.008 C 
ATOM     26  C   UNL     1       4.224   1.706  -0.383  0.00  0.00    +0.007 C 
ATOM     27  C   UNL     1       4.231   0.182  -0.516  0.00  0.00    -0.010 C 
ATOM     28  C   UNL     1       5.107  -0.423   0.583  0.00  0.00    +0.007 C 
ATOM     29  C   UNL     1       2.802  -0.348  -0.380  0.00  0.00    +0.008 C 
ENDBRANCH  19  20
ENDBRANCH  17  19
ENDBRANCH   1  17
TORSDOF 6
