REMARK  Name = ZINC58458527
REMARK  4 active torsions:
REMARK  status: ('A' for Active; 'I' for Inactive)
REMARK    1  A    between atoms: C_1  and  C_2
REMARK    2  A    between atoms: C_2  and  N_3
REMARK    3  A    between atoms: N_3  and  C_4
REMARK    4  A    between atoms: C_14  and  C_16
REMARK                            x       y       z     vdW  Elec       q    Type
REMARK                         _______ _______ _______ _____ _____    ______ ____
ROOT
ATOM      1  N   UNL     1      -1.380  -0.292   0.096  0.00  0.00    -0.293 N 
ATOM      2  C   UNL     1      -1.905  -0.414   1.331  0.00  0.00    +0.268 C 
ATOM      3  O   UNL     1      -3.071  -0.734   1.467  0.00  0.00    -0.268 OA
ENDROOT
BRANCH   2   4
ATOM      4  C   UNL     1      -1.067  -0.159   2.519  0.00  0.00    +0.153 A 
ATOM      5  C   UNL     1      -1.659  -0.173   3.866  0.00  0.00    +0.020 A 
ATOM      6  C   UNL     1      -3.009  -0.420   4.092  0.00  0.00    +0.011 A 
ATOM      7  C   UNL     1      -3.490  -0.416   5.385  0.00  0.00    +0.001 A 
ATOM      8  C   UNL     1      -2.644  -0.168   6.457  0.00  0.00    +0.001 A 
ATOM      9  C   UNL     1      -1.303   0.080   6.255  0.00  0.00    +0.014 A 
ATOM     10  C   UNL     1      -0.798   0.079   4.958  0.00  0.00    +0.050 A 
ATOM     11  C   UNL     1       0.617   0.334   4.653  0.00  0.00    +0.272 A 
ATOM     12  O   UNL     1       1.416   0.558   5.543  0.00  0.00    -0.266 OA
ATOM     13  N   UNL     1       1.009   0.312   3.362  0.00  0.00    -0.242 N 
ATOM     14  H   UNL     1       1.944   0.480   3.164  0.00  0.00    +0.192 HD
ATOM     15  N   UNL     1       0.216   0.077   2.386  0.00  0.00    -0.166 NA
ENDBRANCH   2   4
BRANCH   1  16
ATOM     16  C   UNL     1      -2.192  -0.610  -1.081  0.00  0.00    +0.083 C 
ATOM     17  C   UNL     1      -1.375  -0.357  -2.349  0.00  0.00    +0.010 C 
ATOM     18  C   UNL     1      -2.223  -0.690  -3.578  0.00  0.00    +0.009 C 
ATOM     19  C   UNL     1      -3.471   0.196  -3.591  0.00  0.00    -0.010 C 
ATOM     20  C   UNL     1      -3.052   1.667  -3.642  0.00  0.00    +0.007 C 
ATOM     21  C   UNL     1      -2.204   1.999  -2.413  0.00  0.00    -0.010 C 
ATOM     22  C   UNL     1      -0.956   1.113  -2.401  0.00  0.00    +0.009 C 
ATOM     23  C   UNL     1      -3.021   1.746  -1.145  0.00  0.00    +0.009 C 
ATOM     24  C   UNL     1      -3.440   0.275  -1.093  0.00  0.00    +0.010 C 
ATOM     25  C   UNL     1      -4.289  -0.057  -2.322  0.00  0.00    +0.009 C 
ENDBRANCH   1  16
BRANCH   1  27
ATOM     26  C   UNL     1       0.104   1.642   0.290  0.00  0.00    +0.024 C 
ATOM     27  C   UNL     1       0.004   0.158  -0.070  0.00  0.00    +0.105 C 
ENDBRANCH   1  27
TORSDOF 3
