REMARK  Name = ZINC39601044
REMARK  8 active torsions:
REMARK  status: ('A' for Active; 'I' for Inactive)
REMARK    1  A    between atoms: C_1  and  C_2
REMARK    2  A    between atoms: C_2  and  C_3
REMARK    3  A    between atoms: C_2  and  C_4
REMARK    4  A    between atoms: C_4  and  C_5
REMARK    5  A    between atoms: C_5  and  N_6
REMARK    6  A    between atoms: C_7  and  C_9
REMARK    7  A    between atoms: C_20  and  C_22
REMARK    8  A    between atoms: C_27  and  C_28
REMARK                            x       y       z     vdW  Elec       q    Type
REMARK                         _______ _______ _______ _____ _____    ______ ____
ROOT
ATOM      1  C   UNL     1      -3.765  -4.556  -0.384  0.00  0.00    +0.100 C 
ATOM      2  C   UNL     1      -4.747  -3.839  -1.338  0.00  0.00    +0.121 C 
ATOM      3  N   UNL     1      -4.928  -4.782  -2.467  0.00  0.00    -0.296 N 
ATOM      4  C   UNL     1      -4.980  -6.118  -1.826  0.00  0.00    +0.115 C 
ATOM      5  C   UNL     1      -3.923  -6.052  -0.705  0.00  0.00    -0.004 C 
ATOM      6  C   UNL     1      -4.412  -6.808   0.526  0.00  0.00    -0.010 C 
ATOM      7  C   UNL     1      -4.506  -8.301   0.199  0.00  0.00    -0.082 C 
ATOM      8  N   UNL     1      -3.187  -8.797  -0.213  0.00  0.00    +0.379 N 
ATOM      9  C   UNL     1      -2.767  -8.131  -1.451  0.00  0.00    -0.082 C 
ATOM     10  C   UNL     1      -2.599  -6.630  -1.194  0.00  0.00    -0.010 C 
ATOM     11  C   UNL     1      -5.024  -4.491  -3.779  0.00  0.00    +0.247 C 
ATOM     12  O   UNL     1      -5.273  -5.370  -4.580  0.00  0.00    -0.270 OA
ATOM     13  H   UNL     1      -2.515  -8.607   0.515  0.00  0.00    -0.086 HD
ATOM     14  H   UNL     1      -3.238  -9.793  -0.369  0.00  0.00    -0.086 HD
ENDROOT
BRANCH  11  15
ATOM     15  C   UNL     1      -4.828  -3.101  -4.244  0.00  0.00    +0.049 A 
ATOM     16  C   UNL     1      -5.287  -2.032  -3.473  0.00  0.00    +0.013 A 
ATOM     17  C   UNL     1      -5.100  -0.738  -3.913  0.00  0.00    +0.001 A 
ATOM     18  C   UNL     1      -4.458  -0.498  -5.115  0.00  0.00    +0.001 A 
ATOM     19  C   UNL     1      -4.000  -1.554  -5.884  0.00  0.00    +0.013 A 
ATOM     20  C   UNL     1      -4.176  -2.852  -5.453  0.00  0.00    +0.067 A 
BRANCH  20  21
ATOM     21  C   UNL     1      -3.671  -4.000  -6.289  0.00  0.00    +0.418 C 
ATOM     22  F   UNL     1      -3.060  -3.502  -7.444  0.00  0.00    -0.166 F 
ATOM     23  F   UNL     1      -2.742  -4.741  -5.551  0.00  0.00    -0.166 F 
ATOM     24  F   UNL     1      -4.745  -4.823  -6.647  0.00  0.00    -0.166 F 
ENDBRANCH  20  21
ENDBRANCH  11  15
BRANCH   1  26
ATOM     25  N   UNL     1      -1.434  -4.145   0.333  0.00  0.00    -0.315 N 
ATOM     26  C   UNL     1      -2.351  -4.109  -0.653  0.00  0.00    +0.218 C 
ATOM     27  O   UNL     1      -2.039  -3.716  -1.758  0.00  0.00    -0.275 OA
ATOM     28  H   UNL     1      -1.683  -4.459   1.216  0.00  0.00    +0.149 HD
BRANCH  25  29
ATOM     29  C   UNL     1      -0.059  -3.710   0.072  0.00  0.00    +0.104 C 
BRANCH  29  30
ATOM     30  C   UNL     1       0.772  -3.850   1.348  0.00  0.00    +0.022 C 
BRANCH  30  32
ATOM     31  C   UNL     1       3.006  -3.418   2.380  0.00  0.00    +0.007 C 
ATOM     32  C   UNL     1       2.207  -3.396   1.075  0.00  0.00    -0.016 C 
ATOM     33  C   UNL     1       2.857  -4.341   0.063  0.00  0.00    +0.007 C 
ENDBRANCH  30  32
ENDBRANCH  29  30
ENDBRANCH  25  29
ENDBRANCH   1  26
TORSDOF 6
