REMARK  Name = ZINC16736160
REMARK  5 active torsions:
REMARK  status: ('A' for Active; 'I' for Inactive)
REMARK    1  A    between atoms: C_1  and  C_2
REMARK    2  A    between atoms: N_15  and  C_25
REMARK    3  A    between atoms: C_16  and  C_18
REMARK    4  A    between atoms: C_25  and  C_26
REMARK    5  A    between atoms: C_26  and  C_27
REMARK                            x       y       z     vdW  Elec       q    Type
REMARK                         _______ _______ _______ _____ _____    ______ ____
ROOT
ATOM      1  C   UNL     1       2.477   3.920  -0.001  0.00  0.00    +0.044 C 
ATOM      2  C   UNL     1       1.170   3.170   0.007  0.00  0.00    -0.050 A 
ATOM      3  C   UNL     1       1.170   1.782   0.001  0.00  0.00    +0.007 A 
ATOM      4  C   UNL     1      -0.013   1.076   0.008  0.00  0.00    +0.047 A 
ATOM      5  C   UNL     1      -1.227   1.757   0.017  0.00  0.00    +0.139 A 
ATOM      6  C   UNL     1      -1.217   3.162   0.031  0.00  0.00    +0.065 A 
ATOM      7  C   UNL     1      -0.011   3.860   0.022  0.00  0.00    +0.018 A 
ATOM      8  C   UNL     1      -2.515   3.866   0.046  0.00  0.00    +0.199 A 
ATOM      9  O   UNL     1      -2.583   5.082   0.054  0.00  0.00    -0.287 OA
ATOM     10  C   UNL     1      -3.717   3.028   0.037  0.00  0.00    +0.072 A 
ATOM     11  C   UNL     1      -3.599   1.678   0.029  0.00  0.00    +0.199 A 
ATOM     12  O   UNL     1      -2.391   1.082   0.020  0.00  0.00    -0.450 OA
ATOM     13  C   UNL     1      -4.962   1.090   0.033  0.00  0.00    +0.283 C 
ATOM     14  O   UNL     1      -5.206  -0.100   0.027  0.00  0.00    -0.267 OA
ATOM     15  N   UNL     1      -5.889   2.064   0.043  0.00  0.00    -0.283 N 
ATOM     16  C   UNL     1      -5.188   3.354   0.046  0.00  0.00    +0.144 C 
ENDROOT
BRANCH  16  17
ATOM     17  C   UNL     1      -5.540   4.132   1.288  0.00  0.00    -0.022 A 
ATOM     18  C   UNL     1      -5.658   3.480   2.502  0.00  0.00    +0.007 A 
ATOM     19  C   UNL     1      -5.975   4.194   3.642  0.00  0.00    +0.020 A 
ATOM     20  C   UNL     1      -6.185   5.560   3.567  0.00  0.00    +0.041 A 
ATOM     21  C   UNL     1      -6.071   6.211   2.351  0.00  0.00    +0.020 A 
ATOM     22  C   UNL     1      -5.749   5.497   1.213  0.00  0.00    +0.007 A 
ATOM     23 CL   UNL     1      -6.589   6.456   4.998  0.00  0.00    -0.084 Cl
ENDBRANCH  16  17
BRANCH  15  24
ATOM     24  C   UNL     1      -7.341   1.872   0.049  0.00  0.00    +0.114 C 
BRANCH  24  25
ATOM     25  C   UNL     1      -7.840   1.797   1.493  0.00  0.00    +0.054 C 
BRANCH  25  26
ATOM     26  C   UNL     1      -9.334   1.600   1.499  0.00  0.00    -0.046 A 
ATOM     27  C   UNL     1     -10.176   2.696   1.515  0.00  0.00    +0.004 A 
ATOM     28  C   UNL     1     -11.546   2.515   1.516  0.00  0.00    +0.000 A 
ATOM     29  C   UNL     1     -12.074   1.237   1.511  0.00  0.00    +0.000 A 
ATOM     30  C   UNL     1     -11.232   0.141   1.501  0.00  0.00    +0.000 A 
ATOM     31  C   UNL     1      -9.862   0.322   1.495  0.00  0.00    +0.004 A 
ENDBRANCH  25  26
ENDBRANCH  24  25
ENDBRANCH  15  24
TORSDOF 4
