REMARK  Name = ZINC01930834
REMARK  16 active torsions:
REMARK  status: ('A' for Active; 'I' for Inactive)
REMARK    1  A    between atoms: C_1  and  C_2
REMARK    2  A    between atoms: C_2  and  O_3
REMARK    3  A    between atoms: O_3  and  C_4
REMARK    4  A    between atoms: C_4  and  C_6
REMARK    5  A    between atoms: C_7  and  C_24
REMARK    6  A    between atoms: C_10  and  N_11
REMARK    7  A    between atoms: C_12  and  C_14
REMARK    8  A    between atoms: C_14  and  N_15
REMARK    9  A    between atoms: N_15  and  C_16
REMARK   10  A    between atoms: N_15  and  C_20
REMARK   11  A    between atoms: C_16  and  C_17
REMARK   12  A    between atoms: C_17  and  C_18
REMARK   13  A    between atoms: C_17  and  C_19
REMARK   14  A    between atoms: C_20  and  C_21
REMARK   15  A    between atoms: C_21  and  C_22
REMARK   16  A    between atoms: C_21  and  C_23
REMARK                            x       y       z     vdW  Elec       q    Type
REMARK                         _______ _______ _______ _____ _____    ______ ____
ROOT
ATOM      1  C   UNL     1      -3.094   3.782   0.347  0.00  0.00    +0.095 A 
ATOM      2  C   UNL     1      -4.423   3.316   0.001  0.00  0.00    +0.005 A 
ATOM      3  C   UNL     1      -4.516   2.066  -0.519  0.00  0.00    +0.056 A 
ATOM      4  S   UNL     1      -2.825   1.510  -0.553  0.00  0.00    -0.080 S 
ATOM      5  C   UNL     1      -2.044   2.904   0.114  0.00  0.00    +0.086 A 
ENDROOT
BRANCH   2   6
ATOM      6  C   UNL     1      -5.622   4.165   0.204  0.00  0.00    -0.016 A 
ATOM      7  C   UNL     1      -5.843   4.779   1.436  0.00  0.00    +0.010 A 
ATOM      8  C   UNL     1      -6.957   5.572   1.619  0.00  0.00    +0.020 A 
ATOM      9  C   UNL     1      -7.861   5.749   0.585  0.00  0.00    +0.041 A 
ATOM     10  C   UNL     1      -7.649   5.136  -0.638  0.00  0.00    +0.020 A 
ATOM     11  C   UNL     1      -6.535   4.346  -0.833  0.00  0.00    +0.010 A 
ATOM     12 CL   UNL     1      -9.265   6.742   0.824  0.00  0.00    -0.084 Cl
ENDBRANCH   2   6
BRANCH   5  13
ATOM     13  N   UNL     1      -0.693   3.098   0.353  0.00  0.00    -0.281 N 
ATOM     14  C   UNL     1       0.190   2.123   0.060  0.00  0.00    +0.201 C 
ATOM     15  O   UNL     1      -0.197   1.075  -0.411  0.00  0.00    -0.278 OA
ATOM     16  H   UNL     1      -0.341   4.049   0.781  0.00  0.00    +0.155 HD
BRANCH  14  17
ATOM     17  C   UNL     1       1.660   2.337   0.315  0.00  0.00    +0.019 C 
BRANCH  17  18
ATOM     18  N   UNL     1       2.386   1.083   0.075  0.00  0.00    +0.386 N 
ATOM     19  H   UNL     1       1.900   0.566  -0.765  0.00  0.00    -0.081 HD
BRANCH  18  20
ATOM     20  C   UNL     1       3.781   1.346  -0.304  0.00  0.00    -0.075 C 
BRANCH  20  21
ATOM     21  C   UNL     1       3.833   1.831  -1.754  0.00  0.00    -0.034 C 
ATOM     22  C   UNL     1       5.264   2.244  -2.103  0.00  0.00    +0.005 C 
ATOM     23  C   UNL     1       3.385   0.704  -2.686  0.00  0.00    +0.005 C 
ENDBRANCH  20  21
ENDBRANCH  18  20
BRANCH  18  24
ATOM     24  C   UNL     1       2.317   0.202   1.249  0.00  0.00    -0.075 C 
BRANCH  24  25
ATOM     25  C   UNL     1       0.969  -0.522   1.263  0.00  0.00    -0.034 C 
ATOM     26  C   UNL     1       0.888  -1.474   0.068  0.00  0.00    +0.005 C 
ATOM     27  C   UNL     1       0.834  -1.321   2.561  0.00  0.00    +0.005 C 
ENDBRANCH  24  25
ENDBRANCH  18  24
ENDBRANCH  17  18
ENDBRANCH  14  17
ENDBRANCH   5  13
BRANCH   1  28
ATOM     28  C   UNL     1      -2.870   5.112   0.915  0.00  0.00    +0.342 C 
ATOM     29  O   UNL     1      -2.663   6.059   0.181  0.00  0.00    -0.245 OA
BRANCH  28  30
ATOM     30  O   UNL     1      -2.894   5.287   2.252  0.00  0.00    -0.461 OA
BRANCH  30  32
ATOM     31  C   UNL     1      -2.728   6.635   4.274  0.00  0.00    +0.048 C 
ATOM     32  C   UNL     1      -2.664   6.633   2.745  0.00  0.00    +0.229 C 
ENDBRANCH  30  32
ENDBRANCH  28  30
ENDBRANCH   1  28
TORSDOF 11
