REMARK  Name = ZINC37936417
REMARK  3 active torsions:
REMARK  status: ('A' for Active; 'I' for Inactive)
REMARK    1  A    between atoms: C_9  and  C_11
REMARK    2  A    between atoms: C_9  and  N_13
REMARK    3  A    between atoms: N_13  and  C_14
REMARK                            x       y       z     vdW  Elec       q    Type
REMARK                         _______ _______ _______ _____ _____    ______ ____
ROOT
ATOM      1  C   UNL     1      -0.012   1.362  -0.274  0.00  0.00    +0.000 A 
ATOM      2  C   UNL     1       1.179   2.056  -0.380  0.00  0.00    +0.000 A 
ATOM      3  C   UNL     1       2.375   1.370  -0.362  0.00  0.00    +0.004 A 
ATOM      4  C   UNL     1       2.394  -0.013  -0.237  0.00  0.00    -0.041 A 
ATOM      5  C   UNL     1       1.208  -0.704  -0.126  0.00  0.00    -0.044 A 
ATOM      6  C   UNL     1       0.004  -0.011  -0.148  0.00  0.00    +0.004 A 
ATOM      7  C   UNL     1       1.154  -2.201   0.028  0.00  0.00    +0.038 C 
ATOM      8  C   UNL     1       2.479  -2.834  -0.393  0.00  0.00    +0.046 C 
ATOM      9  C   UNL     1       3.615  -2.110   0.340  0.00  0.00    +0.124 C 
ATOM     10  C   UNL     1       3.735  -0.699  -0.233  0.00  0.00    +0.076 C 
ENDROOT
BRANCH   9  11
ATOM     11  C   UNL     1       3.310  -2.038   1.778  0.00  0.00    +0.089 C 
ATOM     12  N   UNL     1       3.075  -1.982   2.888  0.00  0.00    -0.194 NA
ENDBRANCH   9  11
BRANCH   9  13
ATOM     13  N   UNL     1       4.872  -2.834   0.137  0.00  0.00    -0.326 N 
ATOM     14  H   UNL     1       4.884  -3.647  -0.392  0.00  0.00    +0.148 HD
BRANCH  13  15
ATOM     15  C   UNL     1       6.055  -2.352   0.704  0.00  0.00    +0.028 A 
ATOM     16  C   UNL     1       6.017  -1.278   1.583  0.00  0.00    +0.024 A 
ATOM     17  C   UNL     1       7.188  -0.804   2.143  0.00  0.00    +0.017 A 
ATOM     18  C   UNL     1       8.397  -1.399   1.828  0.00  0.00    +0.018 A 
ATOM     19  C   UNL     1       8.437  -2.469   0.953  0.00  0.00    +0.017 A 
ATOM     20  C   UNL     1       7.269  -2.951   0.395  0.00  0.00    +0.024 A 
ATOM     21 BR   UNL     1       9.997  -0.746   2.595  0.00  0.00    -0.050 Br
ENDBRANCH  13  15
ENDBRANCH   9  13
TORSDOF 3
