REMARK  Name = ZINC43742705
REMARK  5 active torsions:
REMARK  status: ('A' for Active; 'I' for Inactive)
REMARK    1  A    between atoms: C_1  and  C_2
REMARK    2  A    between atoms: C_12  and  N_17
REMARK    3  A    between atoms: N_17  and  C_18
REMARK    4  A    between atoms: C_18  and  C_19
REMARK    5  A    between atoms: C_31  and  C_38
REMARK                            x       y       z     vdW  Elec       q    Type
REMARK                         _______ _______ _______ _____ _____    ______ ____
ROOT
ATOM      1  N   UNL     1      -0.849  -6.560   1.706  0.00  0.00    +0.385 N 
ATOM      2  H   UNL     1      -1.791  -6.213   1.810  0.00  0.00    -0.085 HD
ATOM      3  H   UNL     1      -0.628  -6.645   0.725  0.00  0.00    -0.085 HD
ENDROOT
BRANCH   1  15
ATOM      4  C   UNL     1      -0.018   1.503   0.010  0.00  0.00    +0.044 C 
ATOM      5  C   UNL     1       0.002  -0.004   0.002  0.00  0.00    -0.050 A 
ATOM      6  C   UNL     1       0.006  -0.686  -1.207  0.00  0.00    +0.005 A 
ATOM      7  C   UNL     1       0.024  -2.063  -1.236  0.00  0.00    +0.026 A 
ATOM      8  C   UNL     1       0.039  -2.780  -0.045  0.00  0.00    +0.047 A 
ATOM      9  C   UNL     1       0.036  -2.084   1.179  0.00  0.00    +0.003 A 
ATOM     10  C   UNL     1       0.023  -0.688   1.184  0.00  0.00    +0.013 A 
ATOM     11  C   UNL     1       0.056  -3.108   2.219  0.00  0.00    -0.021 A 
ATOM     12  C   UNL     1       0.069  -4.306   1.604  0.00  0.00    +0.006 A 
ATOM     13  N   UNL     1       0.059  -4.126   0.250  0.00  0.00    -0.359 N 
ATOM     14  H   UNL     1       0.064  -4.840  -0.407  0.00  0.00    +0.166 HD
ATOM     15  C   UNL     1       0.090  -5.626   2.341  0.00  0.00    -0.024 C 
ATOM     16  C   UNL     1      -0.327  -5.379   3.795  0.00  0.00    -0.009 C 
ATOM     17  C   UNL     1       0.496  -4.225   4.374  0.00  0.00    +0.003 C 
ATOM     18  C   UNL     1       0.064  -2.911   3.713  0.00  0.00    +0.037 C 
ENDBRANCH   1  15
BRANCH   1  19
ATOM     19  C   UNL     1      -0.739  -7.877   2.348  0.00  0.00    -0.067 C 
BRANCH  19  20
ATOM     20  C   UNL     1      -1.717  -8.850   1.687  0.00  0.00    +0.087 C 
ATOM     21  C   UNL     1      -1.672 -10.224   2.383  0.00  0.00    +0.042 C 
ATOM     22  C   UNL     1      -2.781 -10.403   3.390  0.00  0.00    +0.016 C 
ATOM     23  C   UNL     1      -4.154 -10.375   2.719  0.00  0.00    +0.021 C 
ATOM     24  C   UNL     1      -5.235 -10.597   3.751  0.00  0.00    -0.073 C 
ATOM     25  C   UNL     1      -4.960 -10.572   5.031  0.00  0.00    +0.008 C 
ATOM     26  C   UNL     1      -6.645 -10.849   3.262  0.00  0.00    +0.030 C 
ATOM     27  C   UNL     1      -6.611 -11.974   2.223  0.00  0.00    +0.005 C 
ATOM     28  C   UNL     1      -5.610 -11.623   1.120  0.00  0.00    +0.007 C 
ATOM     29  C   UNL     1      -4.197 -11.520   1.697  0.00  0.00    -0.022 C 
ATOM     30  C   UNL     1      -3.179 -11.215   0.603  0.00  0.00    +0.052 C 
ATOM     31  C   UNL     1      -1.773 -11.180   1.179  0.00  0.00    +0.181 C 
ATOM     32  O   UNL     1      -0.965 -10.479   0.192  0.00  0.00    -0.461 OA
ATOM     33  C   UNL     1      -1.282  -9.165   0.264  0.00  0.00    +0.309 C 
ATOM     34  O   UNL     1      -1.228  -8.373  -0.647  0.00  0.00    -0.251 OA
ATOM     35  C   UNL     1      -3.844 -12.839   2.388  0.00  0.00    +0.012 C 
ENDBRANCH  19  20
ENDBRANCH   1  19
TORSDOF 3
