REMARK  Name = ZINC02427524
REMARK  6 active torsions:
REMARK  status: ('A' for Active; 'I' for Inactive)
REMARK    1  A    between atoms: C_1  and  O_2
REMARK    2  A    between atoms: O_2  and  C_3
REMARK    3  A    between atoms: C_5  and  C_10
REMARK    4  A    between atoms: C_8  and  O_9
REMARK    5  A    between atoms: N_25  and  C_26
REMARK    6  A    between atoms: C_26  and  C_27
REMARK                            x       y       z     vdW  Elec       q    Type
REMARK                         _______ _______ _______ _____ _____    ______ ____
ROOT
ATOM      1  C   UNL     1       3.016   4.252   2.192  0.00  0.00    +0.145 C 
ATOM      2  C   UNL     1       2.902   4.932   3.531  0.00  0.00    +0.072 A 
ATOM      3  C   UNL     1       3.711   4.865   4.751  0.00  0.00    +0.199 A 
ATOM      4  O   UNL     1       4.700   4.157   4.825  0.00  0.00    -0.287 OA
ATOM      5  C   UNL     1       3.270   5.700   5.886  0.00  0.00    +0.065 A 
ATOM      6  C   UNL     1       3.965   5.713   7.093  0.00  0.00    +0.030 A 
ATOM      7  C   UNL     1       3.517   6.507   8.127  0.00  0.00    +0.019 A 
ATOM      8  C   UNL     1       2.381   7.288   7.965  0.00  0.00    +0.019 A 
ATOM      9  C   UNL     1       1.685   7.284   6.776  0.00  0.00    +0.048 A 
ATOM     10  C   UNL     1       2.119   6.490   5.718  0.00  0.00    +0.140 A 
ATOM     11  O   UNL     1       1.447   6.477   4.552  0.00  0.00    -0.450 OA
ATOM     12  C   UNL     1       1.810   5.734   3.489  0.00  0.00    +0.199 A 
ATOM     13  C   UNL     1       1.191   5.610   2.145  0.00  0.00    +0.284 C 
ATOM     14  O   UNL     1       0.196   6.204   1.781  0.00  0.00    -0.267 OA
ATOM     15  N   UNL     1       1.888   4.743   1.391  0.00  0.00    -0.276 N 
ATOM     16 BR   UNL     1       4.453   6.533   9.770  0.00  0.00    -0.050 Br
ENDROOT
BRANCH   1  19
ATOM     17  C   UNL     1       6.566   4.053   0.914  0.00  0.00    +0.162 A 
ATOM     18  C   UNL     1       5.368   3.718   1.525  0.00  0.00    +0.055 A 
ATOM     19  C   UNL     1       4.320   4.620   1.532  0.00  0.00    -0.019 A 
ATOM     20  C   UNL     1       4.468   5.861   0.941  0.00  0.00    +0.009 A 
ATOM     21  C   UNL     1       5.663   6.203   0.336  0.00  0.00    +0.049 A 
ATOM     22  C   UNL     1       6.715   5.302   0.320  0.00  0.00    +0.158 A 
BRANCH  17  24
ATOM     23  C   UNL     1       7.371   1.901   1.531  0.00  0.00    +0.277 C 
ATOM     24  O   UNL     1       7.596   3.165   0.901  0.00  0.00    -0.491 OA
ENDBRANCH  17  24
BRANCH  22  25
ATOM     25  O   UNL     1       7.891   5.638  -0.275  0.00  0.00    -0.503 OA
ATOM     26  H   UNL     1       8.525   6.064   0.319  0.00  0.00    +0.292 HD
ENDBRANCH  22  25
ENDBRANCH   1  19
BRANCH  15  27
ATOM     27  C   UNL     1       1.581   4.361   0.010  0.00  0.00    +0.183 C 
BRANCH  27  28
ATOM     28  C   UNL     1       0.671   3.160   0.012  0.00  0.00    +0.122 A 
ATOM     29  C   UNL     1      -0.673   3.191   0.025  0.00  0.00    +0.046 A 
ATOM     30  C   UNL     1      -1.114   1.848   0.017  0.00  0.00    +0.041 A 
ATOM     31  C   UNL     1      -0.013   1.076   0.008  0.00  0.00    +0.195 A 
ATOM     32  O   UNL     1       1.066   1.876   0.002  0.00  0.00    -0.466 OA
ENDBRANCH  27  28
ENDBRANCH  15  27
TORSDOF 5
