REMARK  Name = ZINC53704432
REMARK  6 active torsions:
REMARK  status: ('A' for Active; 'I' for Inactive)
REMARK    1  A    between atoms: C_1  and  C_2
REMARK    2  A    between atoms: C_6  and  C_22
REMARK    3  A    between atoms: N_9  and  C_10
REMARK    4  A    between atoms: C_13  and  S_16
REMARK    5  A    between atoms: S_16  and  C_19
REMARK    6  A    between atoms: C_22  and  N_23
REMARK                            x       y       z     vdW  Elec       q    Type
REMARK                         _______ _______ _______ _____ _____    ______ ____
ROOT
ATOM      1  C   UNL     1      -0.861   1.300   1.019  0.00  0.00    +0.028 C 
ATOM      2  C   UNL     1      -0.460  -0.086   0.509  0.00  0.00    +0.070 C 
ATOM      3  C   UNL     1      -1.543  -1.103   0.881  0.00  0.00    +0.022 C 
ATOM      4  C   UNL     1      -1.075  -2.507   0.491  0.00  0.00    +0.005 C 
ATOM      5  C   UNL     1       0.200  -2.853   1.265  0.00  0.00    -0.011 C 
ATOM      6  C   UNL     1       1.303  -1.856   0.897  0.00  0.00    +0.107 C 
ATOM      7  N   UNL     1       0.808  -0.492   1.130  0.00  0.00    -0.327 N 
ENDROOT
BRANCH   7   8
ATOM      8  C   UNL     1       1.527   0.400   1.929  0.00  0.00    +0.030 A 
ATOM      9  C   UNL     1       1.341   0.406   3.305  0.00  0.00    +0.025 A 
ATOM     10  C   UNL     1       2.053   1.289   4.093  0.00  0.00    +0.029 A 
ATOM     11  C   UNL     1       2.951   2.166   3.513  0.00  0.00    +0.095 A 
ATOM     12  C   UNL     1       3.139   2.162   2.143  0.00  0.00    +0.029 A 
ATOM     13  C   UNL     1       2.434   1.278   1.350  0.00  0.00    +0.025 A 
BRANCH  11  14
ATOM     14  S   UNL     1       3.858   3.291   4.521  0.00  0.00    +0.058 S 
ATOM     15  O   UNL     1       4.165   4.381   3.662  0.00  0.00    -0.164 OA
ATOM     16  O   UNL     1       3.046   3.482   5.671  0.00  0.00    -0.164 OA
BRANCH  14  17
ATOM     17  C   UNL     1       5.374   2.400   4.967  0.00  0.00    +0.485 C 
ATOM     18  F   UNL     1       5.041   1.234   5.663  0.00  0.00    -0.183 F 
ATOM     19  F   UNL     1       6.077   2.065   3.804  0.00  0.00    -0.183 F 
ENDBRANCH  14  17
ENDBRANCH  11  14
ENDBRANCH   7   8
BRANCH   5  20
ATOM     20  C   UNL     1       0.649  -4.270   0.900  0.00  0.00    -0.081 C 
BRANCH  20  21
ATOM     21  N   UNL     1      -0.358  -5.236   1.358  0.00  0.00    +0.378 N 
ATOM     22  H   UNL     1      -0.463  -5.164   2.359  0.00  0.00    -0.090 HD
ATOM     23  H   UNL     1      -1.242  -5.038   0.912  0.00  0.00    -0.090 HD
ATOM     24  H   UNL     1      -0.062  -6.170   1.118  0.00  0.00    -0.090 HD
ENDBRANCH  20  21
ENDBRANCH   5  20
TORSDOF 5
