REMARK  Name = ZINC39775705
REMARK  8 active torsions:
REMARK  status: ('A' for Active; 'I' for Inactive)
REMARK    1  A    between atoms: C_1  and  C_2
REMARK    2  A    between atoms: C_2  and  C_19
REMARK    3  A    between atoms: N_3  and  N_4
REMARK    4  A    between atoms: C_5  and  C_7
REMARK    5  A    between atoms: C_7  and  C_8
REMARK    6  A    between atoms: C_8  and  C_9
REMARK    7  A    between atoms: C_9  and  C_10
REMARK    8  A    between atoms: C_19  and  N_20
REMARK                            x       y       z     vdW  Elec       q    Type
REMARK                         _______ _______ _______ _____ _____    ______ ____
ROOT
ATOM      1  N   UNL     1       0.023   0.044   2.324  0.00  0.00    -0.207 N 
ATOM      2  C   UNL     1       0.044  -0.636   3.487  0.00  0.00    +0.232 C 
ATOM      3  O   UNL     1       0.060  -1.849   3.481  0.00  0.00    -0.274 OA
ATOM      4  H   UNL     1       0.010   1.014   2.329  0.00  0.00    +0.177 HD
ENDROOT
BRANCH   1   7
ATOM      5  C   UNL     1      -0.018   1.503   0.010  0.00  0.00    +0.064 C 
ATOM      6  C   UNL     1       0.002  -0.004   0.002  0.00  0.00    +0.052 C 
ATOM      7  N   UNL     1       0.021  -0.650   1.107  0.00  0.00    -0.188 NA
BRANCH   6   8
ATOM      8  C   UNL     1      -0.000  -0.750  -1.307  0.00  0.00    +0.177 C 
BRANCH   8   9
ATOM      9  N   UNL     1       0.022  -2.192  -1.047  0.00  0.00    -0.244 N 
ATOM     10  C   UNL     1      -1.099  -3.015  -0.897  0.00  0.00    +0.068 A 
ATOM     11  C   UNL     1      -2.461  -2.770  -0.938  0.00  0.00    +0.026 A 
ATOM     12  C   UNL     1      -3.355  -3.809  -0.749  0.00  0.00    +0.002 A 
ATOM     13  C   UNL     1      -2.893  -5.091  -0.519  0.00  0.00    +0.002 A 
ATOM     14  C   UNL     1      -1.534  -5.345  -0.476  0.00  0.00    +0.026 A 
ATOM     15  C   UNL     1      -0.633  -4.310  -0.664  0.00  0.00    +0.065 A 
ATOM     16  N   UNL     1       0.765  -4.255  -0.677  0.00  0.00    -0.263 N 
ATOM     17  N   UNL     1       1.140  -2.964  -0.916  0.00  0.00    -0.160 NA
ATOM     18  H   UNL     1       1.365  -5.005  -0.543  0.00  0.00    +0.168 HD
ATOM     19  H   UNL     1       1.722  -2.901  -1.738  0.00  0.00    +0.168 HD
ENDBRANCH   8   9
ENDBRANCH   6   8
ENDBRANCH   1   7
BRANCH   2  20
ATOM     20  C   UNL     1       0.046   0.110   4.797  0.00  0.00    +0.098 C 
BRANCH  20  21
ATOM     21  C   UNL     1       0.070  -0.890   5.954  0.00  0.00    +0.014 C 
BRANCH  21  22
ATOM     22  C   UNL     1       0.073  -0.132   7.283  0.00  0.00    +0.038 C 
BRANCH  22  23
ATOM     23  C   UNL     1       0.097  -1.118   8.423  0.00  0.00    -0.022 A 
ATOM     24  C   UNL     1       1.284  -1.749   9.004  0.00  0.00    +0.003 A 
ATOM     25  C   UNL     1       2.653  -1.671   8.739  0.00  0.00    +0.010 A 
ATOM     26  C   UNL     1       3.531  -2.408   9.483  0.00  0.00    +0.001 A 
ATOM     27  C   UNL     1       3.073  -3.235  10.500  0.00  0.00    +0.002 A 
ATOM     28  C   UNL     1       1.727  -3.327  10.778  0.00  0.00    +0.026 A 
ATOM     29  C   UNL     1       0.815  -2.585  10.034  0.00  0.00    +0.047 A 
ATOM     30  N   UNL     1      -0.556  -2.461  10.065  0.00  0.00    -0.360 N 
ATOM     31  C   UNL     1      -0.965  -1.579   9.103  0.00  0.00    +0.087 A 
ATOM     32  H   UNL     1      -1.143  -2.927  10.680  0.00  0.00    +0.165 HD
ENDBRANCH  22  23
ENDBRANCH  21  22
ENDBRANCH  20  21
ENDBRANCH   2  20
TORSDOF 7
