REMARK  Name = ZINC63743440
REMARK  7 active torsions:
REMARK  status: ('A' for Active; 'I' for Inactive)
REMARK    1  A    between atoms: C_1  and  C_2
REMARK    2  A    between atoms: C_2  and  C_3
REMARK    3  A    between atoms: C_3  and  C_4
REMARK    4  A    between atoms: N_6  and  C_7
REMARK    5  A    between atoms: C_12  and  N_17
REMARK    6  A    between atoms: N_17  and  S_18
REMARK    7  A    between atoms: S_18  and  C_21
REMARK                            x       y       z     vdW  Elec       q    Type
REMARK                         _______ _______ _______ _____ _____    ______ ____
ROOT
ATOM      1  C   UNL     1       1.341  -4.130  -2.293  0.00  0.00    +0.224 C 
ATOM      2  N   UNL     1       2.249  -4.640  -3.330  0.00  0.00    -0.316 N 
ATOM      3  C   UNL     1       1.694  -5.415  -4.347  0.00  0.00    +0.045 A 
ATOM      4  C   UNL     1       2.404  -5.986  -5.419  0.00  0.00    +0.050 A 
ATOM      5  C   UNL     1       1.761  -6.740  -6.380  0.00  0.00    +0.076 A 
ATOM      6  C   UNL     1       0.391  -6.958  -6.318  0.00  0.00    +0.028 A 
ATOM      7  C   UNL     1      -0.328  -6.406  -5.271  0.00  0.00    +0.018 A 
ATOM      8  C   UNL     1       0.317  -5.655  -4.315  0.00  0.00    +0.032 A 
ATOM      9  S   UNL     1      -0.268  -4.809  -2.862  0.00  0.00    -0.082 S 
ATOM     10  H   UNL     1       3.199  -4.446  -3.307  0.00  0.00    +0.149 HD
ENDROOT
BRANCH   1  13
ATOM     11  C   UNL     1       0.739  -2.004  -1.265  0.00  0.00    +0.215 C 
ATOM     12  O   UNL     1       0.231  -2.623  -0.354  0.00  0.00    -0.276 OA
ATOM     13  N   UNL     1       1.322  -2.665  -2.285  0.00  0.00    -0.288 N 
ATOM     14  H   UNL     1       1.728  -2.170  -3.014  0.00  0.00    +0.151 HD
BRANCH  11  15
ATOM     15  C   UNL     1       0.718  -0.497  -1.257  0.00  0.00    +0.095 C 
BRANCH  15  17
ATOM     16  C   UNL     1      -0.019   1.526   0.010  0.00  0.00    +0.004 C 
ATOM     17  C   UNL     1       0.002  -0.004   0.002  0.00  0.00    +0.006 C 
ENDBRANCH  15  17
ENDBRANCH  11  15
ENDBRANCH   1  13
BRANCH   5  18
ATOM     18  N   UNL     1       2.501  -7.292  -7.433  0.00  0.00    -0.096 NA
BRANCH  18  19
ATOM     19  S   UNL     1       1.741  -8.198  -8.592  0.00  0.00    +0.108 S 
ATOM     20  O   UNL     1       1.268  -9.371  -7.945  0.00  0.00    -0.147 OA
ATOM     21  O   UNL     1       0.878  -7.316  -9.297  0.00  0.00    -0.147 OA
BRANCH  19  22
ATOM     22  C   UNL     1       2.975  -8.717  -9.738  0.00  0.00    +0.194 A 
ATOM     23  H   UNL     1       3.671 -10.542  -8.979  0.00  0.00    +0.168 HD
ATOM     24  C   UNL     1       3.368  -8.062 -10.847  0.00  0.00    +0.131 A 
ATOM     25  N   UNL     1       4.325  -8.789 -11.441  0.00  0.00    -0.351 N 
ATOM     26  C   UNL     1       4.541  -9.870 -10.743  0.00  0.00    +0.172 A 
ATOM     27  N   UNL     1       3.722  -9.862  -9.669  0.00  0.00    -0.330 N 
ATOM     28  H   UNL     1       4.785  -8.549 -12.261  0.00  0.00    +0.166 HD
ENDBRANCH  19  22
ENDBRANCH  18  19
ENDBRANCH   5  18
TORSDOF 6
