REMARK  Name = ZINC59018975
REMARK  11 active torsions:
REMARK  status: ('A' for Active; 'I' for Inactive)
REMARK    1  A    between atoms: C_1  and  C_2
REMARK    2  A    between atoms: C_2  and  O_3
REMARK    3  A    between atoms: O_3  and  C_4
REMARK    4  A    between atoms: C_7  and  N_10
REMARK    5  A    between atoms: C_11  and  C_13
REMARK    6  A    between atoms: C_13  and  S_14
REMARK    7  A    between atoms: S_14  and  C_15
REMARK    8  A    between atoms: N_20  and  N_21
REMARK    9  A    between atoms: C_22  and  C_23
REMARK   10  A    between atoms: C_28  and  O_29
REMARK   11  A    between atoms: O_29  and  C_30
REMARK                            x       y       z     vdW  Elec       q    Type
REMARK                         _______ _______ _______ _____ _____    ______ ____
ROOT
ATOM      1  C   UNL     1       2.371 -10.044  -4.913  0.00  0.00    +0.211 A 
ATOM      2  N   UNL     1       2.840 -10.770  -5.933  0.00  0.00    -0.186 NA
ATOM      3  C   UNL     1       2.635 -12.049  -5.698  0.00  0.00    +0.232 A 
ATOM      4  N   UNL     1       2.020 -12.160  -4.501  0.00  0.00    -0.245 N 
ATOM      5  N   UNL     1       1.865 -10.853  -4.012  0.00  0.00    -0.144 NA
ATOM      6  N   UNL     1       2.987 -13.095  -6.531  0.00  0.00    -0.205 N 
ATOM      7  H   UNL     1       2.793 -14.009  -6.270  0.00  0.00    +0.177 HD
ATOM      8  H   UNL     1       1.743 -12.980  -4.064  0.00  0.00    +0.192 HD
ENDROOT
BRANCH   6   9
ATOM      9  N   UNL     1       3.624 -12.835  -7.752  0.00  0.00    -0.187 NA
ATOM     10  C   UNL     1       3.954 -13.818  -8.533  0.00  0.00    +0.142 C 
BRANCH  10  11
ATOM     11  C   UNL     1       4.624 -13.544  -9.817  0.00  0.00    +0.037 A 
ATOM     12  C   UNL     1       4.976 -14.598 -10.664  0.00  0.00    +0.028 A 
ATOM     13  C   UNL     1       5.603 -14.334 -11.865  0.00  0.00    +0.019 A 
ATOM     14  C   UNL     1       5.884 -13.029 -12.234  0.00  0.00    +0.019 A 
ATOM     15  C   UNL     1       5.541 -11.979 -11.404  0.00  0.00    +0.047 A 
ATOM     16  C   UNL     1       4.906 -12.225 -10.198  0.00  0.00    +0.129 A 
ATOM     17 BR   UNL     1       6.080 -15.761 -13.011  0.00  0.00    -0.050 Br
BRANCH  16  18
ATOM     18  O   UNL     1       4.564 -11.193  -9.384  0.00  0.00    -0.494 OA
ATOM     19  C   UNL     1       4.883  -9.876  -9.838  0.00  0.00    +0.277 C 
ENDBRANCH  16  18
ENDBRANCH  10  11
ENDBRANCH   6   9
BRANCH   1  20
ATOM     20  S   UNL     1       2.429  -8.287  -4.794  0.00  0.00    -0.075 S 
BRANCH  20  21
ATOM     21  C   UNL     1       1.651  -7.929  -3.195  0.00  0.00    +0.173 C 
BRANCH  21  23
ATOM     22  N   UNL     1       1.102  -5.938  -1.834  0.00  0.00    -0.285 N 
ATOM     23  C   UNL     1       1.635  -6.440  -2.966  0.00  0.00    +0.227 C 
ATOM     24  O   UNL     1       2.103  -5.694  -3.799  0.00  0.00    -0.275 OA
ATOM     25  H   UNL     1       0.797  -6.536  -1.135  0.00  0.00    +0.155 HD
BRANCH  22  29
ATOM     26  C   UNL     1       0.759  -1.811  -1.344  0.00  0.00    +0.121 A 
ATOM     27  C   UNL     1       0.629  -2.373  -2.606  0.00  0.00    +0.047 A 
ATOM     28  C   UNL     1       0.743  -3.739  -2.769  0.00  0.00    +0.027 A 
ATOM     29  C   UNL     1       0.987  -4.551  -1.670  0.00  0.00    +0.034 A 
ATOM     30  C   UNL     1       1.117  -3.989  -0.407  0.00  0.00    +0.027 A 
ATOM     31  C   UNL     1       1.009  -2.622  -0.246  0.00  0.00    +0.047 A 
BRANCH  26  32
ATOM     32  O   UNL     1       0.648  -0.466  -1.184  0.00  0.00    -0.492 OA
BRANCH  32  34
ATOM     33  C   UNL     1       0.297   1.788  -1.982  0.00  0.00    +0.048 C 
ATOM     34  C   UNL     1       0.390   0.308  -2.357  0.00  0.00    +0.225 C 
ENDBRANCH  32  34
ENDBRANCH  26  32
ENDBRANCH  22  29
ENDBRANCH  21  23
ENDBRANCH  20  21
ENDBRANCH   1  20
TORSDOF 9
