REMARK  Name = ZINC36005439
REMARK  14 active torsions:
REMARK  status: ('A' for Active; 'I' for Inactive)
REMARK    1  A    between atoms: C_1  and  C_2
REMARK    2  A    between atoms: C_2  and  O_3
REMARK    3  A    between atoms: O_3  and  C_4
REMARK    4  A    between atoms: C_4  and  C_6
REMARK    5  A    between atoms: C_7  and  C_23
REMARK    6  A    between atoms: N_8  and  C_22
REMARK    7  A    between atoms: C_12  and  C_14
REMARK    8  A    between atoms: C_16  and  C_21
REMARK    9  A    between atoms: C_19  and  C_20
REMARK   10  A    between atoms: C_23  and  N_24
REMARK   11  A    between atoms: N_32  and  C_33
REMARK   12  A    between atoms: C_33  and  C_34
REMARK   13  A    between atoms: C_33  and  C_35
REMARK   14  A    between atoms: C_33  and  C_36
REMARK                            x       y       z     vdW  Elec       q    Type
REMARK                         _______ _______ _______ _____ _____    ______ ____
ROOT
ATOM      1  C   UNL     1       1.954  -3.097  -2.509  0.00  0.00    +0.080 C 
ATOM      2  C   UNL     1       2.070  -4.374  -2.931  0.00  0.00    +0.041 C 
ATOM      3  N   UNL     1       2.408  -4.662  -4.223  0.00  0.00    -0.260 N 
ATOM      4  C   UNL     1       2.645  -3.728  -5.153  0.00  0.00    +0.307 C 
ATOM      5  O   UNL     1       2.939  -4.082  -6.279  0.00  0.00    -0.252 OA
ATOM      6  N   UNL     1       2.567  -2.410  -4.883  0.00  0.00    -0.288 N 
ATOM      7  C   UNL     1       2.204  -1.995  -3.518  0.00  0.00    +0.144 C 
ATOM      8  C   UNL     1       2.517  -6.070  -4.612  0.00  0.00    +0.139 C 
ATOM      9  H   UNL     1       2.744  -1.751  -5.573  0.00  0.00    +0.151 HD
ENDROOT
BRANCH   7  10
ATOM     10  C   UNL     1       3.316  -1.125  -2.990  0.00  0.00    -0.019 A 
ATOM     11  C   UNL     1       4.626  -1.389  -3.344  0.00  0.00    +0.009 A 
ATOM     12  C   UNL     1       5.646  -0.592  -2.860  0.00  0.00    -0.050 A 
ATOM     13  C   UNL     1       5.356   0.470  -2.023  0.00  0.00    +0.003 A 
ATOM     14  C   UNL     1       4.046   0.734  -1.671  0.00  0.00    +0.004 A 
ATOM     15  C   UNL     1       3.025  -0.061  -2.158  0.00  0.00    -0.045 A 
ATOM     16  C   UNL     1       1.596   0.230  -1.778  0.00  0.00    +0.044 C 
ATOM     17  C   UNL     1       7.075  -0.880  -3.244  0.00  0.00    +0.044 C 
ENDBRANCH   7  10
BRANCH   1  18
ATOM     18  C   UNL     1       1.604  -2.798  -1.171  0.00  0.00    +0.339 C 
ATOM     19  O   UNL     1       0.450  -2.536  -0.888  0.00  0.00    -0.245 OA
BRANCH  18  20
ATOM     20  O   UNL     1       2.550  -2.804  -0.209  0.00  0.00    -0.462 OA
BRANCH  20  22
ATOM     21  C   UNL     1       3.295  -2.733   2.089  0.00  0.00    +0.048 C 
ATOM     22  C   UNL     1       2.114  -2.567   1.131  0.00  0.00    +0.229 C 
ENDBRANCH  20  22
ENDBRANCH  18  20
ENDBRANCH   1  18
BRANCH   2  23
ATOM     23  C   UNL     1       1.825  -5.501  -1.961  0.00  0.00    +0.136 C 
BRANCH  23  24
ATOM     24  N   UNL     1       0.656  -6.277  -2.397  0.00  0.00    -0.294 NA
ATOM     25  C   UNL     1      -0.569  -5.469  -2.323  0.00  0.00    +0.104 C 
ATOM     26  C   UNL     1      -1.729  -6.248  -2.952  0.00  0.00    +0.124 C 
ATOM     27  N   UNL     1      -1.813  -7.566  -2.305  0.00  0.00    -0.283 N 
ATOM     28  C   UNL     1      -0.589  -8.378  -2.218  0.00  0.00    +0.124 C 
ATOM     29  C   UNL     1       0.526  -7.515  -1.618  0.00  0.00    +0.104 C 
ATOM     30  C   UNL     1      -2.980  -8.018  -1.805  0.00  0.00    +0.303 C 
ATOM     31  O   UNL     1      -3.998  -7.373  -1.960  0.00  0.00    -0.253 OA
ATOM     32  N   UNL     1      -3.017  -9.186  -1.133  0.00  0.00    -0.294 N 
ATOM     33  H   UNL     1      -2.195  -9.665  -0.947  0.00  0.00    +0.151 HD
BRANCH  32  34
ATOM     34  C   UNL     1      -4.301  -9.731  -0.683  0.00  0.00    +0.028 C 
ATOM     35  C   UNL     1      -5.205  -9.972  -1.893  0.00  0.00    +0.031 C 
ATOM     36  C   UNL     1      -4.065 -11.053   0.049  0.00  0.00    +0.031 C 
ATOM     37  C   UNL     1      -4.973  -8.736   0.266  0.00  0.00    +0.031 C 
ENDBRANCH  32  34
ENDBRANCH  23  24
ENDBRANCH   2  23
TORSDOF 7
