REMARK  Name = ZINC63372975
REMARK  5 active torsions:
REMARK  status: ('A' for Active; 'I' for Inactive)
REMARK    1  A    between atoms: C_1  and  C_2
REMARK    2  A    between atoms: C_6  and  N_8
REMARK    3  A    between atoms: C_11  and  C_18
REMARK    4  A    between atoms: C_25  and  O_30
REMARK    5  A    between atoms: O_30  and  C_31
REMARK                            x       y       z     vdW  Elec       q    Type
REMARK                         _______ _______ _______ _____ _____    ______ ____
ROOT
ATOM      1  N   UNL     1       0.137  -2.797   4.779  0.00  0.00    -0.229 N 
ATOM      2  C   UNL     1       0.260  -4.139   4.785  0.00  0.00    +0.270 A 
ATOM      3  O   UNL     1       0.433  -4.734   5.834  0.00  0.00    -0.267 OA
ATOM      4  C   UNL     1       0.188  -4.848   3.573  0.00  0.00    +0.101 A 
ATOM      5  C   UNL     1      -0.006  -4.158   2.413  0.00  0.00    +0.263 A 
ATOM      6  N   UNL     1      -0.127  -2.792   2.451  0.00  0.00    -0.274 N 
ATOM      7  H   UNL     1      -0.265  -2.297   1.629  0.00  0.00    +0.173 HD
ATOM      8  C   UNL     1      -0.060  -2.135   3.624  0.00  0.00    +0.337 A 
ATOM      9  O   UNL     1      -0.174  -0.924   3.639  0.00  0.00    -0.246 OA
ATOM     10  O   UNL     1      -0.079  -4.814   1.235  0.00  0.00    -0.267 OA
ENDROOT
BRANCH   4  11
ATOM     11  C   UNL     1       0.324  -6.348   3.556  0.00  0.00    +0.121 C 
ATOM     12  C   UNL     1      -0.899  -6.969   2.877  0.00  0.00    +0.128 C 
ATOM     13  C   UNL     1      -0.843  -6.533   1.417  0.00  0.00    -0.035 C 
ATOM     14  C   UNL     1      -2.011  -5.965   1.150  0.00  0.00    +0.003 A 
ATOM     15  C   UNL     1      -2.584  -5.431  -0.095  0.00  0.00    +0.055 A 
ATOM     16  C   UNL     1      -3.832  -4.893  -0.012  0.00  0.00    +0.121 A 
ATOM     17  C   UNL     1      -4.579  -4.826   1.173  0.00  0.00    +0.047 A 
ATOM     18  C   UNL     1      -4.151  -5.293   2.374  0.00  0.00    +0.029 A 
ATOM     19  C   UNL     1      -2.815  -5.903   2.410  0.00  0.00    +0.043 A 
ATOM     20  N   UNL     1      -2.160  -6.456   3.411  0.00  0.00    -0.376 N 
ATOM     21  C   UNL     1       0.410  -6.691   0.591  0.00  0.00    +0.048 C 
ATOM     22  C   UNL     1       1.563  -6.139   1.449  0.00  0.00    +0.086 C 
ATOM     23  N   UNL     1       1.522  -6.729   2.791  0.00  0.00    -0.307 NA
ATOM     24  H   UNL     1       2.362  -6.517   3.307  0.00  0.00    +0.123 HD
ATOM     25  H   UNL     1      -2.451  -6.514   4.335  0.00  0.00    +0.160 HD
BRANCH  16  26
ATOM     26  O   UNL     1      -4.387  -4.390  -1.146  0.00  0.00    -0.495 OA
ATOM     27  C   UNL     1      -5.697  -3.831  -1.034  0.00  0.00    +0.277 C 
ENDBRANCH  16  26
ENDBRANCH   4  11
BRANCH   1  33
ATOM     28  C   UNL     1       2.830  -0.425   8.142  0.00  0.00    +0.044 C 
ATOM     29  C   UNL     1       1.501  -0.925   7.637  0.00  0.00    -0.048 A 
ATOM     30  C   UNL     1       0.350  -0.684   8.365  0.00  0.00    +0.003 A 
ATOM     31  C   UNL     1      -0.871  -1.142   7.906  0.00  0.00    +0.002 A 
ATOM     32  C   UNL     1      -0.945  -1.843   6.718  0.00  0.00    +0.026 A 
ATOM     33  C   UNL     1       0.209  -2.086   5.984  0.00  0.00    +0.055 A 
ATOM     34  C   UNL     1       1.433  -1.620   6.446  0.00  0.00    +0.029 A 
ENDBRANCH   1  33
TORSDOF 3
