REMARK  Name = ZINC06261730
REMARK  6 active torsions:
REMARK  status: ('A' for Active; 'I' for Inactive)
REMARK    1  A    between atoms: C_1  and  C_2
REMARK    2  A    between atoms: C_2  and  C_10
REMARK    3  A    between atoms: C_3  and  C_4
REMARK    4  A    between atoms: C_12  and  O_24
REMARK    5  A    between atoms: N_15  and  C_16
REMARK    6  A    between atoms: C_19  and  O_22
REMARK                            x       y       z     vdW  Elec       q    Type
REMARK                         _______ _______ _______ _____ _____    ______ ____
ROOT
ATOM      1  C   UNL     1       1.567  -1.824  -0.322  0.00  0.00    +0.023 C 
ATOM      2  C   UNL     1       1.399  -0.456  -0.296  0.00  0.00    +0.077 C 
ATOM      3  C   UNL     1       0.217   0.321  -0.484  0.00  0.00    +0.229 C 
ATOM      4  N   UNL     1       0.308   1.609  -0.414  0.00  0.00    -0.186 NA
ATOM      5  C   UNL     1       1.483   2.223  -0.169  0.00  0.00    +0.197 C 
ATOM      6  N   UNL     1       1.741   3.516  -0.067  0.00  0.00    -0.222 NA
ATOM      7  S   UNL     1       2.603   0.837  -0.017  0.00  0.00    -0.045 S 
ENDROOT
BRANCH   6   8
ATOM      8  C   UNL     1       0.735   4.427  -0.216  0.00  0.00    +0.067 A 
ATOM      9  C   UNL     1      -0.178   4.297  -1.267  0.00  0.00    +0.031 A 
ATOM     10  C   UNL     1      -1.196   5.216  -1.410  0.00  0.00    +0.047 A 
ATOM     11  C   UNL     1      -1.308   6.275  -0.519  0.00  0.00    +0.117 A 
ATOM     12  C   UNL     1      -0.399   6.413   0.522  0.00  0.00    +0.047 A 
ATOM     13  C   UNL     1       0.619   5.496   0.677  0.00  0.00    +0.031 A 
BRANCH  11  14
ATOM     14  O   UNL     1      -2.310   7.182  -0.668  0.00  0.00    -0.507 OA
ATOM     15  H   UNL     1      -2.079   7.935  -1.230  0.00  0.00    +0.292 HD
ENDBRANCH  11  14
ENDBRANCH   6   8
BRANCH   1  17
ATOM     16  C   UNL     1       3.912  -1.506   0.554  0.00  0.00    +0.044 C 
ATOM     17  C   UNL     1       2.803  -2.388   0.039  0.00  0.00    -0.049 C 
ATOM     18  C   UNL     1       2.998  -3.724  -0.076  0.00  0.00    +0.011 C 
BRANCH  18  19
ATOM     19  C   UNL     1       4.340  -4.291   0.119  0.00  0.00    -0.025 A 
ATOM     20  C   UNL     1       5.473  -3.570  -0.277  0.00  0.00    +0.008 A 
ATOM     21  C   UNL     1       6.728  -4.106  -0.086  0.00  0.00    +0.001 A 
ATOM     22  C   UNL     1       6.870  -5.358   0.487  0.00  0.00    +0.000 A 
ATOM     23  C   UNL     1       5.755  -6.080   0.877  0.00  0.00    +0.001 A 
ATOM     24  C   UNL     1       4.493  -5.556   0.697  0.00  0.00    +0.008 A 
ENDBRANCH  18  19
ENDBRANCH   1  17
BRANCH   3  25
ATOM     25  O   UNL     1      -0.972  -0.276  -0.730  0.00  0.00    -0.492 OA
ATOM     26  H   UNL     1      -1.707   0.342  -0.842  0.00  0.00    +0.294 HD
ENDBRANCH   3  25
TORSDOF 5
