REMARK  Name = ZINC08314497
REMARK  8 active torsions:
REMARK  status: ('A' for Active; 'I' for Inactive)
REMARK    1  A    between atoms: C_1  and  C_2
REMARK    2  A    between atoms: C_2  and  C_3
REMARK    3  A    between atoms: C_2  and  C_4
REMARK    4  A    between atoms: C_7  and  C_10
REMARK    5  A    between atoms: C_10  and  C_12
REMARK    6  A    between atoms: C_10  and  N_49
REMARK    7  A    between atoms: C_13  and  C_14
REMARK    8  A    between atoms: C_13  and  N_49
REMARK                            x       y       z     vdW  Elec       q    Type
REMARK                         _______ _______ _______ _____ _____    ______ ____
ROOT
ATOM      1  N   UNL     1       5.669  -0.643  -0.055  0.00  0.00    +0.389 N 
ATOM      2  H   UNL     1       5.944  -0.117  -0.893  0.00  0.00    -0.084 HD
ATOM      3  H   UNL     1       5.959  -0.126   0.784  0.00  0.00    -0.084 HD
ENDROOT
BRANCH   1   4
ATOM      4  C   UNL     1       6.334  -1.960  -0.068  0.00  0.00    -0.043 C 
ATOM      5  C   UNL     1       6.468  -2.479   1.365  0.00  0.00    -0.009 C 
BRANCH   4   9
ATOM      6  C   UNL     1      10.216  -1.553  -1.804  0.00  0.00    -0.045 A 
ATOM      7  C   UNL     1       9.440  -2.660  -2.096  0.00  0.00    +0.004 A 
ATOM      8  C   UNL     1       8.184  -2.792  -1.534  0.00  0.00    +0.002 A 
ATOM      9  C   UNL     1       7.703  -1.817  -0.680  0.00  0.00    -0.062 A 
ATOM     10  C   UNL     1       8.476  -0.707  -0.393  0.00  0.00    +0.002 A 
ATOM     11  C   UNL     1       9.735  -0.578  -0.951  0.00  0.00    +0.004 A 
BRANCH   6  13
ATOM     12  C   UNL     1      11.638  -0.129  -3.252  0.00  0.00    +0.012 C 
ATOM     13  C   UNL     1      11.585  -1.410  -2.418  0.00  0.00    +0.013 C 
ATOM     14  C   UNL     1      12.636  -1.339  -1.308  0.00  0.00    +0.012 C 
ENDBRANCH   6  13
ENDBRANCH   4   9
ENDBRANCH   1   4
BRANCH   1  15
ATOM     15  C   UNL     1       4.204  -0.809  -0.042  0.00  0.00    +0.016 C 
BRANCH  15  16
ATOM     16  C   UNL     1       3.553   0.550  -0.029  0.00  0.00    +0.203 C 
ATOM     17  O   UNL     1       4.238   1.551  -0.029  0.00  0.00    -0.277 OA
ATOM     18  N   UNL     1       2.209   0.654  -0.015  0.00  0.00    -0.272 N 
ATOM     19  C   UNL     1       1.464   1.915  -0.002  0.00  0.00    +0.118 C 
ATOM     20  C   UNL     1      -0.018   1.508   0.010  0.00  0.00    +0.056 C 
ATOM     21  C   UNL     1       0.002  -0.004   0.002  0.00  0.00    -0.024 A 
ATOM     22  C   UNL     1       1.322  -0.427  -0.013  0.00  0.00    +0.039 A 
ATOM     23  C   UNL     1       1.595  -1.796  -0.024  0.00  0.00    +0.024 A 
ATOM     24  C   UNL     1       0.563  -2.711  -0.019  0.00  0.00    +0.002 A 
ATOM     25  C   UNL     1      -0.750  -2.278  -0.004  0.00  0.00    +0.000 A 
ATOM     26  C   UNL     1      -1.028  -0.924   0.006  0.00  0.00    +0.005 A 
ENDBRANCH  15  16
ENDBRANCH   1  15
TORSDOF 5
