REMARK  Name = ZINC39510379
REMARK  4 active torsions:
REMARK  status: ('A' for Active; 'I' for Inactive)
REMARK    1  A    between atoms: C_1  and  O_2
REMARK    2  A    between atoms: O_2  and  N_3
REMARK    3  A    between atoms: C_12  and  C_15
REMARK    4  A    between atoms: C_20  and  O_21
REMARK                            x       y       z     vdW  Elec       q    Type
REMARK                         _______ _______ _______ _____ _____    ______ ____
ROOT
ATOM      1  N   UNL     1       0.689  -0.596   1.150  0.00  0.00    -0.181 NA
ATOM      2  C   UNL     1       1.884  -1.337   0.723  0.00  0.00    +0.115 C 
ATOM      3  C   UNL     1       2.647  -1.829   1.955  0.00  0.00    +0.019 C 
ATOM      4  C   UNL     1       1.737  -2.739   2.785  0.00  0.00    +0.022 C 
ATOM      5  C   UNL     1       0.477  -1.963   3.181  0.00  0.00    +0.103 C 
ATOM      6  C   UNL     1      -0.217  -1.451   1.921  0.00  0.00    +0.064 C 
ATOM      7  C   UNL     1      -1.483  -0.669   2.300  0.00  0.00    +0.027 C 
ATOM      8  C   UNL     1      -2.669  -1.415   1.652  0.00  0.00    +0.010 C 
ATOM      9  C   UNL     1      -2.032  -2.191   0.473  0.00  0.00    +0.024 C 
ATOM     10  C   UNL     1      -0.670  -2.643   1.057  0.00  0.00    +0.034 C 
ATOM     11 CL   UNL     1       0.934  -0.567   4.227  0.00  0.00    -0.120 Cl
ENDROOT
BRANCH   9  12
ATOM     12  C   UNL     1      -2.878  -3.381   0.098  0.00  0.00    -0.003 A 
ATOM     13  C   UNL     1      -3.158  -4.354   1.038  0.00  0.00    +0.007 A 
ATOM     14  C   UNL     1      -3.933  -5.446   0.695  0.00  0.00    +0.001 A 
ATOM     15  C   UNL     1      -4.431  -5.567  -0.590  0.00  0.00    +0.004 A 
ATOM     16  C   UNL     1      -4.154  -4.597  -1.534  0.00  0.00    +0.046 A 
ATOM     17  C   UNL     1      -3.380  -3.497  -1.190  0.00  0.00    +0.120 A 
BRANCH  17  18
ATOM     18  O   UNL     1      -3.111  -2.538  -2.115  0.00  0.00    -0.506 OA
ATOM     19  H   UNL     1      -2.306  -2.700  -2.626  0.00  0.00    +0.292 HD
ENDBRANCH  17  18
ENDBRANCH   9  12
BRANCH   1  21
ATOM     20  C   UNL     1      -0.017   1.425   0.010  0.00  0.00    +0.221 C 
ATOM     21  O   UNL     1       0.002  -0.004   0.002  0.00  0.00    -0.300 OA
ENDBRANCH   1  21
TORSDOF 3
