REMARK  Name = ZINC13831083
REMARK  7 active torsions:
REMARK  status: ('A' for Active; 'I' for Inactive)
REMARK    1  A    between atoms: C_1  and  C_2
REMARK    2  A    between atoms: C_2  and  O_3
REMARK    3  A    between atoms: O_3  and  C_4
REMARK    4  A    between atoms: C_8  and  C_11
REMARK    5  A    between atoms: C_9  and  O_10
REMARK    6  A    between atoms: C_14  and  C_26
REMARK    7  A    between atoms: C_16  and  C_19
REMARK                            x       y       z     vdW  Elec       q    Type
REMARK                         _______ _______ _______ _____ _____    ______ ____
ROOT
ATOM      1  C   UNL     1      -4.316  -4.377   0.007  0.00  0.00    +0.095 C 
ATOM      2  C   UNL     1      -4.840  -4.475  -1.429  0.00  0.00    +0.079 C 
ATOM      3  C   UNL     1      -6.063  -5.349  -1.458  0.00  0.00    +0.047 C 
ATOM      4  N   UNL     1      -6.386  -6.131  -0.496  0.00  0.00    -0.264 NA
ATOM      5  C   UNL     1      -5.626  -6.265   0.740  0.00  0.00    +0.205 C 
ATOM      6  N   UNL     1      -4.267  -5.736   0.573  0.00  0.00    -0.284 NA
ATOM      7  H   UNL     1      -3.709  -6.348  -0.004  0.00  0.00    +0.125 HD
ENDROOT
BRANCH   3   8
ATOM      8  C   UNL     1      -6.931  -5.305  -2.649  0.00  0.00    -0.000 A 
ATOM      9  C   UNL     1      -6.607  -4.468  -3.720  0.00  0.00    +0.013 A 
ATOM     10  C   UNL     1      -7.419  -4.428  -4.833  0.00  0.00    +0.050 A 
ATOM     11  C   UNL     1      -8.560  -5.217  -4.894  0.00  0.00    +0.166 A 
ATOM     12  C   UNL     1      -8.888  -6.055  -3.828  0.00  0.00    +0.167 A 
ATOM     13  C   UNL     1      -8.075  -6.104  -2.712  0.00  0.00    +0.059 A 
ATOM     14  O   UNL     1     -10.043  -6.717  -4.134  0.00  0.00    -0.453 OA
ATOM     15  C   UNL     1     -10.635  -5.975  -5.217  0.00  0.00    +0.466 C 
ATOM     16  O   UNL     1      -9.508  -5.356  -5.865  0.00  0.00    -0.453 OA
ENDBRANCH   3   8
BRANCH   5  17
ATOM     17  C   UNL     1      -5.547  -7.722   1.119  0.00  0.00    +0.009 A 
ATOM     18  C   UNL     1      -4.410  -8.217   1.730  0.00  0.00    +0.008 A 
ATOM     19  C   UNL     1      -4.338  -9.553   2.078  0.00  0.00    +0.000 A 
ATOM     20  C   UNL     1      -5.404 -10.394   1.815  0.00  0.00    +0.001 A 
ATOM     21  C   UNL     1      -6.541  -9.900   1.205  0.00  0.00    +0.020 A 
ATOM     22  C   UNL     1      -6.616  -8.562   0.862  0.00  0.00    +0.047 A 
ATOM     23 CL   UNL     1      -8.046  -7.939   0.101  0.00  0.00    -0.083 Cl
ENDBRANCH   5  17
BRANCH   1  28
ATOM     24  C   UNL     1      -1.498  -1.849   0.006  0.00  0.00    +0.162 A 
ATOM     25  C   UNL     1      -0.389  -2.680  -0.003  0.00  0.00    +0.049 A 
ATOM     26  C   UNL     1      -0.553  -4.052  -0.008  0.00  0.00    +0.004 A 
ATOM     27  C   UNL     1      -1.823  -4.600  -0.005  0.00  0.00    +0.009 A 
ATOM     28  C   UNL     1      -2.934  -3.777   0.004  0.00  0.00    +0.015 A 
ATOM     29  C   UNL     1      -2.776  -2.400   0.016  0.00  0.00    +0.163 A 
BRANCH  29  30
ATOM     30  O   UNL     1      -3.868  -1.589   0.030  0.00  0.00    -0.503 OA
ATOM     31  H   UNL     1      -4.192  -1.350  -0.849  0.00  0.00    +0.292 HD
ENDBRANCH  29  30
BRANCH  24  32
ATOM     32  O   UNL     1      -1.339  -0.499   0.012  0.00  0.00    -0.489 OA
BRANCH  32  34
ATOM     33  C   UNL     1      -0.019   1.526   0.010  0.00  0.00    +0.048 C 
ATOM     34  C   UNL     1       0.002  -0.004   0.002  0.00  0.00    +0.226 C 
ENDBRANCH  32  34
ENDBRANCH  24  32
ENDBRANCH   1  28
TORSDOF 6
