REMARK  Name = ZINC38688229
REMARK  8 active torsions:
REMARK  status: ('A' for Active; 'I' for Inactive)
REMARK    1  A    between atoms: C_1  and  C_2
REMARK    2  A    between atoms: C_10  and  C_11
REMARK    3  A    between atoms: C_11  and  O_13
REMARK    4  A    between atoms: O_13  and  C_14
REMARK    5  A    between atoms: C_21  and  N_36
REMARK    6  A    between atoms: C_22  and  C_34
REMARK    7  A    between atoms: C_23  and  C_25
REMARK    8  A    between atoms: C_28  and  N_31
REMARK                            x       y       z     vdW  Elec       q    Type
REMARK                         _______ _______ _______ _____ _____    ______ ____
ROOT
ATOM      1  C   UNL     1       0.026  -0.746   4.722  0.00  0.00    +0.136 A 
ATOM      2  C   UNL     1      -0.068   0.631   4.874  0.00  0.00    +0.047 A 
ATOM      3  C   UNL     1      -0.098   1.185   6.138  0.00  0.00    +0.012 A 
ATOM      4  C   UNL     1      -0.033   0.373   7.257  0.00  0.00    +0.008 A 
ATOM      5  C   UNL     1       0.060  -1.002   7.111  0.00  0.00    +0.138 A 
ATOM      6  C   UNL     1       0.085  -1.562   5.840  0.00  0.00    +0.093 A 
ATOM      7  O   UNL     1       0.124  -1.814   8.195  0.00  0.00    -0.441 OA
ATOM      8  C   UNL     1       0.481  -1.311   9.389  0.00  0.00    +0.199 C 
ATOM      9  C   UNL     1       0.414   0.014   9.658  0.00  0.00    +0.098 C 
ATOM     10  C   UNL     1      -0.067   0.997   8.627  0.00  0.00    +0.098 C 
ENDROOT
BRANCH  10  11
ATOM     11  C   UNL     1      -1.480   1.410   8.953  0.00  0.00    -0.035 A 
ATOM     12  C   UNL     1      -2.485   0.462   8.996  0.00  0.00    +0.007 A 
ATOM     13  C   UNL     1      -3.780   0.841   9.294  0.00  0.00    +0.033 A 
ATOM     14  C   UNL     1      -4.070   2.168   9.550  0.00  0.00    +0.126 A 
ATOM     15  C   UNL     1      -3.065   3.116   9.508  0.00  0.00    +0.033 A 
ATOM     16  C   UNL     1      -1.769   2.736   9.214  0.00  0.00    +0.007 A 
BRANCH  14  17
ATOM     17  N   UNL     1      -5.458   2.574   9.869  0.00  0.00    +0.056 N 
ATOM     18  O   UNL     1      -6.337   1.744   9.906  0.00  0.00    -0.126 OA
ATOM     19  O   UNL     1      -5.712   3.734  10.093  0.00  0.00    -0.126 OA
ENDBRANCH  14  17
ENDBRANCH  10  11
BRANCH   8  20
ATOM     20  N   UNL     1       0.927  -2.167  10.365  0.00  0.00    -0.328 N 
ATOM     21  H   UNL     1       0.981  -3.119  10.188  0.00  0.00    +0.145 HD
ATOM     22  H   UNL     1       1.189  -1.819  11.232  0.00  0.00    +0.145 HD
ENDBRANCH   8  20
BRANCH   9  23
ATOM     23  C   UNL     1       0.810   0.489  10.949  0.00  0.00    +0.101 C 
ATOM     24  N   UNL     1       1.123   0.866  11.974  0.00  0.00    -0.191 NA
ENDBRANCH   9  23
BRANCH   1  25
ATOM     25  O   UNL     1       0.054  -1.293   3.478  0.00  0.00    -0.420 OA
BRANCH  25  26
ATOM     26  C   UNL     1      -1.073  -1.869   3.014  0.00  0.00    +0.380 C 
ATOM     27  O   UNL     1      -2.047  -1.967   3.735  0.00  0.00    -0.241 OA
BRANCH  26  37
ATOM     28  C   UNL     1      -3.542  -3.234   1.704  0.00  0.00    +0.048 C 
ATOM     29  C   UNL     1      -2.203  -2.974   1.064  0.00  0.00    +0.010 A 
ATOM     30  C   UNL     1      -1.802  -3.306  -0.302  0.00  0.00    +0.025 A 
ATOM     31  C   UNL     1      -2.443  -3.916  -1.384  0.00  0.00    +0.032 A 
ATOM     32  C   UNL     1      -1.771  -4.084  -2.562  0.00  0.00    +0.042 A 
ATOM     33  C   UNL     1      -0.456  -3.654  -2.690  0.00  0.00    +0.023 A 
ATOM     34  C   UNL     1       0.193  -3.051  -1.635  0.00  0.00    +0.048 A 
ATOM     35  C   UNL     1      -0.471  -2.868  -0.427  0.00  0.00    +0.136 A 
ATOM     36  O   UNL     1      -0.108  -2.325   0.752  0.00  0.00    -0.448 OA
ATOM     37  C   UNL     1      -1.125  -2.377   1.638  0.00  0.00    +0.216 A 
ATOM     38 CL   UNL     1      -2.565  -4.842  -3.907  0.00  0.00    -0.084 Cl
ENDBRANCH  26  37
ENDBRANCH  25  26
ENDBRANCH   1  25
TORSDOF 7
