REMARK  Name = ZINC39465853
REMARK  6 active torsions:
REMARK  status: ('A' for Active; 'I' for Inactive)
REMARK    1  A    between atoms: C_4  and  C_7
REMARK    2  A    between atoms: C_7  and  C_8
REMARK    3  A    between atoms: C_13  and  O_14
REMARK    4  A    between atoms: P_19  and  S_25
REMARK    5  A    between atoms: S_25  and  O_28
REMARK    6  A    between atoms: O_28  and  C_29
REMARK                            x       y       z     vdW  Elec       q    Type
REMARK                         _______ _______ _______ _____ _____    ______ ____
ROOT
ATOM      1  C   UNL     1       4.164  -0.959   1.377  0.00  0.00    -0.001 A 
ATOM      2  C   UNL     1       3.974  -2.198   1.955  0.00  0.00    +0.011 A 
ATOM      3  C   UNL     1       4.389  -2.436   3.256  0.00  0.00    -0.041 A 
ATOM      4  C   UNL     1       4.997  -1.434   3.982  0.00  0.00    -0.020 A 
ATOM      5  C   UNL     1       5.190  -0.188   3.404  0.00  0.00    +0.051 A 
ATOM      6  C   UNL     1       4.780   0.051   2.102  0.00  0.00    +0.121 A 
ATOM      7  C   UNL     1       5.469  -1.642   5.397  0.00  0.00    +0.130 C 
ATOM      8  C   UNL     1       5.100  -0.413   6.233  0.00  0.00    +0.195 C 
ATOM      9  O   UNL     1       5.657  -0.569   7.553  0.00  0.00    -0.296 OA
ATOM     10  P   UNL     1       5.388  -1.965   8.343  0.00  0.00    +0.458 P 
ATOM     11  O   UNL     1       4.048  -1.947   8.971  0.00  0.00    -0.243 OA
ATOM     12  N   UNL     1       5.463  -3.149   7.192  0.00  0.00    -0.158 NA
ATOM     13  N   UNL     1       4.879  -2.848   5.978  0.00  0.00    -0.224 NA
ATOM     14  C   UNL     1       5.032  -3.997   5.072  0.00  0.00    +0.108 C 
ATOM     15  C   UNL     1       4.158  -3.804   3.847  0.00  0.00    +0.052 C 
ATOM     16  H   UNL     1       5.886  -4.004   7.368  0.00  0.00    +0.152 HD
ENDROOT
BRANCH  10  17
ATOM     17  S   UNL     1       6.881  -2.273   9.816  0.00  0.00    +0.211 S 
ATOM     18  O   UNL     1       6.496  -3.427  10.550  0.00  0.00    -0.126 OA
ATOM     19  O   UNL     1       8.133  -2.176   9.151  0.00  0.00    -0.126 OA
BRANCH  17  20
ATOM     20  O   UNL     1       6.809  -1.099  10.782  0.00  0.00    -0.339 OA
BRANCH  20  21
ATOM     21  C   UNL     1       5.753  -1.149  11.636  0.00  0.00    +0.157 A 
ATOM     22  C   UNL     1       4.544  -0.570  11.280  0.00  0.00    +0.048 A 
ATOM     23  C   UNL     1       3.472  -0.623  12.149  0.00  0.00    +0.004 A 
ATOM     24  C   UNL     1       3.603  -1.252  13.374  0.00  0.00    +0.000 A 
ATOM     25  C   UNL     1       4.808  -1.829  13.731  0.00  0.00    +0.004 A 
ATOM     26  C   UNL     1       5.881  -1.784  12.863  0.00  0.00    +0.048 A 
ENDBRANCH  20  21
ENDBRANCH  17  20
ENDBRANCH  10  17
BRANCH   6  27
ATOM     27  O   UNL     1       4.976   1.272   1.539  0.00  0.00    -0.506 OA
ATOM     28  H   UNL     1       4.245   1.890   1.675  0.00  0.00    +0.292 HD
ENDBRANCH   6  27
BRANCH   1  29
ATOM     29  C   UNL     1       3.711  -0.707  -0.038  0.00  0.00    +0.074 C 
BRANCH  29  33
ATOM     30  C   UNL     1      -0.017   1.378   0.010  0.00  0.00    +0.000 A 
ATOM     31  C   UNL     1       1.171   2.086   0.002  0.00  0.00    +0.000 A 
ATOM     32  C   UNL     1       2.377   1.411  -0.013  0.00  0.00    +0.004 A 
ATOM     33  C   UNL     1       2.396   0.029  -0.020  0.00  0.00    -0.043 A 
ATOM     34  C   UNL     1       1.208  -0.679  -0.012  0.00  0.00    +0.004 A 
ATOM     35  C   UNL     1       0.002  -0.004   0.002  0.00  0.00    +0.000 A 
ENDBRANCH  29  33
ENDBRANCH   1  29
TORSDOF 6
