REMARK  Name = ZINC35556364
REMARK  11 active torsions:
REMARK  status: ('A' for Active; 'I' for Inactive)
REMARK    1  A    between atoms: C_1  and  C_2
REMARK    2  A    between atoms: C_2  and  C_3
REMARK    3  A    between atoms: C_12  and  C_13
REMARK    4  A    between atoms: C_13  and  C_15
REMARK    5  A    between atoms: C_13  and  C_25
REMARK    6  A    between atoms: C_15  and  C_16
REMARK    7  A    between atoms: N_18  and  C_19
REMARK    8  A    between atoms: C_19  and  C_21
REMARK    9  A    between atoms: C_19  and  C_22
REMARK   10  A    between atoms: C_22  and  C_23
REMARK   11  A    between atoms: C_22  and  C_24
REMARK                            x       y       z     vdW  Elec       q    Type
REMARK                         _______ _______ _______ _____ _____    ______ ____
ROOT
ATOM      1  C   UNL     1       0.025  -1.613   6.063  0.00  0.00    +0.060 C 
ENDROOT
BRANCH   1  11
ATOM      2  C   UNL     1       0.731  -0.503   1.223  0.00  0.00    -0.024 A 
ATOM      3  C   UNL     1       2.073  -0.808   1.151  0.00  0.00    +0.005 A 
ATOM      4  C   UNL     1       2.756  -1.268   2.268  0.00  0.00    +0.001 A 
ATOM      5  C   UNL     1       2.107  -1.427   3.460  0.00  0.00    +0.010 A 
ATOM      6  C   UNL     1       0.748  -1.125   3.556  0.00  0.00    +0.004 A 
ATOM      7  C   UNL     1       0.053  -0.653   2.428  0.00  0.00    +0.050 A 
ATOM      8  N   UNL     1      -1.250  -0.435   2.816  0.00  0.00    -0.360 N 
ATOM      9  H   UNL     1      -1.957  -0.111   2.236  0.00  0.00    +0.165 HD
ATOM     10  C   UNL     1      -1.400  -0.746   4.140  0.00  0.00    +0.088 A 
ATOM     11  C   UNL     1      -0.232  -1.176   4.644  0.00  0.00    -0.015 A 
BRANCH   2  13
ATOM     12  C   UNL     1      -0.019   1.526   0.010  0.00  0.00    +0.009 C 
ATOM     13  C   UNL     1       0.002  -0.004   0.002  0.00  0.00    +0.034 C 
ENDBRANCH   2  13
ENDBRANCH   1  11
BRANCH   1  14
ATOM     14  C   UNL     1      -0.290  -0.479   7.003  0.00  0.00    -0.038 A 
ATOM     15  C   UNL     1      -1.569   0.047   7.047  0.00  0.00    +0.006 A 
ATOM     16  C   UNL     1      -1.859   1.087   7.909  0.00  0.00    +0.022 A 
ATOM     17  C   UNL     1      -0.871   1.603   8.729  0.00  0.00    +0.059 A 
ATOM     18  C   UNL     1       0.408   1.076   8.685  0.00  0.00    +0.060 A 
ATOM     19  C   UNL     1       0.696   0.031   7.826  0.00  0.00    +0.025 A 
ATOM     20 CL   UNL     1       1.649   1.722   9.713  0.00  0.00    -0.082 Cl
ATOM     21 CL   UNL     1      -1.236   2.910   9.811  0.00  0.00    -0.082 Cl
ENDBRANCH   1  14
BRANCH   1  22
ATOM     22  C   UNL     1      -0.863  -2.814   6.395  0.00  0.00    +0.108 C 
BRANCH  22  23
ATOM     23  C   UNL     1      -0.519  -3.328   7.769  0.00  0.00    +0.214 C 
ATOM     24  O   UNL     1       0.351  -2.788   8.419  0.00  0.00    -0.276 OA
ATOM     25  N   UNL     1      -1.179  -4.389   8.276  0.00  0.00    -0.312 N 
ATOM     26  H   UNL     1      -1.875  -4.821   7.757  0.00  0.00    +0.149 HD
BRANCH  25  27
ATOM     27  C   UNL     1      -0.844  -4.888   9.612  0.00  0.00    +0.072 C 
ATOM     28  C   UNL     1      -1.618  -4.090  10.664  0.00  0.00    +0.028 C 
BRANCH  27  29
ATOM     29  C   UNL     1      -1.224  -6.367   9.713  0.00  0.00    +0.003 C 
ATOM     30  C   UNL     1      -0.875  -6.889  11.108  0.00  0.00    +0.009 C 
ATOM     31  C   UNL     1      -2.726  -6.526   9.470  0.00  0.00    +0.009 C 
ENDBRANCH  27  29
ENDBRANCH  25  27
ENDBRANCH  22  23
ENDBRANCH   1  22
TORSDOF 7
