REMARK  Name = ZINC04377234
REMARK  5 active torsions:
REMARK  status: ('A' for Active; 'I' for Inactive)
REMARK    1  A    between atoms: C_1  and  C_2
REMARK    2  A    between atoms: C_11  and  C_13
REMARK    3  A    between atoms: C_13  and  C_14
REMARK    4  A    between atoms: C_13  and  C_20
REMARK    5  A    between atoms: C_13  and  O_26
REMARK                            x       y       z     vdW  Elec       q    Type
REMARK                         _______ _______ _______ _____ _____    ______ ____
ROOT
ATOM      1  C   UNL     1       3.605  -0.768  -0.037  0.00  0.00    +0.192 C 
ENDROOT
BRANCH   1  12
ATOM      2  C   UNL     1      -0.580   5.477   2.314  0.00  0.00    +0.044 C 
ATOM      3  C   UNL     1       0.077   4.170   1.951  0.00  0.00    -0.050 A 
ATOM      4  C   UNL     1      -0.516   2.973   2.327  0.00  0.00    +0.005 A 
ATOM      5  C   UNL     1       0.065   1.766   2.008  0.00  0.00    +0.029 A 
ATOM      6  C   UNL     1       1.265   1.744   1.297  0.00  0.00    +0.081 A 
ATOM      7  C   UNL     1       1.867   2.964   0.916  0.00  0.00    +0.085 A 
ATOM      8  C   UNL     1       1.266   4.175   1.253  0.00  0.00    +0.020 A 
ATOM      9  C   UNL     1       3.132   2.901   0.168  0.00  0.00    +0.348 A 
ATOM     10  O   UNL     1       3.705   3.911  -0.192  0.00  0.00    -0.244 OA
ATOM     11  O   UNL     1       3.631   1.674  -0.102  0.00  0.00    -0.404 OA
ATOM     12  C   UNL     1       2.992   0.568   0.299  0.00  0.00    +0.241 A 
ATOM     13  N   UNL     1       1.877   0.580   0.959  0.00  0.00    -0.213 NA
ENDBRANCH   1  12
BRANCH   1  14
ATOM     14  C   UNL     1       4.887  -0.555  -0.800  0.00  0.00    -0.003 A 
ATOM     15  C   UNL     1       5.912   0.182  -0.237  0.00  0.00    +0.007 A 
ATOM     16  C   UNL     1       7.090   0.374  -0.935  0.00  0.00    +0.000 A 
ATOM     17  C   UNL     1       7.238  -0.164  -2.200  0.00  0.00    +0.000 A 
ATOM     18  C   UNL     1       6.211  -0.896  -2.765  0.00  0.00    +0.000 A 
ATOM     19  C   UNL     1       5.035  -1.092  -2.065  0.00  0.00    +0.007 A 
ENDBRANCH   1  14
BRANCH   1  20
ATOM     20  C   UNL     1       3.897  -1.521   1.236  0.00  0.00    -0.003 A 
ATOM     21  C   UNL     1       4.428  -0.856   2.325  0.00  0.00    +0.007 A 
ATOM     22  C   UNL     1       4.691  -1.546   3.494  0.00  0.00    +0.000 A 
ATOM     23  C   UNL     1       4.433  -2.902   3.570  0.00  0.00    +0.000 A 
ATOM     24  C   UNL     1       3.908  -3.567   2.478  0.00  0.00    +0.000 A 
ATOM     25  C   UNL     1       3.639  -2.877   1.311  0.00  0.00    +0.007 A 
ENDBRANCH   1  20
BRANCH   1  26
ATOM     26  O   UNL     1       2.693  -1.522  -0.838  0.00  0.00    -0.371 OA
ATOM     27  H   UNL     1       2.460  -1.097  -1.675  0.00  0.00    +0.212 HD
ENDBRANCH   1  26
TORSDOF 4
