REMARK  Name = ZINC39011806
REMARK  7 active torsions:
REMARK  status: ('A' for Active; 'I' for Inactive)
REMARK    1  A    between atoms: C_3  and  N_12
REMARK    2  A    between atoms: C_4  and  C_8
REMARK    3  A    between atoms: C_13  and  C_15
REMARK    4  A    between atoms: C_15  and  S_16
REMARK    5  A    between atoms: S_16  and  C_17
REMARK    6  A    between atoms: C_20  and  C_24
REMARK    7  A    between atoms: N_22  and  N_23
REMARK                            x       y       z     vdW  Elec       q    Type
REMARK                         _______ _______ _______ _____ _____    ______ ____
ROOT
ATOM      1  S   UNL     1       4.511   6.007  -0.346  0.00  0.00    -0.078 S 
ENDROOT
BRANCH   1   2
ATOM      2  C   UNL     1       6.104   6.750  -0.483  0.00  0.00    +0.189 C 
ATOM      3  N   UNL     1       7.211   6.087  -0.499  0.00  0.00    -0.161 NA
ATOM      4  N   UNL     1       8.316   6.939  -0.617  0.00  0.00    -0.243 N 
ATOM      5  C   UNL     1       7.775   8.307  -0.679  0.00  0.00    +0.222 C 
ATOM      6  N   UNL     1       6.317   8.116  -0.591  0.00  0.00    -0.223 N 
ATOM      7  H   UNL     1       9.250   6.679  -0.651  0.00  0.00    +0.170 HD
BRANCH   5   8
ATOM      8  C   UNL     1       8.286   9.140   0.498  0.00  0.00    +0.197 C 
ATOM      9  C   UNL     1       9.790   9.308   0.424  0.00  0.00    -0.017 C 
ATOM     10  C   UNL     1       9.980  10.621   0.310  0.00  0.00    +0.065 C 
ATOM     11  C   UNL     1      11.466  10.921   0.225  0.00  0.00    +0.057 C 
ATOM     12  C   UNL     1      12.164   9.641   0.734  0.00  0.00    +0.011 C 
ATOM     13  C   UNL     1      11.099   8.562   0.433  0.00  0.00    +0.035 C 
ATOM     14  N   UNL     1       8.780  11.264   0.308  0.00  0.00    -0.158 NA
ATOM     15  N   UNL     1       7.795  10.526   0.409  0.00  0.00    -0.176 NA
ENDBRANCH   5   8
BRANCH   6  16
ATOM     16  N   UNL     1       5.362   9.092  -0.611  0.00  0.00    -0.250 NA
ATOM     17  H   UNL     1       4.438   8.696  -0.533  0.00  0.00    +0.141 HD
ATOM     18  H   UNL     1       5.526   9.773   0.117  0.00  0.00    +0.141 HD
ENDBRANCH   6  16
ENDBRANCH   1   2
BRANCH   1  19
ATOM     19  C   UNL     1       4.863   4.231  -0.238  0.00  0.00    +0.173 C 
BRANCH  19  21
ATOM     20  N   UNL     1       3.584   2.125  -0.021  0.00  0.00    -0.284 N 
ATOM     21  C   UNL     1       3.569   3.469  -0.116  0.00  0.00    +0.227 C 
ATOM     22  O   UNL     1       2.513   4.066  -0.103  0.00  0.00    -0.275 OA
ATOM     23  H   UNL     1       4.429   1.653   0.049  0.00  0.00    +0.155 HD
BRANCH  20  26
ATOM     24  C   UNL     1       0.065   1.243  -0.620  0.00  0.00    +0.022 A 
ATOM     25  C   UNL     1       1.250   1.952  -0.619  0.00  0.00    +0.025 A 
ATOM     26  C   UNL     1       2.381   1.409  -0.024  0.00  0.00    +0.045 A 
ATOM     27  C   UNL     1       2.317   0.154   0.567  0.00  0.00    +0.077 A 
ATOM     28  C   UNL     1       1.130  -0.550   0.562  0.00  0.00    +0.034 A 
ATOM     29  C   UNL     1       0.004  -0.007  -0.031  0.00  0.00    +0.042 A 
ATOM     30 CL   UNL     1      -1.488  -0.895  -0.034  0.00  0.00    -0.084 Cl
BRANCH  27  31
ATOM     31  C   UNL     1       3.543  -0.439   1.213  0.00  0.00    +0.419 C 
ATOM     32  F   UNL     1       3.232  -1.699   1.735  0.00  0.00    -0.166 F 
ATOM     33  F   UNL     1       4.558  -0.567   0.258  0.00  0.00    -0.166 F 
ATOM     34  F   UNL     1       3.978   0.399   2.245  0.00  0.00    -0.166 F 
ENDBRANCH  27  31
ENDBRANCH  20  26
ENDBRANCH  19  21
ENDBRANCH   1  19
TORSDOF 7
