REMARK  Name = ZINC09476057
REMARK  12 active torsions:
REMARK  status: ('A' for Active; 'I' for Inactive)
REMARK    1  A    between atoms: C_1  and  O_2
REMARK    2  A    between atoms: O_2  and  C_3
REMARK    3  A    between atoms: C_6  and  S_9
REMARK    4  A    between atoms: S_9  and  C_12
REMARK    5  A    between atoms: C_12  and  C_13
REMARK    6  A    between atoms: C_13  and  C_14
REMARK    7  A    between atoms: C_14  and  C_15
REMARK    8  A    between atoms: C_15  and  N_17
REMARK    9  A    between atoms: N_19  and  C_31
REMARK   10  A    between atoms: C_23  and  S_27
REMARK   11  A    between atoms: S_27  and  N_30
REMARK   12  A    between atoms: C_31  and  C_32
REMARK                            x       y       z     vdW  Elec       q    Type
REMARK                         _______ _______ _______ _____ _____    ______ ____
ROOT
ATOM      1  N   UNL     1       0.153   1.315  -2.313  0.00  0.00    -0.156 NA
ATOM      2  C   UNL     1       0.185   2.261  -3.249  0.00  0.00    +0.167 A 
ATOM      3  N   UNL     1      -0.079   3.588  -3.116  0.00  0.00    -0.310 N 
ATOM      4  C   UNL     1       0.010   4.426  -4.212  0.00  0.00    +0.059 A 
ATOM      5  C   UNL     1      -0.217   5.810  -4.271  0.00  0.00    +0.029 A 
ATOM      6  C   UNL     1      -0.089   6.494  -5.456  0.00  0.00    +0.030 A 
ATOM      7  C   UNL     1       0.267   5.842  -6.626  0.00  0.00    +0.106 A 
ATOM      8  C   UNL     1       0.497   4.478  -6.597  0.00  0.00    +0.045 A 
ATOM      9  C   UNL     1       0.370   3.794  -5.411  0.00  0.00    +0.041 A 
ATOM     10  S   UNL     1       0.564   2.095  -4.934  0.00  0.00    -0.052 S 
ENDROOT
BRANCH   7  11
ATOM     11  S   UNL     1       0.426   6.741  -8.133  0.00  0.00    +0.056 S 
ATOM     12  O   UNL     1       0.688   8.091  -7.776  0.00  0.00    -0.153 OA
ATOM     13  O   UNL     1       1.300   5.989  -8.964  0.00  0.00    -0.153 OA
BRANCH  11  14
ATOM     14  N   UNL     1      -1.057   6.726  -8.870  0.00  0.00    -0.204 NA
ATOM     15  H   UNL     1      -1.803   6.271  -8.450  0.00  0.00    +0.144 HD
ATOM     16  H   UNL     1      -1.179   7.172  -9.723  0.00  0.00    +0.144 HD
ENDBRANCH  11  14
ENDBRANCH   7  11
BRANCH   1  17
ATOM     17  C   UNL     1      -0.361   1.581  -1.117  0.00  0.00    +0.238 C 
ATOM     18  O   UNL     1      -1.507   1.977  -1.023  0.00  0.00    -0.274 OA
BRANCH  17  19
ATOM     19  C   UNL     1       0.475   1.391   0.122  0.00  0.00    +0.099 C 
BRANCH  19  20
ATOM     20  C   UNL     1      -0.349   1.764   1.355  0.00  0.00    +0.032 C 
BRANCH  20  21
ATOM     21  C   UNL     1       0.500   1.572   2.614  0.00  0.00    +0.172 C 
BRANCH  21  22
ATOM     22  S   UNL     1      -0.477   2.015   4.076  0.00  0.00    -0.003 S 
ATOM     23  O   UNL     1      -0.739   3.412   4.086  0.00  0.00    -0.169 OA
ATOM     24  O   UNL     1      -1.530   1.079   4.263  0.00  0.00    -0.169 OA
BRANCH  22  28
ATOM     25  C   UNL     1       2.305   1.337   7.584  0.00  0.00    +0.120 A 
ATOM     26  C   UNL     1       2.263   2.575   6.960  0.00  0.00    +0.047 A 
ATOM     27  C   UNL     1       1.414   2.779   5.890  0.00  0.00    +0.030 A 
ATOM     28  C   UNL     1       0.606   1.751   5.441  0.00  0.00    +0.088 A 
ATOM     29  C   UNL     1       0.642   0.518   6.065  0.00  0.00    +0.030 A 
ATOM     30  C   UNL     1       1.494   0.307   7.132  0.00  0.00    +0.047 A 
BRANCH  25  32
ATOM     31  C   UNL     1       3.130  -0.166   9.231  0.00  0.00    +0.277 C 
ATOM     32  O   UNL     1       3.140   1.134   8.637  0.00  0.00    -0.495 OA
ENDBRANCH  25  32
ENDBRANCH  22  28
ENDBRANCH  21  22
ENDBRANCH  20  21
ENDBRANCH  19  20
ENDBRANCH  17  19
ENDBRANCH   1  17
BRANCH   3  33
ATOM     33  C   UNL     1      -0.453   4.131  -1.808  0.00  0.00    +0.212 C 
BRANCH  33  34
ATOM     34  C   UNL     1      -1.920   4.210  -1.712  0.00  0.00    -0.084 C 
ATOM     35  C   UNL     1      -3.090   4.273  -1.634  0.00  0.00    +0.005 C 
ENDBRANCH  33  34
ENDBRANCH   3  33
TORSDOF 11
