REMARK  Name = ZINC38747544
REMARK  4 active torsions:
REMARK  status: ('A' for Active; 'I' for Inactive)
REMARK    1  A    between atoms: C_6  and  C_7
REMARK    2  A    between atoms: C_7  and  C_9
REMARK    3  A    between atoms: C_9  and  S_10
REMARK    4  A    between atoms: S_10  and  C_11
REMARK                            x       y       z     vdW  Elec       q    Type
REMARK                         _______ _______ _______ _____ _____    ______ ____
ROOT
ATOM      1  C   UNL     1      -2.738  -4.651   0.004  0.00  0.00    +0.182 C 
ATOM      2  N   UNL     1      -1.513  -5.146  -0.005  0.00  0.00    -0.151 NA
ATOM      3  C   UNL     1      -1.266  -6.456  -0.020  0.00  0.00    +0.272 C 
ATOM      4  O   UNL     1      -0.122  -6.879  -0.025  0.00  0.00    -0.268 OA
ATOM      5  C   UNL     1      -2.436  -7.393  -0.029  0.00  0.00    +0.071 C 
ATOM      6  C   UNL     1      -2.416  -8.734  -0.106  0.00  0.00    -0.042 C 
ATOM      7  C   UNL     1      -1.154  -9.552  -0.372  0.00  0.00    +0.033 C 
ATOM      8  C   UNL     1      -1.446 -10.429  -1.597  0.00  0.00    +0.004 C 
ATOM      9  C   UNL     1      -2.731 -11.226  -1.381  0.00  0.00    +0.002 C 
ATOM     10  C   UNL     1      -3.936 -10.291  -1.247  0.00  0.00    +0.019 C 
ATOM     11  C   UNL     1      -3.759  -9.445   0.017  0.00  0.00    +0.079 C 
ATOM     12  S   UNL     1      -4.936  -8.041   0.002  0.00  0.00    -0.097 S 
ATOM     13  C   UNL     1      -3.752  -6.718  -0.006  0.00  0.00    +0.112 C 
ATOM     14  N   UNL     1      -3.833  -5.413   0.011  0.00  0.00    -0.217 NA
ENDROOT
BRANCH   1  15
ATOM     15  S   UNL     1      -2.935  -2.900   0.016  0.00  0.00    -0.081 S 
BRANCH  15  16
ATOM     16  C   UNL     1      -1.235  -2.267   0.002  0.00  0.00    +0.156 C 
BRANCH  16  17
ATOM     17  C   UNL     1      -1.260  -0.760   0.011  0.00  0.00    +0.173 C 
ATOM     18  O   UNL     1      -2.320  -0.171   0.024  0.00  0.00    -0.291 OA
BRANCH  17  24
ATOM     19  C   UNL     1      -0.017   1.395   0.010  0.00  0.00    +0.012 A 
ATOM     20  C   UNL     1       1.169   2.097   0.002  0.00  0.00    +0.016 A 
ATOM     21  C   UNL     1       2.378   1.420  -0.013  0.00  0.00    +0.018 A 
ATOM     22  C   UNL     1       2.405   0.035  -0.021  0.00  0.00    +0.016 A 
ATOM     23  C   UNL     1       1.227  -0.680  -0.014  0.00  0.00    +0.012 A 
ATOM     24  C   UNL     1       0.002  -0.004   0.002  0.00  0.00    +0.018 A 
ATOM     25 BR   UNL     1       4.000   2.393  -0.025  0.00  0.00    -0.050 Br
ENDBRANCH  17  24
ENDBRANCH  16  17
ENDBRANCH  15  16
ENDBRANCH   1  15
TORSDOF 4
