REMARK  Name = ZINC45462511
REMARK  8 active torsions:
REMARK  status: ('A' for Active; 'I' for Inactive)
REMARK    1  A    between atoms: C_1  and  C_2
REMARK    2  A    between atoms: C_2  and  C_3
REMARK    3  A    between atoms: C_2  and  C_4
REMARK    4  A    between atoms: C_4  and  N_5
REMARK    5  A    between atoms: C_8  and  N_11
REMARK    6  A    between atoms: N_14  and  N_15
REMARK    7  A    between atoms: C_16  and  C_18
REMARK    8  A    between atoms: C_18  and  C_19
REMARK                            x       y       z     vdW  Elec       q    Type
REMARK                         _______ _______ _______ _____ _____    ______ ____
ROOT
ATOM      1  N   UNL     1      -2.066  -6.085   0.891  0.00  0.00    -0.296 N 
ATOM      2  C   UNL     1      -3.132  -6.866   1.158  0.00  0.00    +0.316 C 
ATOM      3  O   UNL     1      -4.188  -6.361   1.486  0.00  0.00    -0.251 OA
ATOM      4  N   UNL     1      -3.027  -8.206   1.060  0.00  0.00    -0.218 N 
ATOM      5  H   UNL     1      -1.224  -6.487   0.629  0.00  0.00    +0.151 HD
ATOM      6  H   UNL     1      -3.794  -8.768   1.253  0.00  0.00    +0.174 HD
ENDROOT
BRANCH   1  10
ATOM      7  N   UNL     1      -1.416  -2.016   0.004  0.00  0.00    +0.380 N 
ATOM      8  C   UNL     1      -0.913  -2.498   1.296  0.00  0.00    -0.077 C 
ATOM      9  C   UNL     1      -0.799  -4.024   1.265  0.00  0.00    +0.004 C 
ATOM     10  C   UNL     1      -2.181  -4.628   0.997  0.00  0.00    +0.071 C 
ATOM     11  C   UNL     1      -2.728  -4.061  -0.316  0.00  0.00    +0.004 C 
ATOM     12  C   UNL     1      -2.770  -2.534  -0.227  0.00  0.00    -0.077 C 
ATOM     13  H   UNL     1      -0.805  -2.334  -0.733  0.00  0.00    -0.082 HD
BRANCH   7  14
ATOM     14  C   UNL     1      -1.450  -0.547   0.011  0.00  0.00    -0.076 C 
BRANCH  14  16
ATOM     15  C   UNL     1       0.749  -0.387  -1.165  0.00  0.00    +0.005 C 
ATOM     16  C   UNL     1      -0.022  -0.005   0.101  0.00  0.00    -0.034 C 
ATOM     17  C   UNL     1      -0.062   1.518   0.233  0.00  0.00    +0.005 C 
ENDBRANCH  14  16
ENDBRANCH   7  14
ENDBRANCH   1  10
BRANCH   4  18
ATOM     18  N   UNL     1      -1.810  -8.787   0.682  0.00  0.00    -0.233 N 
ATOM     19  C   UNL     1      -1.704 -10.127   0.585  0.00  0.00    +0.233 C 
ATOM     20  O   UNL     1      -2.663 -10.830   0.825  0.00  0.00    -0.274 OA
ATOM     21  H   UNL     1      -1.043  -8.225   0.490  0.00  0.00    +0.173 HD
BRANCH  19  22
ATOM     22  C   UNL     1      -0.395 -10.753   0.177  0.00  0.00    +0.133 C 
BRANCH  22  23
ATOM     23  C   UNL     1      -0.543 -12.252   0.145  0.00  0.00    -0.031 A 
ATOM     24  C   UNL     1      -0.195 -12.998   1.229  0.00  0.00    +0.005 A 
ATOM     25  C   UNL     1      -0.325 -14.385   1.217  0.00  0.00    +0.001 A 
ATOM     26  C   UNL     1      -0.804 -15.035   0.121  0.00  0.00    +0.008 A 
ATOM     27  C   UNL     1      -1.174 -14.299  -1.016  0.00  0.00    -0.018 A 
ATOM     28  C   UNL     1      -1.048 -12.887  -1.003  0.00  0.00    -0.014 A 
ATOM     29  C   UNL     1      -1.424 -12.150  -2.139  0.00  0.00    +0.009 A 
ATOM     30  C   UNL     1      -1.908 -12.800  -3.232  0.00  0.00    +0.001 A 
ATOM     31  C   UNL     1      -2.039 -14.188  -3.244  0.00  0.00    +0.001 A 
ATOM     32  C   UNL     1      -1.672 -14.935  -2.167  0.00  0.00    +0.008 A 
ENDBRANCH  22  23
ENDBRANCH  19  22
ENDBRANCH   4  18
TORSDOF 6
