REMARK  Name = ZINC19193261
REMARK  11 active torsions:
REMARK  status: ('A' for Active; 'I' for Inactive)
REMARK    1  A    between atoms: C_1  and  C_2
REMARK    2  A    between atoms: C_2  and  C_3
REMARK    3  A    between atoms: C_3  and  N_4
REMARK    4  A    between atoms: N_4  and  C_5
REMARK    5  A    between atoms: C_6  and  N_21
REMARK    6  A    between atoms: N_7  and  C_14
REMARK    7  A    between atoms: C_14  and  C_15
REMARK    8  A    between atoms: C_22  and  C_24
REMARK    9  A    between atoms: C_24  and  S_25
REMARK   10  A    between atoms: S_25  and  C_26
REMARK   11  A    between atoms: C_29  and  C_32
REMARK                            x       y       z     vdW  Elec       q    Type
REMARK                         _______ _______ _______ _____ _____    ______ ____
ROOT
ATOM      1  C   UNL     1      -7.688   4.497   6.281  0.00  0.00    +0.140 A 
ATOM      2  C   UNL     1      -7.728   3.795   7.468  0.00  0.00    +0.128 A 
ATOM      3  N   UNL     1      -8.599   4.194   8.455  0.00  0.00    -0.276 N 
ATOM      4  C   UNL     1      -9.410   5.251   8.261  0.00  0.00    +0.331 A 
ATOM      5  O   UNL     1     -10.176   5.585   9.144  0.00  0.00    -0.246 OA
ATOM      6  N   UNL     1      -9.388   5.943   7.108  0.00  0.00    -0.273 N 
ATOM      7  H   UNL     1     -10.060   6.804   6.971  0.00  0.00    +0.173 HD
ATOM      8  C   UNL     1      -8.550   5.596   6.112  0.00  0.00    +0.277 A 
ATOM      9  O   UNL     1      -8.539   6.231   5.071  0.00  0.00    -0.266 OA
ENDROOT
BRANCH   1  10
ATOM     10  N   UNL     1      -6.803   4.114   5.251  0.00  0.00    -0.264 N 
ATOM     11  C   UNL     1      -5.470   4.168   5.453  0.00  0.00    +0.230 C 
ATOM     12  O   UNL     1      -5.031   4.622   6.489  0.00  0.00    -0.274 OA
BRANCH  10  13
ATOM     13  C   UNL     1      -7.330   3.660   3.962  0.00  0.00    +0.114 C 
BRANCH  13  15
ATOM     14  C   UNL     1      -8.124   1.675   2.668  0.00  0.00    +0.005 C 
ATOM     15  C   UNL     1      -7.573   2.150   4.014  0.00  0.00    +0.016 C 
ENDBRANCH  13  15
ENDBRANCH  10  13
BRANCH  11  16
ATOM     16  C   UNL     1      -4.526   3.662   4.393  0.00  0.00    +0.172 C 
BRANCH  16  17
ATOM     17  S   UNL     1      -2.814   3.868   4.958  0.00  0.00    -0.097 S 
BRANCH  17  18
ATOM     18  C   UNL     1      -1.847   3.240   3.627  0.00  0.00    +0.097 A 
ATOM     19  C   UNL     1      -0.458   3.243   3.722  0.00  0.00    +0.035 A 
ATOM     20  C   UNL     1       0.289   2.747   2.669  0.00  0.00    +0.016 A 
ATOM     21  C   UNL     1      -0.380   2.263   1.552  0.00  0.00    +0.073 A 
ATOM     22  C   UNL     1      -1.759   2.295   1.522  0.00  0.00    +0.124 A 
ATOM     23  N   UNL     1      -2.447   2.769   2.544  0.00  0.00    -0.248 NA
BRANCH  21  24
ATOM     24  C   UNL     1       0.394   1.712   0.381  0.00  0.00    +0.419 C 
ATOM     25  F   UNL     1       0.599   0.340   0.561  0.00  0.00    -0.166 F 
ATOM     26  F   UNL     1       1.630   2.361   0.293  0.00  0.00    -0.166 F 
ATOM     27  F   UNL     1      -0.330   1.925  -0.797  0.00  0.00    -0.166 F 
ENDBRANCH  21  24
ENDBRANCH  17  18
ENDBRANCH  16  17
ENDBRANCH  11  16
ENDBRANCH   1  10
BRANCH   2  28
ATOM     28  N   UNL     1      -6.904   2.713   7.665  0.00  0.00    -0.343 N 
ATOM     29  H   UNL     1      -6.941   2.158   8.614  0.00  0.00    +0.144 HD
ATOM     30  H   UNL     1      -6.207   2.401   6.873  0.00  0.00    +0.144 HD
ENDBRANCH   2  28
BRANCH   3  31
ATOM     31  C   UNL     1      -8.649   3.462   9.723  0.00  0.00    +0.163 C 
BRANCH  31  32
ATOM     32  C   UNL     1      -9.660   2.349   9.621  0.00  0.00    -0.028 A 
ATOM     33  C   UNL     1     -10.977   2.578   9.974  0.00  0.00    +0.005 A 
ATOM     34  C   UNL     1     -11.906   1.559   9.876  0.00  0.00    +0.000 A 
ATOM     35  C   UNL     1     -11.516   0.308   9.435  0.00  0.00    +0.000 A 
ATOM     36  C   UNL     1     -10.198   0.078   9.087  0.00  0.00    +0.000 A 
ATOM     37  C   UNL     1      -9.270   1.099   9.180  0.00  0.00    +0.005 A 
ENDBRANCH  31  32
ENDBRANCH   3  31
TORSDOF 10
