REMARK  Name = ZINC59883302
REMARK  7 active torsions:
REMARK  status: ('A' for Active; 'I' for Inactive)
REMARK    1  A    between atoms: C_6  and  C_7
REMARK    2  A    between atoms: C_10  and  S_13
REMARK    3  A    between atoms: N_11  and  N_12
REMARK    4  A    between atoms: S_13  and  C_14
REMARK    5  A    between atoms: C_14  and  C_15
REMARK    6  A    between atoms: N_17  and  N_18
REMARK    7  A    between atoms: C_19  and  C_21
REMARK                            x       y       z     vdW  Elec       q    Type
REMARK                         _______ _______ _______ _____ _____    ______ ____
ROOT
ATOM      1  C   UNL     1      -1.266  -0.763   0.011  0.00  0.00    +0.182 A 
ATOM      2  N   UNL     1      -2.458  -0.290   0.293  0.00  0.00    -0.127 NA
ATOM      3  N   UNL     1      -3.334  -1.225   0.203  0.00  0.00    -0.121 NA
ATOM      4  C   UNL     1      -2.756  -2.354  -0.141  0.00  0.00    +0.209 A 
ATOM      5  N   UNL     1      -1.422  -2.099  -0.281  0.00  0.00    -0.224 N 
ENDROOT
BRANCH   1  11
ATOM      6  C   UNL     1      -0.017   1.392   0.010  0.00  0.00    +0.013 A 
ATOM      7  C   UNL     1       1.170   2.095   0.002  0.00  0.00    +0.021 A 
ATOM      8  C   UNL     1       2.378   1.419  -0.013  0.00  0.00    +0.041 A 
ATOM      9  C   UNL     1       2.403   0.034  -0.021  0.00  0.00    +0.021 A 
ATOM     10  C   UNL     1       1.223  -0.680  -0.014  0.00  0.00    +0.013 A 
ATOM     11  C   UNL     1       0.002  -0.004   0.002  0.00  0.00    +0.021 A 
ATOM     12 CL   UNL     1       3.868   2.311  -0.024  0.00  0.00    -0.084 Cl
ENDBRANCH   1  11
BRANCH   5  13
ATOM     13  N   UNL     1      -0.445  -2.986  -0.635  0.00  0.00    -0.295 N 
ATOM     14  H   UNL     1      -0.052  -3.434   0.179  0.00  0.00    +0.163 HD
ATOM     15  H   UNL     1      -0.795  -3.668  -1.290  0.00  0.00    +0.163 HD
ENDBRANCH   5  13
BRANCH   4  16
ATOM     16  S   UNL     1      -3.555  -3.905  -0.385  0.00  0.00    -0.075 S 
BRANCH  16  17
ATOM     17  C   UNL     1      -5.304  -3.556  -0.051  0.00  0.00    +0.174 C 
BRANCH  17  18
ATOM     18  C   UNL     1      -6.110  -4.817  -0.226  0.00  0.00    +0.239 C 
ATOM     19  O   UNL     1      -5.560  -5.849  -0.544  0.00  0.00    -0.273 OA
ATOM     20  N   UNL     1      -7.443  -4.796  -0.029  0.00  0.00    -0.234 N 
ATOM     21  H   UNL     1      -7.884  -3.970   0.225  0.00  0.00    +0.173 HD
BRANCH  20  22
ATOM     22  N   UNL     1      -8.193  -5.969  -0.192  0.00  0.00    -0.234 N 
ATOM     23  C   UNL     1      -9.526  -5.949   0.005  0.00  0.00    +0.232 C 
ATOM     24  O   UNL     1     -10.077  -4.916   0.324  0.00  0.00    -0.274 OA
ATOM     25  H   UNL     1      -7.753  -6.795  -0.446  0.00  0.00    +0.173 HD
BRANCH  23  26
ATOM     26  C   UNL     1     -10.333  -7.210  -0.169  0.00  0.00    +0.076 C 
ATOM     27  C   UNL     1     -10.704  -7.505  -1.632  0.00  0.00    +0.013 C 
ATOM     28  C   UNL     1     -12.082  -7.947  -1.111  0.00  0.00    +0.001 C 
ATOM     29  C   UNL     1     -11.837  -7.020   0.092  0.00  0.00    +0.013 C 
ENDBRANCH  23  26
ENDBRANCH  20  22
ENDBRANCH  17  18
ENDBRANCH  16  17
ENDBRANCH   4  16
TORSDOF 7
