REMARK  Name = ZINC09208830
REMARK  9 active torsions:
REMARK  status: ('A' for Active; 'I' for Inactive)
REMARK    1  A    between atoms: C_1  and  C_2
REMARK    2  A    between atoms: C_2  and  C_3
REMARK    3  A    between atoms: C_8  and  N_9
REMARK    4  A    between atoms: C_12  and  C_17
REMARK    5  A    between atoms: C_17  and  O_18
REMARK    6  A    between atoms: O_18  and  C_19
REMARK    7  A    between atoms: C_19  and  C_21
REMARK    8  A    between atoms: C_26  and  S_27
REMARK    9  A    between atoms: S_27  and  C_28
REMARK                            x       y       z     vdW  Elec       q    Type
REMARK                         _______ _______ _______ _____ _____    ______ ____
ROOT
ATOM      1  N   UNL     1       2.566  10.646  -2.314  0.00  0.00    -0.283 N 
ATOM      2  C   UNL     1       2.259  10.030  -1.117  0.00  0.00    +0.224 A 
ATOM      3  N   UNL     1       1.634   8.854  -1.113  0.00  0.00    -0.196 NA
ATOM      4  C   UNL     1       1.340   8.264   0.031  0.00  0.00    +0.173 A 
ATOM      5  N   UNL     1       1.659   8.840   1.177  0.00  0.00    -0.196 NA
ATOM      6  C   UNL     1       2.288  10.013   1.182  0.00  0.00    +0.217 A 
ATOM      7  N   UNL     1       2.586  10.610   0.033  0.00  0.00    -0.181 NA
ATOM      8  N   UNL     1       2.626  10.611   2.379  0.00  0.00    -0.327 N 
ATOM      9  H   UNL     1       2.405  10.186  -3.152  0.00  0.00    +0.155 HD
ATOM     10  H   UNL     1       3.081  11.467   2.382  0.00  0.00    +0.145 HD
ATOM     11  H   UNL     1       2.409  10.174   3.217  0.00  0.00    +0.145 HD
ENDROOT
BRANCH   1  17
ATOM     12  C   UNL     1       3.876  12.364  -3.394  0.00  0.00    -0.026 A 
ATOM     13  C   UNL     1       4.412  13.637  -3.394  0.00  0.00    +0.005 A 
ATOM     14  C   UNL     1       4.186  14.484  -2.325  0.00  0.00    +0.000 A 
ATOM     15  C   UNL     1       3.423  14.060  -1.252  0.00  0.00    +0.002 A 
ATOM     16  C   UNL     1       2.880  12.790  -1.248  0.00  0.00    +0.023 A 
ATOM     17  C   UNL     1       3.110  11.935  -2.318  0.00  0.00    +0.037 A 
BRANCH  12  19
ATOM     18  C   UNL     1       2.955  11.536  -5.542  0.00  0.00    +0.009 C 
ATOM     19  C   UNL     1       4.123  11.441  -4.559  0.00  0.00    +0.033 C 
ENDBRANCH  12  19
ENDBRANCH   1  17
BRANCH   4  20
ATOM     20  C   UNL     1       0.633   6.933   0.030  0.00  0.00    +0.308 C 
BRANCH  20  21
ATOM     21  O   UNL     1       1.615   5.863   0.010  0.00  0.00    -0.453 OA
BRANCH  21  22
ATOM     22  C   UNL     1       1.144   4.601   0.006  0.00  0.00    +0.342 C 
ATOM     23  O   UNL     1      -0.054   4.399   0.020  0.00  0.00    -0.245 OA
BRANCH  22  24
ATOM     24  C   UNL     1       2.082   3.465  -0.015  0.00  0.00    +0.091 A 
ATOM     25  C   UNL     1       3.465   3.683  -0.031  0.00  0.00    +0.019 A 
ATOM     26  C   UNL     1       4.303   2.583  -0.051  0.00  0.00    +0.021 A 
ATOM     27  C   UNL     1       3.759   1.310  -0.053  0.00  0.00    +0.112 A 
ATOM     28  N   UNL     1       2.454   1.125  -0.032  0.00  0.00    -0.248 NA
ATOM     29  C   UNL     1       1.605   2.142  -0.018  0.00  0.00    +0.116 A 
BRANCH  29  30
ATOM     30  S   UNL     1      -0.130   1.836   0.003  0.00  0.00    -0.035 S 
BRANCH  30  31
ATOM     31  C   UNL     1      -0.130   0.026  -0.011  0.00  0.00    +0.405 C 
ATOM     32  F   UNL     1       0.514  -0.432  -1.166  0.00  0.00    -0.197 F 
ATOM     33  F   UNL     1       0.546  -0.449   1.118  0.00  0.00    -0.197 F 
ENDBRANCH  30  31
ENDBRANCH  29  30
ENDBRANCH  22  24
ENDBRANCH  21  22
ENDBRANCH  20  21
ENDBRANCH   4  20
TORSDOF 8
