REMARK  Name = ZINC00457223
REMARK  6 active torsions:
REMARK  status: ('A' for Active; 'I' for Inactive)
REMARK    1  A    between atoms: C_1  and  C_2
REMARK    2  A    between atoms: C_2  and  C_3
REMARK    3  A    between atoms: N_5  and  C_6
REMARK    4  A    between atoms: C_6  and  N_8
REMARK    5  A    between atoms: N_8  and  C_9
REMARK    6  A    between atoms: C_12  and  C_15
REMARK                            x       y       z     vdW  Elec       q    Type
REMARK                         _______ _______ _______ _____ _____    ______ ____
ROOT
ATOM      1  C   UNL     1      -4.406  -4.218   0.072  0.00  0.00    +0.033 A 
ATOM      2  C   UNL     1      -5.532  -3.401   0.056  0.00  0.00    +0.024 A 
ATOM      3  C   UNL     1      -6.790  -3.960   0.115  0.00  0.00    +0.012 A 
ATOM      4  C   UNL     1      -6.934  -5.347   0.191  0.00  0.00    +0.007 A 
ATOM      5  C   UNL     1      -5.802  -6.163   0.207  0.00  0.00    +0.012 A 
ATOM      6  C   UNL     1      -4.546  -5.599   0.142  0.00  0.00    +0.024 A 
ENDROOT
BRANCH   4   7
ATOM      7  C   UNL     1      -8.282  -5.949   0.256  0.00  0.00    +0.109 A 
ATOM      8  N   UNL     1      -9.454  -5.351   0.247  0.00  0.00    -0.239 NA
ATOM      9  C   UNL     1     -10.615  -6.032   0.311  0.00  0.00    +0.079 A 
ATOM     10  C   UNL     1     -11.933  -5.516   0.311  0.00  0.00    +0.029 A 
ATOM     11  C   UNL     1     -13.007  -6.347   0.383  0.00  0.00    +0.002 A 
ATOM     12  C   UNL     1     -12.858  -7.725   0.459  0.00  0.00    +0.001 A 
ATOM     13  C   UNL     1     -11.588  -8.271   0.462  0.00  0.00    +0.017 A 
ATOM     14  C   UNL     1     -10.496  -7.440   0.389  0.00  0.00    +0.040 A 
ATOM     15  S   UNL     1      -8.736  -7.675   0.357  0.00  0.00    -0.067 S 
ENDBRANCH   4   7
BRANCH   1  16
ATOM     16  N   UNL     1      -3.133  -3.649   0.012  0.00  0.00    -0.297 N 
ATOM     17  H   UNL     1      -2.465  -4.017  -0.587  0.00  0.00    +0.154 HD
BRANCH  16  18
ATOM     18  C   UNL     1      -2.832  -2.587   0.787  0.00  0.00    +0.141 C 
ATOM     19  S   UNL     1      -4.041  -1.869   1.763  0.00  0.00    -0.018 S 
BRANCH  18  22
ATOM     20  C   UNL     1      -1.277  -1.030   1.567  0.00  0.00    +0.218 C 
ATOM     21  O   UNL     1      -2.134  -0.522   2.258  0.00  0.00    -0.275 OA
ATOM     22  N   UNL     1      -1.578  -2.091   0.793  0.00  0.00    -0.268 N 
ATOM     23  H   UNL     1      -0.893  -2.498   0.239  0.00  0.00    +0.156 HD
BRANCH  20  25
ATOM     24  C   UNL     1       0.196   0.717   2.529  0.00  0.00    +0.013 C 
ATOM     25  C   UNL     1       0.124  -0.476   1.573  0.00  0.00    +0.093 C 
ENDBRANCH  20  25
ENDBRANCH  18  22
ENDBRANCH  16  18
ENDBRANCH   1  16
TORSDOF 5
