REMARK  Name = ZINC16605807
REMARK  10 active torsions:
REMARK  status: ('A' for Active; 'I' for Inactive)
REMARK    1  A    between atoms: C_1  and  C_2
REMARK    2  A    between atoms: C_6  and  C_33
REMARK    3  A    between atoms: C_9  and  N_12
REMARK    4  A    between atoms: N_12  and  C_13
REMARK    5  A    between atoms: C_13  and  C_14
REMARK    6  A    between atoms: C_16  and  O_31
REMARK    7  A    between atoms: C_17  and  O_21
REMARK    8  A    between atoms: O_21  and  C_22
REMARK    9  A    between atoms: C_22  and  C_23
REMARK   10  A    between atoms: O_31  and  C_32
REMARK                            x       y       z     vdW  Elec       q    Type
REMARK                         _______ _______ _______ _____ _____    ______ ____
ROOT
ATOM      1  C   UNL     1      -4.915  -2.607  -1.165  0.00  0.00    -0.059 A 
ATOM      2  C   UNL     1      -5.208  -3.819  -1.762  0.00  0.00    +0.051 A 
ATOM      3  C   UNL     1      -6.507  -4.300  -1.754  0.00  0.00    +0.163 A 
ATOM      4  C   UNL     1      -7.515  -3.562  -1.143  0.00  0.00    +0.181 A 
ATOM      5  C   UNL     1      -7.216  -2.348  -0.545  0.00  0.00    +0.086 A 
ATOM      6  C   UNL     1      -5.915  -1.875  -0.552  0.00  0.00    +0.025 A 
ATOM      7 CL   UNL     1      -8.471  -1.423   0.219  0.00  0.00    -0.080 Cl
ENDROOT
BRANCH   3   8
ATOM      8  O   UNL     1      -6.796  -5.492  -2.343  0.00  0.00    -0.491 OA
ATOM      9  C   UNL     1      -5.711  -6.195  -2.952  0.00  0.00    +0.277 C 
ENDBRANCH   3   8
BRANCH   1  10
ATOM     10  C   UNL     1      -3.501  -2.085  -1.175  0.00  0.00    -0.046 C 
BRANCH  10  11
ATOM     11  N   UNL     1      -2.791  -2.572   0.015  0.00  0.00    +0.385 N 
ATOM     12  H   UNL     1      -2.777  -3.581   0.009  0.00  0.00    -0.085 HD
ATOM     13  H   UNL     1      -3.263  -2.247   0.845  0.00  0.00    -0.085 HD
BRANCH  11  22
ATOM     14  C   UNL     1      -0.019   1.526   0.010  0.00  0.00    +0.011 C 
ATOM     15  C   UNL     1       0.002  -0.004   0.002  0.00  0.00    -0.033 C 
ATOM     16  C   UNL     1       0.718  -0.497  -1.257  0.00  0.00    +0.010 C 
ATOM     17  C   UNL     1       0.739  -2.027  -1.265  0.00  0.00    -0.011 C 
ATOM     18  C   UNL     1       1.479  -2.534  -0.026  0.00  0.00    +0.010 C 
ATOM     19  C   UNL     1       0.763  -2.041   1.233  0.00  0.00    -0.033 C 
ATOM     20  C   UNL     1       0.742  -0.511   1.242  0.00  0.00    +0.013 C 
ATOM     21  C   UNL     1      -0.673  -2.570   1.244  0.00  0.00    -0.006 C 
ATOM     22  C   UNL     1      -1.413  -2.063   0.004  0.00  0.00    -0.067 C 
ATOM     23  C   UNL     1      -0.696  -2.557  -1.254  0.00  0.00    -0.009 C 
ATOM     24  C   UNL     1      -1.433  -0.534   0.013  0.00  0.00    -0.006 C 
ATOM     25  C   UNL     1       1.503  -2.548   2.473  0.00  0.00    +0.011 C 
ENDBRANCH  11  22
ENDBRANCH  10  11
ENDBRANCH   1  10
BRANCH   4  26
ATOM     26  O   UNL     1      -8.793  -4.030  -1.133  0.00  0.00    -0.482 OA
BRANCH  26  27
ATOM     27  C   UNL     1      -9.173  -4.852  -0.028  0.00  0.00    +0.266 C 
BRANCH  27  28
ATOM     28  C   UNL     1     -10.611  -5.274  -0.187  0.00  0.00    +0.008 A 
ATOM     29  C   UNL     1     -11.335  -4.859  -1.290  0.00  0.00    +0.010 A 
ATOM     30  C   UNL     1     -12.653  -5.245  -1.437  0.00  0.00    +0.020 A 
ATOM     31  C   UNL     1     -13.251  -6.047  -0.480  0.00  0.00    +0.042 A 
ATOM     32  C   UNL     1     -12.527  -6.463   0.623  0.00  0.00    +0.040 A 
ATOM     33  C   UNL     1     -11.206  -6.080   0.767  0.00  0.00    +0.049 A 
ATOM     34 CL   UNL     1     -10.295  -6.606   2.149  0.00  0.00    -0.083 Cl
ATOM     35 CL   UNL     1     -14.907  -6.532  -0.664  0.00  0.00    -0.083 Cl
ENDBRANCH  27  28
ENDBRANCH  26  27
ENDBRANCH   4  26
TORSDOF 7
