REMARK  Name = ZINC24463213
REMARK  10 active torsions:
REMARK  status: ('A' for Active; 'I' for Inactive)
REMARK    1  A    between atoms: C_1  and  C_2
REMARK    2  A    between atoms: C_7  and  C_9
REMARK    3  A    between atoms: C_7  and  C_10
REMARK    4  A    between atoms: N_13  and  C_17
REMARK    5  A    between atoms: C_17  and  C_18
REMARK    6  A    between atoms: N_20  and  N_21
REMARK    7  A    between atoms: C_22  and  C_24
REMARK    8  A    between atoms: C_27  and  C_29
REMARK    9  A    between atoms: C_29  and  O_30
REMARK   10  A    between atoms: O_30  and  C_31
REMARK                            x       y       z     vdW  Elec       q    Type
REMARK                         _______ _______ _______ _____ _____    ______ ____
ROOT
ATOM      1  C   UNL     1      -4.972  -3.399  -2.310  0.00  0.00    +0.247 C 
ATOM      2  O   UNL     1      -4.651  -2.256  -2.558  0.00  0.00    -0.273 OA
ATOM      3  N   UNL     1      -6.127  -3.895  -2.795  0.00  0.00    -0.233 N 
ATOM      4  H   UNL     1      -6.383  -4.809  -2.596  0.00  0.00    +0.173 HD
ENDROOT
BRANCH   3   5
ATOM      5  N   UNL     1      -6.957  -3.091  -3.587  0.00  0.00    -0.228 N 
ATOM      6  C   UNL     1      -8.113  -3.587  -4.072  0.00  0.00    +0.295 C 
ATOM      7  O   UNL     1      -8.434  -4.734  -3.823  0.00  0.00    -0.265 OA
ATOM      8  H   UNL     1      -6.701  -2.177  -3.785  0.00  0.00    +0.173 HD
BRANCH   6   9
ATOM      9  C   UNL     1      -8.982  -2.746  -4.901  0.00  0.00    +0.191 A 
ATOM     10  C   UNL     1     -10.175  -3.119  -5.449  0.00  0.00    +0.055 A 
ATOM     11  C   UNL     1     -10.659  -2.009  -6.158  0.00  0.00    +0.049 A 
ATOM     12  C   UNL     1      -9.751  -1.018  -6.013  0.00  0.00    +0.143 A 
ATOM     13  O   UNL     1      -8.745  -1.464  -5.250  0.00  0.00    -0.452 OA
BRANCH  12  14
ATOM     14  C   UNL     1      -9.857   0.362  -6.608  0.00  0.00    +0.303 C 
BRANCH  14  15
ATOM     15  O   UNL     1     -10.532   1.226  -5.691  0.00  0.00    -0.484 OA
BRANCH  15  16
ATOM     16  C   UNL     1     -10.711   2.516  -6.076  0.00  0.00    +0.121 A 
ATOM     17  C   UNL     1     -10.252   2.942  -7.314  0.00  0.00    +0.045 A 
ATOM     18  C   UNL     1     -10.436   4.255  -7.704  0.00  0.00    +0.004 A 
ATOM     19  C   UNL     1     -11.076   5.144  -6.861  0.00  0.00    +0.000 A 
ATOM     20  C   UNL     1     -11.534   4.722  -5.626  0.00  0.00    +0.004 A 
ATOM     21  C   UNL     1     -11.359   3.409  -5.234  0.00  0.00    +0.045 A 
ENDBRANCH  15  16
ENDBRANCH  14  15
ENDBRANCH  12  14
ENDBRANCH   6   9
ENDBRANCH   3   5
BRANCH   1  22
ATOM     22  C   UNL     1      -4.079  -4.264  -1.458  0.00  0.00    +0.215 C 
BRANCH  22  34
ATOM     23  C   UNL     1      -0.159   1.471  -0.048  0.00  0.00    +0.007 C 
ATOM     24  C   UNL     1      -0.085  -0.057  -0.027  0.00  0.00    -0.011 C 
ATOM     25  C   UNL     1      -1.501  -0.636   0.015  0.00  0.00    +0.038 C 
ATOM     26  C   UNL     1      -1.428  -2.159   0.057  0.00  0.00    +0.113 C 
ATOM     27  C   UNL     1      -0.642  -2.627   1.276  0.00  0.00    +0.041 C 
ATOM     28  C   UNL     1       0.772  -2.041   1.230  0.00  0.00    -0.032 C 
ATOM     29  C   UNL     1       0.688  -0.513   1.212  0.00  0.00    +0.009 C 
ATOM     30  C   UNL     1       1.553  -2.495   2.465  0.00  0.00    +0.011 C 
ATOM     31  C   UNL     1       1.485  -2.527  -0.033  0.00  0.00    +0.011 C 
ATOM     32  C   UNL     1      -2.817  -2.754   0.064  0.00  0.00    +0.247 C 
ATOM     33  O   UNL     1      -3.679  -2.595   0.901  0.00  0.00    -0.273 OA
ATOM     34  N   UNL     1      -2.895  -3.499  -1.058  0.00  0.00    -0.215 N 
ATOM     35  C   UNL     1      -1.756  -3.453  -1.761  0.00  0.00    +0.310 C 
ATOM     36  O   UNL     1      -1.585  -4.042  -2.810  0.00  0.00    -0.252 OA
ATOM     37  N   UNL     1      -0.823  -2.679  -1.176  0.00  0.00    -0.285 N 
ATOM     38  H   UNL     1       0.073  -2.500  -1.504  0.00  0.00    +0.151 HD
ENDBRANCH  22  34
ENDBRANCH   1  22
TORSDOF 7
