REMARK  Name = ZINC02583101
REMARK  8 active torsions:
REMARK  status: ('A' for Active; 'I' for Inactive)
REMARK    1  A    between atoms: C_1  and  C_2
REMARK    2  A    between atoms: C_8  and  C_12
REMARK    3  A    between atoms: C_12  and  CA_13
REMARK    4  A    between atoms: CA_13  and  C_15
REMARK    5  A    between atoms: CA_13  and  N_18
REMARK    6  A    between atoms: C_19  and  O_21
REMARK    7  A    between atoms: O_21  and  C_22
REMARK    8  A    between atoms: C_22  and  C_23
REMARK                            x       y       z     vdW  Elec       q    Type
REMARK                         _______ _______ _______ _____ _____    ______ ____
ROOT
ATOM      1  N   UNL     1      -1.940  -1.462   3.616  0.00  0.00    -0.267 N 
ATOM      2  C   UNL     1      -3.274  -1.337   3.472  0.00  0.00    +0.401 C 
ATOM      3  O   UNL     1      -4.011  -2.235   3.829  0.00  0.00    -0.226 OA
ATOM      4  H   UNL     1      -1.352  -0.745   3.331  0.00  0.00    +0.153 HD
ENDROOT
BRANCH   1   5
ATOM      5  CA  UNL     1      -1.378  -2.680   4.204  0.00  0.00    +0.193 C 
BRANCH   5   6
ATOM      6  C   UNL     1      -1.384  -2.562   5.707  0.00  0.00    +0.376 C 
ATOM      7  O   UNL     1      -1.644  -1.494   6.233  0.00  0.00    -0.244 OA
ATOM      8  OXT UNL     1      -1.129  -3.535   6.396  0.00  0.00    -0.244 OA
ENDBRANCH   5   6
BRANCH   5   9
ATOM      9  C   UNL     1       0.059  -2.867   3.713  0.00  0.00    +0.071 C 
BRANCH   9  17
ATOM     10  C   UNL     1      -0.018   1.503   0.010  0.00  0.00    +0.044 C 
ATOM     11  C   UNL     1       0.002  -0.004   0.002  0.00  0.00    -0.050 A 
ATOM     12  C   UNL     1       0.006  -0.686  -1.207  0.00  0.00    +0.005 A 
ATOM     13  C   UNL     1       0.024  -2.063  -1.237  0.00  0.00    +0.026 A 
ATOM     14  C   UNL     1       0.039  -2.780  -0.045  0.00  0.00    +0.047 A 
ATOM     15  C   UNL     1       0.036  -2.084   1.178  0.00  0.00    +0.003 A 
ATOM     16  C   UNL     1       0.023  -0.688   1.185  0.00  0.00    +0.013 A 
ATOM     17  C   UNL     1       0.055  -3.107   2.226  0.00  0.00    -0.020 A 
ATOM     18  C   UNL     1       0.067  -4.300   1.610  0.00  0.00    +0.087 A 
ATOM     19  N   UNL     1       0.058  -4.124   0.253  0.00  0.00    -0.360 N 
ATOM     20  H   UNL     1       0.065  -4.840  -0.402  0.00  0.00    +0.165 HD
ENDBRANCH   9  17
ENDBRANCH   5   9
ENDBRANCH   1   5
BRANCH   2  21
ATOM     21  O   UNL     1      -3.791  -0.217   2.932  0.00  0.00    -0.449 OA
BRANCH  21  22
ATOM     22  C   UNL     1      -5.213  -0.153   2.808  0.00  0.00    +0.246 C 
BRANCH  22  23
ATOM     23  C   UNL     1      -5.611   1.183   2.178  0.00  0.00    +0.088 C 
ATOM     24  C   UNL     1      -5.322   2.315   3.134  0.00  0.00    -0.029 A 
ATOM     25  C   UNL     1      -4.153   2.764   3.710  0.00  0.00    +0.005 A 
ATOM     26  C   UNL     1      -4.176   3.848   4.570  0.00  0.00    +0.000 A 
ATOM     27  C   UNL     1      -5.372   4.483   4.853  0.00  0.00    +0.001 A 
ATOM     28  C   UNL     1      -6.547   4.040   4.281  0.00  0.00    +0.009 A 
ATOM     29  C   UNL     1      -6.531   2.947   3.413  0.00  0.00    -0.014 A 
ATOM     30  C   UNL     1      -7.624   2.272   2.671  0.00  0.00    -0.014 A 
ATOM     31  C   UNL     1      -7.099   1.218   1.929  0.00  0.00    -0.029 A 
ATOM     32  C   UNL     1      -7.925   0.435   1.151  0.00  0.00    +0.005 A 
ATOM     33  C   UNL     1      -9.284   0.695   1.105  0.00  0.00    +0.000 A 
ATOM     34  C   UNL     1      -9.815   1.740   1.839  0.00  0.00    +0.001 A 
ATOM     35  C   UNL     1      -8.995   2.528   2.620  0.00  0.00    +0.009 A 
ENDBRANCH  22  23
ENDBRANCH  21  22
ENDBRANCH   2  21
TORSDOF 7
