REMARK  Name = ZINC37067928
REMARK  8 active torsions:
REMARK  status: ('A' for Active; 'I' for Inactive)
REMARK    1  A    between atoms: C_1  and  C_2
REMARK    2  A    between atoms: C_2  and  C_3
REMARK    3  A    between atoms: C_2  and  C_4
REMARK    4  A    between atoms: C_4  and  O_5
REMARK    5  A    between atoms: O_5  and  C_6
REMARK    6  A    between atoms: C_7  and  N_21
REMARK    7  A    between atoms: C_10  and  N_12
REMARK    8  A    between atoms: N_12  and  C_13
REMARK                            x       y       z     vdW  Elec       q    Type
REMARK                         _______ _______ _______ _____ _____    ______ ____
ROOT
ATOM      1  C   UNL     1      -3.921  -2.008  -2.752  0.00  0.00    +0.238 A 
ATOM      2  C   UNL     1      -4.596  -2.928  -3.552  0.00  0.00    +0.087 A 
ATOM      3  C   UNL     1      -5.810  -3.444  -3.113  0.00  0.00    +0.031 A 
ATOM      4  C   UNL     1      -6.304  -3.022  -1.889  0.00  0.00    +0.046 A 
ATOM      5  C   UNL     1      -5.578  -2.102  -1.144  0.00  0.00    +0.127 A 
ATOM      6  N   UNL     1      -4.421  -1.631  -1.588  0.00  0.00    -0.196 NA
ENDROOT
BRANCH   2   7
ATOM      7  N   UNL     1      -4.058  -3.327  -4.785  0.00  0.00    -0.354 N 
ATOM      8  H   UNL     1      -3.211  -2.962  -5.085  0.00  0.00    +0.142 HD
ATOM      9  H   UNL     1      -4.534  -3.968  -5.336  0.00  0.00    +0.142 HD
ENDBRANCH   2   7
BRANCH   5  10
ATOM     10  N   UNL     1      -6.069  -1.672   0.087  0.00  0.00    -0.295 N 
ATOM     11  H   UNL     1      -5.593  -0.992   0.589  0.00  0.00    +0.154 HD
BRANCH  10  12
ATOM     12  C   UNL     1      -7.250  -2.222   0.601  0.00  0.00    +0.104 A 
ATOM     13  C   UNL     1      -7.203  -3.374   1.378  0.00  0.00    +0.147 A 
ATOM     14  C   UNL     1      -8.371  -3.914   1.883  0.00  0.00    +0.040 A 
ATOM     15  C   UNL     1      -9.586  -3.310   1.616  0.00  0.00    +0.006 A 
ATOM     16  C   UNL     1      -9.638  -2.164   0.843  0.00  0.00    +0.040 A 
ATOM     17  C   UNL     1      -8.473  -1.615   0.339  0.00  0.00    +0.147 A 
ATOM     18  F   UNL     1      -8.524  -0.492  -0.411  0.00  0.00    -0.203 F 
ATOM     19  F   UNL     1      -6.016  -3.965   1.639  0.00  0.00    -0.203 F 
ENDBRANCH  10  12
ENDBRANCH   5  10
BRANCH   1  20
ATOM     20  O   UNL     1      -2.734  -1.497  -3.171  0.00  0.00    -0.475 OA
BRANCH  20  21
ATOM     21  C   UNL     1      -2.088  -0.563  -2.303  0.00  0.00    +0.233 C 
BRANCH  21  23
ATOM     22  C   UNL     1      -0.145   0.991  -2.071  0.00  0.00    +0.010 C 
ATOM     23  C   UNL     1      -0.775  -0.101  -2.939  0.00  0.00    +0.020 C 
ATOM     24  C   UNL     1       0.185  -1.286  -3.044  0.00  0.00    +0.010 C 
ENDBRANCH  21  23
ENDBRANCH  20  21
ENDBRANCH   1  20
TORSDOF 6
