REMARK  Name = ZINC38684640
REMARK  16 active torsions:
REMARK  status: ('A' for Active; 'I' for Inactive)
REMARK    1  A    between atoms: C_1  and  C_2
REMARK    2  A    between atoms: C_2  and  C_3
REMARK    3  A    between atoms: C_2  and  C_4
REMARK    4  A    between atoms: C_4  and  C_5
REMARK    5  A    between atoms: C_5  and  O_6
REMARK    6  A    between atoms: O_6  and  C_7
REMARK    7  A    between atoms: C_11  and  C_13
REMARK    8  A    between atoms: C_18  and  O_27
REMARK    9  A    between atoms: C_22  and  N_26
REMARK   10  A    between atoms: C_23  and  C_24
REMARK   11  A    between atoms: O_27  and  C_28
REMARK   12  A    between atoms: C_28  and  C_30
REMARK   13  A    between atoms: C_30  and  O_31
REMARK   14  A    between atoms: O_31  and  C_32
REMARK   15  A    between atoms: C_37  and  O_38
REMARK   16  A    between atoms: O_38  and  C_39
REMARK                            x       y       z     vdW  Elec       q    Type
REMARK                         _______ _______ _______ _____ _____    ______ ____
ROOT
ATOM      1  C   UNL     1      -7.746  -0.999  -3.650  0.00  0.00    +0.098 C 
ATOM      2  C   UNL     1      -8.671   0.184  -3.761  0.00  0.00    +0.008 A 
ATOM      3  C   UNL     1      -9.008   0.893  -2.621  0.00  0.00    +0.012 A 
ATOM      4  C   UNL     1      -9.854   1.981  -2.704  0.00  0.00    +0.047 A 
ATOM      5  C   UNL     1     -10.371   2.366  -3.933  0.00  0.00    +0.135 A 
ATOM      6  C   UNL     1     -10.036   1.657  -5.075  0.00  0.00    +0.093 A 
ATOM      7  C   UNL     1      -9.184   0.564  -4.991  0.00  0.00    +0.138 A 
ATOM      8  O   UNL     1      -8.866  -0.119  -6.118  0.00  0.00    -0.441 OA
ATOM      9  C   UNL     1      -8.382  -1.369  -6.030  0.00  0.00    +0.199 C 
ATOM     10  C   UNL     1      -7.838  -1.845  -4.889  0.00  0.00    +0.098 C 
ENDROOT
BRANCH   1  15
ATOM     11  C   UNL     1      -4.310  -0.400  -2.197  0.00  0.00    +0.121 A 
ATOM     12  C   UNL     1      -3.729   0.387  -3.181  0.00  0.00    +0.045 A 
ATOM     13  C   UNL     1      -4.450   0.721  -4.311  0.00  0.00    +0.004 A 
ATOM     14  C   UNL     1      -5.749   0.272  -4.462  0.00  0.00    +0.005 A 
ATOM     15  C   UNL     1      -6.330  -0.512  -3.483  0.00  0.00    -0.031 A 
ATOM     16  C   UNL     1      -5.611  -0.854  -2.353  0.00  0.00    +0.050 A 
BRANCH  11  17
ATOM     17  O   UNL     1      -3.603  -0.730  -1.084  0.00  0.00    -0.492 OA
BRANCH  17  18
ATOM     18  C   UNL     1      -2.268  -0.228  -0.991  0.00  0.00    +0.229 C 
BRANCH  18  19
ATOM     19  C   UNL     1      -1.636  -0.700   0.320  0.00  0.00    +0.044 C 
BRANCH  19  21
ATOM     20  C   UNL     1      -0.243   1.364   0.516  0.00  0.00    +0.007 C 
ATOM     21  C   UNL     1      -0.207  -0.162   0.420  0.00  0.00    -0.014 C 
ATOM     22  C   UNL     1       0.467  -0.736   1.668  0.00  0.00    +0.007 C 
ENDBRANCH  19  21
ENDBRANCH  18  19
ENDBRANCH  17  18
ENDBRANCH  11  17
ENDBRANCH   1  15
BRANCH   9  23
ATOM     23  N   UNL     1      -8.442  -2.185  -7.132  0.00  0.00    -0.328 N 
ATOM     24  H   UNL     1      -8.830  -1.857  -7.959  0.00  0.00    +0.145 HD
ATOM     25  H   UNL     1      -8.097  -3.091  -7.085  0.00  0.00    +0.145 HD
ENDBRANCH   9  23
BRANCH  10  26
ATOM     26  C   UNL     1      -7.338  -3.187  -4.862  0.00  0.00    +0.101 C 
ATOM     27  N   UNL     1      -6.942  -4.251  -4.840  0.00  0.00    -0.191 NA
ENDBRANCH  10  26
BRANCH   5  28
ATOM     28  O   UNL     1     -11.205   3.436  -4.016  0.00  0.00    -0.423 OA
BRANCH  28  29
ATOM     29  C   UNL     1     -12.495   3.208  -4.311  0.00  0.00    +0.350 C 
ATOM     30  O   UNL     1     -12.905   2.075  -4.393  0.00  0.00    -0.247 OA
BRANCH  29  31
ATOM     31  C   UNL     1     -13.431   4.367  -4.542  0.00  0.00    +0.349 C 
BRANCH  31  32
ATOM     32  O   UNL     1     -14.738   3.871  -4.839  0.00  0.00    -0.477 OA
BRANCH  32  33
ATOM     33  C   UNL     1     -15.709   4.794  -5.075  0.00  0.00    +0.163 A 
ATOM     34  C   UNL     1     -15.409   6.146  -5.028  0.00  0.00    +0.049 A 
ATOM     35  C   UNL     1     -16.397   7.082  -5.268  0.00  0.00    +0.004 A 
ATOM     36  C   UNL     1     -17.686   6.673  -5.556  0.00  0.00    +0.004 A 
ATOM     37  C   UNL     1     -17.992   5.326  -5.604  0.00  0.00    +0.049 A 
ATOM     38  C   UNL     1     -17.005   4.382  -5.370  0.00  0.00    +0.162 A 
BRANCH  38  39
ATOM     39  O   UNL     1     -17.303   3.056  -5.423  0.00  0.00    -0.491 OA
ATOM     40  C   UNL     1     -18.654   2.707  -5.732  0.00  0.00    +0.277 C 
ENDBRANCH  38  39
ENDBRANCH  32  33
ENDBRANCH  31  32
ENDBRANCH  29  31
ENDBRANCH  28  29
ENDBRANCH   5  28
TORSDOF 13
