REMARK  Name = ZINC00511407
REMARK  7 active torsions:
REMARK  status: ('A' for Active; 'I' for Inactive)
REMARK    1  A    between atoms: C_4  and  C_7
REMARK    2  A    between atoms: C_12  and  O_13
REMARK    3  A    between atoms: O_13  and  C_14
REMARK    4  A    between atoms: C_14  and  C_15
REMARK    5  A    between atoms: N_17  and  N_18
REMARK    6  A    between atoms: C_19  and  C_20
REMARK    7  A    between atoms: C_23  and  O_26
REMARK                            x       y       z     vdW  Elec       q    Type
REMARK                         _______ _______ _______ _____ _____    ______ ____
ROOT
ATOM      1  C   UNL     1       3.524  -2.922  -2.803  0.00  0.00    +0.326 C 
ENDROOT
BRANCH   1   2
ATOM      2  C   UNL     1       4.265  -1.991  -3.728  0.00  0.00    +0.270 C 
ATOM      3  O   UNL     1       4.147  -0.790  -3.602  0.00  0.00    -0.270 OA
ATOM      4  N   UNL     1       5.060  -2.493  -4.694  0.00  0.00    -0.204 N 
ATOM      5  H   UNL     1       5.154  -3.453  -4.794  0.00  0.00    +0.177 HD
BRANCH   4   6
ATOM      6  N   UNL     1       5.749  -1.628  -5.554  0.00  0.00    -0.188 NA
ATOM      7  C   UNL     1       6.514  -2.111  -6.484  0.00  0.00    +0.138 C 
BRANCH   7   8
ATOM      8  C   UNL     1       7.239  -1.201  -7.389  0.00  0.00    -0.005 A 
ATOM      9  C   UNL     1       7.100   0.183  -7.250  0.00  0.00    +0.013 A 
ATOM     10  C   UNL     1       7.783   1.030  -8.095  0.00  0.00    +0.046 A 
ATOM     11  C   UNL     1       8.602   0.511  -9.090  0.00  0.00    +0.117 A 
ATOM     12  C   UNL     1       8.739  -0.864  -9.235  0.00  0.00    +0.046 A 
ATOM     13  C   UNL     1       8.063  -1.719  -8.391  0.00  0.00    +0.013 A 
BRANCH  11  14
ATOM     14  O   UNL     1       9.269   1.349  -9.924  0.00  0.00    -0.507 OA
ATOM     15  H   UNL     1       8.778   1.583 -10.724  0.00  0.00    +0.292 HD
ENDBRANCH  11  14
ENDBRANCH   7   8
ENDBRANCH   4   6
ENDBRANCH   1   2
BRANCH   1  16
ATOM     16  O   UNL     1       2.755  -2.156  -1.873  0.00  0.00    -0.482 OA
BRANCH  16  22
ATOM     17  C   UNL     1       1.246  -2.165  -0.021  0.00  0.00    +0.024 A 
ATOM     18  C   UNL     1       0.494  -2.883   0.905  0.00  0.00    +0.012 A 
ATOM     19  C   UNL     1       0.521  -4.263   0.894  0.00  0.00    +0.001 A 
ATOM     20  C   UNL     1       1.294  -4.936  -0.035  0.00  0.00    +0.004 A 
ATOM     21  C   UNL     1       2.045  -4.234  -0.959  0.00  0.00    +0.046 A 
ATOM     22  C   UNL     1       2.022  -2.848  -0.962  0.00  0.00    +0.129 A 
BRANCH  17  26
ATOM     23  C   UNL     1       1.170   2.086   0.002  0.00  0.00    +0.000 A 
ATOM     24  C   UNL     1      -0.017   1.376   0.010  0.00  0.00    +0.001 A 
ATOM     25  C   UNL     1       0.002  -0.004   0.002  0.00  0.00    +0.008 A 
ATOM     26  C   UNL     1       1.220  -0.682  -0.013  0.00  0.00    -0.014 A 
ATOM     27  C   UNL     1       2.412   0.039  -0.021  0.00  0.00    +0.008 A 
ATOM     28  C   UNL     1       2.382   1.419  -0.013  0.00  0.00    +0.001 A 
ENDBRANCH  17  26
ENDBRANCH  16  22
ENDBRANCH   1  16
TORSDOF 7
