REMARK  Name = ZINC46426365
REMARK  6 active torsions:
REMARK  status: ('A' for Active; 'I' for Inactive)
REMARK    1  A    between atoms: C_1  and  C_2
REMARK    2  A    between atoms: C_5  and  C_27
REMARK    3  A    between atoms: N_8  and  C_10
REMARK    4  A    between atoms: C_10  and  C_11
REMARK    5  A    between atoms: C_11  and  C_12
REMARK    6  A    between atoms: C_12  and  N_13
REMARK                            x       y       z     vdW  Elec       q    Type
REMARK                         _______ _______ _______ _____ _____    ______ ____
ROOT
ATOM      1  N   UNL     1       4.271   0.432   4.887  0.00  0.00    -0.299 N 
ATOM      2  C   UNL     1       5.139   0.196   5.891  0.00  0.00    +0.302 C 
ATOM      3  O   UNL     1       4.802  -0.490   6.836  0.00  0.00    -0.253 OA
ATOM      4  N   UNL     1       6.380   0.719   5.846  0.00  0.00    -0.283 N 
ATOM      5  C   UNL     1       6.762   1.647   4.772  0.00  0.00    +0.128 C 
ATOM      6  C   UNL     1       7.284   2.942   5.406  0.00  0.00    +0.126 C 
ATOM      7  N   UNL     1       8.278   2.597   6.431  0.00  0.00    -0.307 N 
ATOM      8  C   UNL     1       7.896   1.669   7.505  0.00  0.00    +0.126 C 
ATOM      9  C   UNL     1       7.373   0.378   6.874  0.00  0.00    +0.128 C 
ATOM     10  C   UNL     1       9.555   3.135   6.385  0.00  0.00    +0.161 A 
ATOM     11  N   UNL     1      10.057   3.976   5.506  0.00  0.00    -0.233 NA
ATOM     12  C   UNL     1      11.305   4.400   5.603  0.00  0.00    +0.120 A 
ATOM     13  C   UNL     1      12.036   3.930   6.642  0.00  0.00    +0.068 A 
ATOM     14  S   UNL     1      10.837   2.878   7.445  0.00  0.00    -0.061 S 
ATOM     15  H   UNL     1       4.514   1.038   4.169  0.00  0.00    +0.150 HD
ENDROOT
BRANCH   1  16
ATOM     16  C   UNL     1       2.962  -0.224   4.881  0.00  0.00    +0.104 C 
BRANCH  16  17
ATOM     17  C   UNL     1       2.178   0.213   3.641  0.00  0.00    +0.000 C 
BRANCH  17  18
ATOM     18  C   UNL     1       0.810  -0.473   3.635  0.00  0.00    -0.077 C 
BRANCH  18  24
ATOM     19  C   UNL     1      -0.010   1.504  -0.002  0.00  0.00    +0.005 C 
ATOM     20  C   UNL     1       0.011  -0.026  -0.005  0.00  0.00    -0.031 C 
ATOM     21  C   UNL     1      -1.426  -0.557   0.008  0.00  0.00    +0.003 C 
ATOM     22  C   UNL     1      -2.111  -0.116   1.305  0.00  0.00    -0.031 C 
ATOM     23  C   UNL     1      -1.297  -0.616   2.501  0.00  0.00    -0.076 C 
ATOM     24  N   UNL     1       0.058  -0.053   2.445  0.00  0.00    +0.380 N 
ATOM     25  C   UNL     1       0.747  -0.529   1.239  0.00  0.00    -0.076 C 
ATOM     26  C   UNL     1      -3.521  -0.706   1.364  0.00  0.00    +0.005 C 
ATOM     27  H   UNL     1       0.001   0.954   2.423  0.00  0.00    -0.082 HD
ENDBRANCH  18  24
ENDBRANCH  17  18
ENDBRANCH  16  17
ENDBRANCH   1  16
TORSDOF 4
