REMARK  Name = ZINC63269995
REMARK  7 active torsions:
REMARK  status: ('A' for Active; 'I' for Inactive)
REMARK    1  A    between atoms: C_1  and  C_2
REMARK    2  A    between atoms: C_16  and  O_20
REMARK    3  A    between atoms: O_20  and  C_21
REMARK    4  A    between atoms: C_21  and  C_22
REMARK    5  A    between atoms: N_24  and  C_25
REMARK    6  A    between atoms: C_25  and  C_26
REMARK    7  A    between atoms: C_26  and  C_27
REMARK                            x       y       z     vdW  Elec       q    Type
REMARK                         _______ _______ _______ _____ _____    ______ ____
ROOT
ATOM      1  C   UNL     1      -0.018   1.503   0.010  0.00  0.00    +0.109 C 
ATOM      2  C   UNL     1       0.002  -0.004   0.002  0.00  0.00    +0.212 C 
ATOM      3  O   UNL     1       1.060  -0.596  -0.011  0.00  0.00    -0.276 OA
ATOM      4  N   UNL     1      -1.156  -0.694   0.009  0.00  0.00    -0.301 N 
ATOM      5  C   UNL     1      -2.446   0.009   0.019  0.00  0.00    +0.111 C 
ATOM      6  C   UNL     1      -3.298  -0.508  -1.144  0.00  0.00    +0.067 C 
ATOM      7  C   UNL     1      -3.411  -2.031  -1.053  0.00  0.00    +0.120 C 
ATOM      8  C   UNL     1      -2.018  -2.657  -1.155  0.00  0.00    +0.067 C 
ATOM      9  C   UNL     1      -1.153  -2.163   0.001  0.00  0.00    +0.111 C 
ATOM     10  C   UNL     1      -4.281  -2.543  -2.209  0.00  0.00    +0.127 C 
ATOM     11  C   UNL     1      -4.389  -4.050  -2.056  0.00  0.00    +0.170 C 
ATOM     12  O   UNL     1      -4.340  -4.794  -3.013  0.00  0.00    -0.292 OA
ATOM     13  C   UNL     1      -4.557  -4.561  -0.687  0.00  0.00    +0.059 A 
ATOM     14  C   UNL     1      -4.918  -5.892  -0.461  0.00  0.00    +0.018 A 
ATOM     15  C   UNL     1      -5.064  -6.348   0.818  0.00  0.00    +0.046 A 
ATOM     16  C   UNL     1      -4.855  -5.492   1.897  0.00  0.00    +0.125 A 
ATOM     17  C   UNL     1      -4.499  -4.168   1.688  0.00  0.00    +0.092 A 
ATOM     18  C   UNL     1      -4.348  -3.689   0.396  0.00  0.00    +0.135 A 
ATOM     19  O   UNL     1      -4.010  -2.394   0.190  0.00  0.00    -0.484 OA
ENDROOT
BRANCH  16  20
ATOM     20  O   UNL     1      -5.003  -5.957   3.162  0.00  0.00    -0.483 OA
BRANCH  20  21
ATOM     21  C   UNL     1      -5.372  -7.330   3.311  0.00  0.00    +0.324 C 
BRANCH  21  22
ATOM     22  C   UNL     1      -5.487  -7.664   4.776  0.00  0.00    +0.251 C 
ATOM     23  O   UNL     1      -5.274  -6.810   5.611  0.00  0.00    -0.272 OA
ATOM     24  N   UNL     1      -5.827  -8.911   5.158  0.00  0.00    -0.312 N 
ATOM     25  H   UNL     1      -5.997  -9.593   4.490  0.00  0.00    +0.149 HD
BRANCH  24  26
ATOM     26  C   UNL     1      -5.939  -9.235   6.582  0.00  0.00    +0.108 C 
BRANCH  26  27
ATOM     27  C   UNL     1      -6.335 -10.705   6.741  0.00  0.00    +0.052 C 
BRANCH  27  28
ATOM     28  C   UNL     1      -6.450 -11.038   8.206  0.00  0.00    -0.040 C 
ATOM     29  C   UNL     1      -7.577 -11.035   8.954  0.00  0.00    -0.001 A 
ATOM     30  C   UNL     1      -8.978 -10.729   8.640  0.00  0.00    +0.010 A 
ATOM     31  C   UNL     1      -9.903 -10.814   9.623  0.00  0.00    +0.001 A 
ATOM     32  C   UNL     1      -9.559 -11.185  10.930  0.00  0.00    +0.002 A 
ATOM     33  C   UNL     1      -8.293 -11.480  11.295  0.00  0.00    +0.026 A 
ATOM     34  C   UNL     1      -7.239 -11.424  10.342  0.00  0.00    +0.043 A 
ATOM     35  N   UNL     1      -5.954 -11.660  10.447  0.00  0.00    -0.380 N 
ATOM     36  C   UNL     1      -5.331 -11.452   9.135  0.00  0.00    +0.144 C 
ATOM     37  H   UNL     1      -5.492 -11.930  11.256  0.00  0.00    +0.160 HD
ENDBRANCH  27  28
ENDBRANCH  26  27
ENDBRANCH  24  26
ENDBRANCH  21  22
ENDBRANCH  20  21
ENDBRANCH  16  20
TORSDOF 6
