REMARK  Name = ZINC43463075
REMARK  5 active torsions:
REMARK  status: ('A' for Active; 'I' for Inactive)
REMARK    1  A    between atoms: C_1  and  C_2
REMARK    2  A    between atoms: C_2  and  N_3
REMARK    3  A    between atoms: C_5  and  C_8
REMARK    4  A    between atoms: C_8  and  O_21
REMARK    5  A    between atoms: C_13  and  C_15
REMARK                            x       y       z     vdW  Elec       q    Type
REMARK                         _______ _______ _______ _____ _____    ______ ____
ROOT
ATOM      1  C   UNL     1       1.087  -2.482   4.260  0.00  0.00    +0.101 C 
ATOM      2  C   UNL     1       1.479  -3.919   3.909  0.00  0.00    +0.040 C 
ATOM      3  C   UNL     1       1.382  -4.794   5.161  0.00  0.00    +0.003 C 
ATOM      4  C   UNL     1       2.328  -4.255   6.235  0.00  0.00    +0.001 C 
ATOM      5  C   UNL     1       1.935  -2.818   6.586  0.00  0.00    +0.011 C 
ATOM      6  C   UNL     1       2.033  -1.943   5.335  0.00  0.00    +0.055 C 
ENDROOT
BRANCH   6   7
ATOM      7  C   UNL     1       3.447  -1.965   4.815  0.00  0.00    -0.041 A 
ATOM      8  C   UNL     1       3.694  -2.291   3.495  0.00  0.00    +0.004 A 
ATOM      9  C   UNL     1       4.991  -2.311   3.019  0.00  0.00    +0.000 A 
ATOM     10  C   UNL     1       6.042  -2.004   3.863  0.00  0.00    +0.000 A 
ATOM     11  C   UNL     1       5.795  -1.677   5.183  0.00  0.00    +0.000 A 
ATOM     12  C   UNL     1       4.498  -1.652   5.658  0.00  0.00    +0.004 A 
ENDBRANCH   6   7
BRANCH   1  15
ATOM     13  N   UNL     1       1.218  -0.972   0.943  0.00  0.00    -0.271 N 
ATOM     14  C   UNL     1       1.075  -2.046   1.748  0.00  0.00    +0.114 A 
ATOM     15  C   UNL     1       1.183  -1.620   3.027  0.00  0.00    +0.022 A 
ATOM     16  C   UNL     1       1.397  -0.238   3.005  0.00  0.00    +0.140 A 
ATOM     17  N   UNL     1       1.425   0.150   1.756  0.00  0.00    -0.179 NA
BRANCH  13  19
ATOM     18  C   UNL     1       0.118   0.023  -1.002  0.00  0.00    +0.029 C 
ATOM     19  C   UNL     1       1.170  -0.980  -0.521  0.00  0.00    +0.140 C 
ENDBRANCH  13  19
ENDBRANCH   1  15
BRANCH   1  20
ATOM     20  O   UNL     1      -0.255  -2.462   4.752  0.00  0.00    -0.383 OA
ATOM     21  H   UNL     1      -0.910  -2.791   4.122  0.00  0.00    +0.211 HD
ENDBRANCH   1  20
TORSDOF 4
