REMARK  Name = ZINC38711672
REMARK  4 active torsions:
REMARK  status: ('A' for Active; 'I' for Inactive)
REMARK    1  A    between atoms: C_3  and  N_11
REMARK    2  A    between atoms: C_6  and  N_7
REMARK    3  A    between atoms: C_12  and  C_14
REMARK    4  A    between atoms: C_20  and  C_22
REMARK                            x       y       z     vdW  Elec       q    Type
REMARK                         _______ _______ _______ _____ _____    ______ ____
ROOT
ATOM      1  N   UNL     1       3.545   2.128  -0.022  0.00  0.00    -0.284 N 
ATOM      2  C   UNL     1       3.542   3.472  -0.117  0.00  0.00    +0.221 C 
ATOM      3  O   UNL     1       2.492   4.079  -0.104  0.00  0.00    -0.275 OA
ATOM      4  H   UNL     1       4.386   1.647   0.031  0.00  0.00    +0.155 HD
ENDROOT
BRANCH   1   7
ATOM      5  C   UNL     1       0.028   1.281   0.638  0.00  0.00    +0.034 A 
ATOM      6  C   UNL     1       1.221   1.976   0.619  0.00  0.00    +0.026 A 
ATOM      7  C   UNL     1       2.334   1.425  -0.001  0.00  0.00    +0.048 A 
ATOM      8  C   UNL     1       2.244   0.175  -0.600  0.00  0.00    +0.041 A 
ATOM      9  C   UNL     1       1.048  -0.516  -0.577  0.00  0.00    +0.049 A 
ATOM     10  C   UNL     1      -0.059   0.037   0.041  0.00  0.00    +0.127 A 
ATOM     11 BR   UNL     1       3.757  -0.581  -1.446  0.00  0.00    -0.048 Br
BRANCH  10  12
ATOM     12  N   UNL     1      -1.340  -0.706   0.064  0.00  0.00    +0.056 N 
ATOM     13  O   UNL     1      -2.308  -0.224   0.604  0.00  0.00    -0.126 OA
ATOM     14  O   UNL     1      -1.417  -1.793  -0.458  0.00  0.00    -0.126 OA
ENDBRANCH  10  12
ENDBRANCH   1   7
BRANCH   2  15
ATOM     15  C   UNL     1       4.844   4.222  -0.238  0.00  0.00    +0.091 C 
ATOM     16  C   UNL     1       5.579   3.775  -1.503  0.00  0.00    +0.040 C 
ATOM     17  C   UNL     1       6.736   4.689  -1.779  0.00  0.00    -0.030 C 
ATOM     18  C   UNL     1       6.873   5.864  -1.254  0.00  0.00    -0.030 C 
ATOM     19  C   UNL     1       5.900   6.472  -0.287  0.00  0.00    +0.040 C 
ATOM     20  C   UNL     1       4.565   5.727  -0.340  0.00  0.00    +0.091 C 
BRANCH  20  21
ATOM     21  C   UNL     1       3.874   6.027  -1.645  0.00  0.00    +0.220 C 
ATOM     22  O   UNL     1       4.384   5.689  -2.693  0.00  0.00    -0.275 OA
ATOM     23  N   UNL     1       2.690   6.670  -1.649  0.00  0.00    -0.301 N 
ATOM     24  C   UNL     1       1.920   7.054  -0.457  0.00  0.00    +0.108 C 
ATOM     25  C   UNL     1       0.628   7.740  -0.947  0.00  0.00    +0.020 C 
ATOM     26  C   UNL     1       0.474   7.199  -2.393  0.00  0.00    +0.020 C 
ATOM     27  C   UNL     1       1.955   7.111  -2.849  0.00  0.00    +0.108 C 
ENDBRANCH  20  21
ENDBRANCH   2  15
TORSDOF 4
