REMARK  Name = ZINC67223640
REMARK  6 active torsions:
REMARK  status: ('A' for Active; 'I' for Inactive)
REMARK    1  A    between atoms: C_3  and  O_21
REMARK    2  A    between atoms: C_6  and  C_7
REMARK    3  A    between atoms: C_7  and  N_8
REMARK    4  A    between atoms: N_8  and  C_9
REMARK    5  A    between atoms: O_21  and  C_22
REMARK    6  A    between atoms: C_22  and  C_23
REMARK                            x       y       z     vdW  Elec       q    Type
REMARK                         _______ _______ _______ _____ _____    ______ ____
ROOT
ATOM      1  C   UNL     1      -1.370  -0.666   0.010  0.00  0.00    -0.046 C 
ENDROOT
BRANCH   1   7
ATOM      2  C   UNL     1      -0.471   1.669  -0.037  0.00  0.00    +0.005 A 
ATOM      3  C   UNL     1       0.581   2.565  -0.046  0.00  0.00    +0.046 A 
ATOM      4  C   UNL     1       1.887   2.100  -0.021  0.00  0.00    +0.121 A 
ATOM      5  C   UNL     1       2.135   0.735   0.015  0.00  0.00    +0.046 A 
ATOM      6  C   UNL     1       1.080  -0.157   0.025  0.00  0.00    +0.005 A 
ATOM      7  C   UNL     1      -0.221   0.309  -0.001  0.00  0.00    -0.064 A 
BRANCH   4   8
ATOM      8  O   UNL     1       2.923   2.979  -0.030  0.00  0.00    -0.483 OA
BRANCH   8   9
ATOM      9  C   UNL     1       4.242   2.429  -0.002  0.00  0.00    +0.324 C 
BRANCH   9  10
ATOM     10  C   UNL     1       5.253   3.547  -0.018  0.00  0.00    +0.248 C 
ATOM     11  O   UNL     1       4.880   4.701  -0.051  0.00  0.00    -0.272 OA
ATOM     12  N   UNL     1       6.570   3.264   0.003  0.00  0.00    -0.327 N 
ATOM     13  H   UNL     1       6.868   2.341   0.029  0.00  0.00    +0.145 HD
ATOM     14  H   UNL     1       7.221   3.983  -0.007  0.00  0.00    +0.145 HD
ENDBRANCH   9  10
ENDBRANCH   8   9
ENDBRANCH   4   8
ENDBRANCH   1   7
BRANCH   1  15
ATOM     15  N   UNL     1      -1.728  -1.017  -1.371  0.00  0.00    +0.386 N 
ATOM     16  H   UNL     1      -1.917  -0.174  -1.894  0.00  0.00    -0.085 HD
ATOM     17  H   UNL     1      -0.963  -1.515  -1.801  0.00  0.00    -0.085 HD
BRANCH  15  18
ATOM     18  C   UNL     1      -2.925  -1.869  -1.366  0.00  0.00    -0.034 C 
ATOM     19  C   UNL     1      -2.598  -3.201  -0.688  0.00  0.00    +0.030 C 
ATOM     20  C   UNL     1      -3.755  -4.173  -0.954  0.00  0.00    +0.228 C 
ATOM     21  O   UNL     1      -3.810  -4.433  -2.358  0.00  0.00    -0.492 OA
ATOM     22  C   UNL     1      -3.788  -3.368  -3.201  0.00  0.00    +0.122 A 
ATOM     23  C   UNL     1      -3.370  -2.117  -2.785  0.00  0.00    -0.019 A 
ATOM     24  C   UNL     1      -3.359  -1.062  -3.681  0.00  0.00    +0.020 A 
ATOM     25  C   UNL     1      -3.764  -1.253  -4.989  0.00  0.00    +0.018 A 
ATOM     26  C   UNL     1      -4.184  -2.503  -5.406  0.00  0.00    +0.019 A 
ATOM     27  C   UNL     1      -4.197  -3.556  -4.518  0.00  0.00    +0.047 A 
ATOM     28 BR   UNL     1      -3.744   0.194  -6.206  0.00  0.00    -0.050 Br
ENDBRANCH  15  18
ENDBRANCH   1  15
TORSDOF 6
