REMARK  Name = ZINC04063002
REMARK  6 active torsions:
REMARK  status: ('A' for Active; 'I' for Inactive)
REMARK    1  A    between atoms: C_1  and  C_2
REMARK    2  A    between atoms: C_8  and  C_35
REMARK    3  A    between atoms: C_9  and  O_34
REMARK    4  A    between atoms: C_19  and  C_21
REMARK    5  A    between atoms: C_21  and  N_22
REMARK    6  A    between atoms: C_25  and  N_28
REMARK                            x       y       z     vdW  Elec       q    Type
REMARK                         _______ _______ _______ _____ _____    ______ ____
ROOT
ATOM      1  C   UNL     1       0.013   2.017   0.158  0.00  0.00    +0.008 C 
ATOM      2  C   UNL     1      -0.020   0.493   0.025  0.00  0.00    -0.001 C 
ATOM      3  C   UNL     1       0.650   0.098  -1.291  0.00  0.00    +0.008 C 
ATOM      4  C   UNL     1       0.527  -1.421  -1.454  0.00  0.00    +0.027 C 
ATOM      5  C   UNL     1       1.136  -2.081  -0.249  0.00  0.00    -0.027 C 
ATOM      6  C   UNL     1       1.211  -1.507   0.915  0.00  0.00    -0.061 C 
ATOM      7  C   UNL     1       0.707  -0.124   1.216  0.00  0.00    +0.018 C 
ATOM      8  C   UNL     1      -0.233  -0.186   2.415  0.00  0.00    +0.132 C 
ATOM      9  C   UNL     1       0.218  -1.040   3.562  0.00  0.00    +0.071 C 
ATOM     10  C   UNL     1       0.834  -2.400   3.204  0.00  0.00    +0.187 C 
ATOM     11  C   UNL     1       1.842  -2.276   2.057  0.00  0.00    +0.076 C 
ATOM     12  O   UNL     1       1.622  -2.702   4.390  0.00  0.00    -0.460 OA
ATOM     13  C   UNL     1       2.216  -1.553   4.777  0.00  0.00    +0.309 C 
ATOM     14  O   UNL     1       3.322  -1.446   5.247  0.00  0.00    -0.251 OA
ATOM     15  C   UNL     1       1.239  -0.414   4.517  0.00  0.00    +0.090 C 
ATOM     16  C   UNL     1       1.901   0.782   1.538  0.00  0.00    +0.018 C 
ENDROOT
BRANCH   8  17
ATOM     17  O   UNL     1      -1.513  -0.669   1.983  0.00  0.00    -0.391 OA
ATOM     18  H   UNL     1      -2.168  -0.737   2.691  0.00  0.00    +0.210 HD
ENDBRANCH   8  17
BRANCH  15  19
ATOM     19  C   UNL     1       0.561   0.005   5.828  0.00  0.00    -0.064 C 
BRANCH  19  20
ATOM     20  N   UNL     1       1.531   0.708   6.679  0.00  0.00    +0.380 N 
ATOM     21  C   UNL     1       0.930   0.968   7.992  0.00  0.00    -0.080 C 
ATOM     22  C   UNL     1       1.963   1.627   8.909  0.00  0.00    -0.034 C 
ATOM     23  C   UNL     1       2.422   2.948   8.285  0.00  0.00    -0.072 C 
ATOM     24  C   UNL     1       2.979   2.674   6.885  0.00  0.00    -0.034 C 
ATOM     25  C   UNL     1       1.909   1.976   6.043  0.00  0.00    -0.080 C 
ATOM     26  H   UNL     1       2.353   0.134   6.795  0.00  0.00    -0.082 HD
BRANCH  23  27
ATOM     27  N   UNL     1       3.470   3.549   9.121  0.00  0.00    +0.381 N 
ATOM     28  C   UNL     1       2.938   3.793  10.467  0.00  0.00    -0.078 C 
ATOM     29  C   UNL     1       4.048   4.344  11.366  0.00  0.00    -0.019 C 
ATOM     30  C   UNL     1       4.571   5.656  10.775  0.00  0.00    -0.004 C 
ATOM     31  C   UNL     1       5.055   5.404   9.344  0.00  0.00    -0.019 C 
ATOM     32  C   UNL     1       3.908   4.814   8.521  0.00  0.00    -0.078 C 
ATOM     33  H   UNL     1       4.254   2.917   9.181  0.00  0.00    -0.081 HD
ENDBRANCH  23  27
ENDBRANCH  19  20
ENDBRANCH  15  19
TORSDOF 4
