REMARK  Name = ZINC28121237
REMARK  9 active torsions:
REMARK  status: ('A' for Active; 'I' for Inactive)
REMARK    1  A    between atoms: C_1  and  C_2
REMARK    2  A    between atoms: C_2  and  C_3
REMARK    3  A    between atoms: N_9  and  C_10
REMARK    4  A    between atoms: C_10  and  C_11
REMARK    5  A    between atoms: C_12  and  O_34
REMARK    6  A    between atoms: C_18  and  C_31
REMARK    7  A    between atoms: C_19  and  C_22
REMARK    8  A    between atoms: C_31  and  C_32
REMARK    9  A    between atoms: C_31  and  C_33
REMARK                            x       y       z     vdW  Elec       q    Type
REMARK                         _______ _______ _______ _____ _____    ______ ____
ROOT
ATOM      1  C   UNL     1       1.928   1.083  -2.324  0.00  0.00    +0.020 A 
ATOM      2  C   UNL     1       3.110   0.558  -1.829  0.00  0.00    +0.122 A 
ATOM      3  C   UNL     1       4.322   1.208  -2.051  0.00  0.00    +0.046 A 
ATOM      4  C   UNL     1       4.359   2.374  -2.762  0.00  0.00    +0.019 A 
ATOM      5  C   UNL     1       3.177   2.914  -3.268  0.00  0.00    +0.065 A 
ATOM      6  C   UNL     1       1.949   2.264  -3.054  0.00  0.00    +0.144 A 
ATOM      7  O   UNL     1       0.806   2.790  -3.537  0.00  0.00    -0.458 OA
ATOM      8  C   UNL     1       0.760   3.923  -4.240  0.00  0.00    +0.122 A 
ATOM      9  C   UNL     1       1.873   4.653  -4.525  0.00  0.00    +0.093 A 
ATOM     10  C   UNL     1       3.179   4.171  -4.039  0.00  0.00    +0.202 A 
ATOM     11  O   UNL     1       4.210   4.781  -4.263  0.00  0.00    -0.286 OA
ENDROOT
BRANCH   9  12
ATOM     12  C   UNL     1       1.775   5.902  -5.306  0.00  0.00    +0.116 A 
ATOM     13  N   UNL     1       0.725   6.419  -5.909  0.00  0.00    -0.239 NA
ATOM     14  C   UNL     1       0.781   7.581  -6.590  0.00  0.00    +0.079 A 
ATOM     15  C   UNL     1      -0.266   8.243  -7.274  0.00  0.00    +0.029 A 
ATOM     16  C   UNL     1      -0.041   9.417  -7.923  0.00  0.00    +0.002 A 
ATOM     17  C   UNL     1       1.213  10.011  -7.941  0.00  0.00    +0.001 A 
ATOM     18  C   UNL     1       2.263   9.396  -7.285  0.00  0.00    +0.017 A 
ATOM     19  C   UNL     1       2.047   8.211  -6.627  0.00  0.00    +0.040 A 
ATOM     20  S   UNL     1       3.053   7.094  -5.680  0.00  0.00    -0.067 S 
ENDBRANCH   9  12
BRANCH   8  21
ATOM     21  C   UNL     1      -0.576   4.415  -4.736  0.00  0.00    +0.050 C 
ATOM     22  C   UNL     1      -0.851   3.830  -6.122  0.00  0.00    +0.015 C 
ATOM     23  C   UNL     1      -1.674   3.970  -3.767  0.00  0.00    +0.015 C 
ENDBRANCH   8  21
BRANCH   2  24
ATOM     24  O   UNL     1       3.088  -0.599  -1.120  0.00  0.00    -0.506 OA
ATOM     25  H   UNL     1       4.024  -1.020  -0.725  0.00  0.00    +0.292 HD
ENDBRANCH   2  24
BRANCH   1  26
ATOM     26  C   UNL     1       0.623   0.370  -2.078  0.00  0.00    -0.035 C 
BRANCH  26  32
ATOM     27  C   UNL     1      -1.071  -0.067  -0.405  0.00  0.00    -0.068 C 
ATOM     28  C   UNL     1      -1.490   0.235   1.036  0.00  0.00    -0.015 C 
ATOM     29  C   UNL     1      -1.808   1.728   1.167  0.00  0.00    -0.003 C 
ATOM     30  C   UNL     1      -0.579   2.541   0.754  0.00  0.00    -0.019 C 
ATOM     31  C   UNL     1      -0.186   2.172  -0.678  0.00  0.00    -0.078 C 
ATOM     32  N   UNL     1       0.109   0.735  -0.751  0.00  0.00    +0.384 N 
ATOM     33  H   UNL     1       0.893   0.516  -0.011  0.00  0.00    -0.081 HD
BRANCH  27  35
ATOM     34  C   UNL     1      -1.976  -2.389  -0.225  0.00  0.00    +0.002 C 
ATOM     35  C   UNL     1      -0.733  -1.554  -0.535  0.00  0.00    -0.019 C 
ENDBRANCH  27  35
ENDBRANCH  26  32
ENDBRANCH   1  26
TORSDOF 6
