REMARK  Name = ZINC17218212
REMARK  5 active torsions:
REMARK  status: ('A' for Active; 'I' for Inactive)
REMARK    1  A    between atoms: C_1  and  C_2
REMARK    2  A    between atoms: C_5  and  N_8
REMARK    3  A    between atoms: N_13  and  C_21
REMARK    4  A    between atoms: C_14  and  N_20
REMARK    5  A    between atoms: C_15  and  C_17
REMARK                            x       y       z     vdW  Elec       q    Type
REMARK                         _______ _______ _______ _____ _____    ______ ____
ROOT
ATOM      1  N   UNL     1      -0.837   1.874  -1.771  0.00  0.00    -0.224 N 
ATOM      2  C   UNL     1      -1.261   1.107  -0.782  0.00  0.00    +0.265 C 
ATOM      3  O   UNL     1      -1.828   1.592   0.184  0.00  0.00    -0.269 OA
ATOM      4  C   UNL     1      -1.051  -0.282  -0.869  0.00  0.00    +0.105 C 
ATOM      5  C   UNL     1      -1.399  -1.285   0.027  0.00  0.00    +0.097 C 
ATOM      6  N   UNL     1      -2.167  -1.204   1.171  0.00  0.00    -0.250 N 
ATOM      7  C   UNL     1      -2.379  -2.318   1.899  0.00  0.00    +0.112 C 
ATOM      8  C   UNL     1      -1.829  -3.506   1.488  0.00  0.00    +0.111 C 
ATOM      9  S   UNL     1      -0.977  -3.021  -0.004  0.00  0.00    -0.064 S 
ATOM     10  S   UNL     1      -0.216  -0.405  -2.444  0.00  0.00    -0.058 S 
ATOM     11  C   UNL     1      -0.213   1.337  -2.845  0.00  0.00    +0.125 C 
ATOM     12  S   UNL     1       0.415   2.122  -4.230  0.00  0.00    -0.027 S 
ENDROOT
BRANCH   1  17
ATOM     13  C   UNL     1      -1.638   7.486  -1.510  0.00  0.00    +0.044 C 
ATOM     14  C   UNL     1      -1.425   5.996  -1.579  0.00  0.00    -0.050 A 
ATOM     15  C   UNL     1      -2.509   5.151  -1.737  0.00  0.00    +0.005 A 
ATOM     16  C   UNL     1      -2.317   3.784  -1.801  0.00  0.00    +0.024 A 
ATOM     17  C   UNL     1      -1.035   3.260  -1.706  0.00  0.00    +0.043 A 
ATOM     18  C   UNL     1       0.050   4.110  -1.543  0.00  0.00    +0.024 A 
ATOM     19  C   UNL     1      -0.147   5.476  -1.485  0.00  0.00    +0.005 A 
ENDBRANCH   1  17
BRANCH   6  20
ATOM     20  C   UNL     1      -2.718   0.021   1.570  0.00  0.00    +0.040 A 
ATOM     21  C   UNL     1      -2.081   0.789   2.535  0.00  0.00    +0.024 A 
ATOM     22  C   UNL     1      -2.625   1.997   2.923  0.00  0.00    +0.002 A 
ATOM     23  C   UNL     1      -3.808   2.438   2.358  0.00  0.00    +0.000 A 
ATOM     24  C   UNL     1      -4.447   1.673   1.400  0.00  0.00    +0.002 A 
ATOM     25  C   UNL     1      -3.906   0.466   1.004  0.00  0.00    +0.024 A 
ENDBRANCH   6  20
BRANCH   8  26
ATOM     26  C   UNL     1      -1.919  -4.782   2.087  0.00  0.00    +0.251 C 
ATOM     27  O   UNL     1      -2.557  -4.929   3.115  0.00  0.00    -0.270 OA
ATOM     28  N   UNL     1      -1.299  -5.837   1.521  0.00  0.00    -0.325 N 
ATOM     29  H   UNL     1      -0.792  -5.719   0.703  0.00  0.00    +0.145 HD
ATOM     30  H   UNL     1      -1.361  -6.713   1.933  0.00  0.00    +0.145 HD
ENDBRANCH   8  26
BRANCH   7  31
ATOM     31  N   UNL     1      -3.141  -2.264   3.045  0.00  0.00    -0.345 N 
ATOM     32  H   UNL     1      -3.446  -1.408   3.385  0.00  0.00    +0.144 HD
ATOM     33  H   UNL     1      -3.373  -3.082   3.512  0.00  0.00    +0.144 HD
ENDBRANCH   7  31
TORSDOF 4
