REMARK  Name = ZINC04406220
REMARK  5 active torsions:
REMARK  status: ('A' for Active; 'I' for Inactive)
REMARK    1  A    between atoms: C_1  and  C_2
REMARK    2  A    between atoms: C_7  and  C_17
REMARK    3  A    between atoms: C_26  and  C_28
REMARK    4  A    between atoms: C_28  and  O_30
REMARK    5  A    between atoms: O_30  and  C_31
REMARK                            x       y       z     vdW  Elec       q    Type
REMARK                         _______ _______ _______ _____ _____    ______ ____
ROOT
ATOM      1  C   UNL     1       3.272   3.153   1.951  0.00  0.00    +0.009 C 
ATOM      2  C   UNL     1       4.014   2.229   0.983  0.00  0.00    +0.013 C 
ATOM      3  C   UNL     1       3.602   2.547  -0.454  0.00  0.00    +0.055 C 
ATOM      4  C   UNL     1       2.107   2.342  -0.623  0.00  0.00    +0.017 C 
ATOM      5  C   UNL     1       1.462   1.400   0.088  0.00  0.00    +0.037 C 
ATOM      6  C   UNL     1      -0.013   1.086   0.008  0.00  0.00    +0.136 C 
ATOM      7  N   UNL     1      -0.701   1.704  -1.105  0.00  0.00    -0.331 N 
ATOM      8  C   UNL     1      -0.825   3.090  -1.193  0.00  0.00    +0.049 A 
ATOM      9  C   UNL     1      -2.054   3.716  -1.065  0.00  0.00    +0.025 A 
ATOM     10  C   UNL     1      -2.113   5.098  -1.044  0.00  0.00    +0.002 A 
ATOM     11  C   UNL     1      -0.958   5.851  -1.149  0.00  0.00    +0.002 A 
ATOM     12  C   UNL     1       0.270   5.228  -1.300  0.00  0.00    +0.025 A 
ATOM     13  C   UNL     1       0.329   3.845  -1.340  0.00  0.00    +0.052 A 
ATOM     14  N   UNL     1       1.520   3.156  -1.536  0.00  0.00    -0.316 N 
ATOM     15  C   UNL     1       2.169   0.599   1.015  0.00  0.00    +0.177 C 
ATOM     16  O   UNL     1       1.565  -0.257   1.631  0.00  0.00    -0.291 OA
ATOM     17  C   UNL     1       3.638   0.769   1.264  0.00  0.00    +0.171 C 
ATOM     18  H   UNL     1      -1.082   1.145  -1.801  0.00  0.00    +0.147 HD
ATOM     19  H   UNL     1       1.965   3.267  -2.391  0.00  0.00    +0.152 HD
ENDROOT
BRANCH   6  20
ATOM     20  C   UNL     1      -0.669   1.545   1.285  0.00  0.00    -0.020 A 
ATOM     21  C   UNL     1      -1.262   0.624   2.127  0.00  0.00    +0.006 A 
ATOM     22  C   UNL     1      -1.864   1.043   3.299  0.00  0.00    +0.003 A 
ATOM     23  C   UNL     1      -1.872   2.385   3.629  0.00  0.00    +0.038 A 
ATOM     24  C   UNL     1      -1.279   3.309   2.786  0.00  0.00    +0.124 A 
ATOM     25  C   UNL     1      -0.671   2.887   1.616  0.00  0.00    +0.044 A 
ATOM     26  F   UNL     1      -1.287   4.621   3.108  0.00  0.00    -0.205 F 
ENDBRANCH   6  20
BRANCH  17  27
ATOM     27  C   UNL     1       3.955   0.432   2.698  0.00  0.00    +0.318 C 
ATOM     28  O   UNL     1       4.433   1.271   3.424  0.00  0.00    -0.250 OA
BRANCH  27  29
ATOM     29  O   UNL     1       3.707  -0.800   3.168  0.00  0.00    -0.467 OA
ATOM     30  C   UNL     1       4.037  -1.054   4.559  0.00  0.00    +0.280 C 
ENDBRANCH  27  29
ENDBRANCH  17  27
TORSDOF 3
