REMARK  Name = ZINC39654110
REMARK  10 active torsions:
REMARK  status: ('A' for Active; 'I' for Inactive)
REMARK    1  A    between atoms: C_1  and  C_2
REMARK    2  A    between atoms: C_2  and  O_3
REMARK    3  A    between atoms: O_3  and  C_4
REMARK    4  A    between atoms: C_7  and  C_10
REMARK    5  A    between atoms: C_10  and  C_11
REMARK    6  A    between atoms: C_11  and  N_12
REMARK    7  A    between atoms: C_13  and  C_15
REMARK    8  A    between atoms: C_26  and  C_28
REMARK    9  A    between atoms: C_28  and  C_29
REMARK   10  A    between atoms: C_32  and  C_35
REMARK                            x       y       z     vdW  Elec       q    Type
REMARK                         _______ _______ _______ _____ _____    ______ ____
ROOT
ATOM      1  C   UNL     1      -0.834 -10.175  -3.638  0.00  0.00    +0.100 C 
ATOM      2  C   UNL     1      -0.726 -10.876  -2.265  0.00  0.00    +0.121 C 
ATOM      3  N   UNL     1      -2.115 -11.275  -1.939  0.00  0.00    -0.300 N 
ATOM      4  C   UNL     1      -2.682 -11.729  -3.232  0.00  0.00    +0.115 C 
ATOM      5  C   UNL     1      -2.116 -10.741  -4.271  0.00  0.00    -0.004 C 
ATOM      6  C   UNL     1      -1.788 -11.470  -5.570  0.00  0.00    -0.010 C 
ATOM      7  C   UNL     1      -3.085 -11.973  -6.210  0.00  0.00    -0.082 C 
ATOM      8  N   UNL     1      -3.974 -10.835  -6.476  0.00  0.00    +0.379 N 
ATOM      9  C   UNL     1      -4.360 -10.196  -5.212  0.00  0.00    -0.082 C 
ATOM     10  C   UNL     1      -3.117  -9.618  -4.529  0.00  0.00    -0.010 C 
ATOM     11  C   UNL     1      -2.725 -11.236  -0.738  0.00  0.00    +0.220 C 
ATOM     12  O   UNL     1      -3.877 -11.601  -0.631  0.00  0.00    -0.275 OA
ATOM     13  H   UNL     1      -3.496 -10.165  -7.058  0.00  0.00    -0.086 HD
ATOM     14  H   UNL     1      -4.801 -11.162  -6.952  0.00  0.00    -0.086 HD
ENDROOT
BRANCH   1  16
ATOM     15  N   UNL     1      -0.500  -7.851  -4.418  0.00  0.00    -0.315 N 
ATOM     16  C   UNL     1      -0.951  -8.684  -3.458  0.00  0.00    +0.218 C 
ATOM     17  O   UNL     1      -1.450  -8.232  -2.449  0.00  0.00    -0.275 OA
ATOM     18  H   UNL     1      -0.101  -8.212  -5.224  0.00  0.00    +0.149 HD
BRANCH  15  19
ATOM     19  C   UNL     1      -0.615  -6.401  -4.243  0.00  0.00    +0.109 C 
BRANCH  19  20
ATOM     20  C   UNL     1      -0.033  -5.692  -5.467  0.00  0.00    +0.054 C 
BRANCH  20  24
ATOM     21  C   UNL     1      -0.365  -1.462  -4.957  0.00  0.00    +0.121 A 
ATOM     22  C   UNL     1       0.768  -2.129  -4.515  0.00  0.00    +0.046 A 
ATOM     23  C   UNL     1       0.873  -3.496  -4.681  0.00  0.00    +0.007 A 
ATOM     24  C   UNL     1      -0.150  -4.201  -5.287  0.00  0.00    -0.046 A 
ATOM     25  C   UNL     1      -1.281  -3.539  -5.729  0.00  0.00    +0.007 A 
ATOM     26  C   UNL     1      -1.393  -2.173  -5.560  0.00  0.00    +0.046 A 
BRANCH  21  27
ATOM     27  O   UNL     1      -0.471  -0.117  -4.795  0.00  0.00    -0.492 OA
BRANCH  27  29
ATOM     28  C   UNL     1       0.327   2.046  -4.071  0.00  0.00    +0.048 C 
ATOM     29  C   UNL     1       0.626   0.548  -4.165  0.00  0.00    +0.225 C 
ENDBRANCH  27  29
ENDBRANCH  21  27
ENDBRANCH  20  24
ENDBRANCH  19  20
ENDBRANCH  15  19
ENDBRANCH   1  16
BRANCH  11  30
ATOM     30  C   UNL     1      -1.977 -10.738   0.471  0.00  0.00    +0.131 C 
BRANCH  30  31
ATOM     31  C   UNL     1      -2.878 -10.795   1.678  0.00  0.00    -0.039 A 
ATOM     32  C   UNL     1      -3.670  -9.709   2.001  0.00  0.00    +0.004 A 
ATOM     33  C   UNL     1      -4.497  -9.761   3.108  0.00  0.00    +0.003 A 
ATOM     34  C   UNL     1      -4.532 -10.899   3.892  0.00  0.00    -0.050 A 
ATOM     35  C   UNL     1      -3.741 -11.985   3.568  0.00  0.00    +0.003 A 
ATOM     36  C   UNL     1      -2.917 -11.935   2.459  0.00  0.00    +0.004 A 
ATOM     37  C   UNL     1      -5.432 -10.955   5.099  0.00  0.00    +0.044 C 
ENDBRANCH  30  31
ENDBRANCH  11  30
TORSDOF 8
