REMARK  Name = ZINC22018519
REMARK  7 active torsions:
REMARK  status: ('A' for Active; 'I' for Inactive)
REMARK    1  A    between atoms: C_1  and  C_2
REMARK    2  A    between atoms: C_2  and  C_4
REMARK    3  A    between atoms: C_2  and  N_16
REMARK    4  A    between atoms: N_6  and  C_7
REMARK    5  A    between atoms: C_10  and  C_13
REMARK    6  A    between atoms: C_13  and  C_15
REMARK    7  A    between atoms: N_16  and  C_17
REMARK                            x       y       z     vdW  Elec       q    Type
REMARK                         _______ _______ _______ _____ _____    ______ ____
ROOT
ATOM      1  C   UNL     1       1.587  -4.650  -1.479  0.00  0.00    +0.038 C 
ATOM      2  C   UNL     1       2.375  -4.249  -0.230  0.00  0.00    +0.154 C 
ENDROOT
BRANCH   2   3
ATOM      3  C   UNL     1       2.409  -2.747  -0.118  0.00  0.00    +0.237 C 
ATOM      4  O   UNL     1       3.471  -2.162  -0.122  0.00  0.00    -0.273 OA
ATOM      5  N   UNL     1       1.258  -2.053  -0.013  0.00  0.00    -0.284 N 
ATOM      6  H   UNL     1       0.299  -2.587   0.066  0.00  0.00    +0.155 HD
BRANCH   5   7
ATOM      7  C   UNL     1       1.282  -0.660  -0.005  0.00  0.00    +0.033 A 
ATOM      8  C   UNL     1       0.252   0.056  -0.609  0.00  0.00    +0.024 A 
ATOM      9  C   UNL     1       0.272   1.426  -0.603  0.00  0.00    +0.013 A 
ATOM     10  C   UNL     1       1.331   2.107   0.010  0.00  0.00    +0.017 A 
ATOM     11  C   UNL     1       2.366   1.382   0.616  0.00  0.00    +0.013 A 
ATOM     12  C   UNL     1       2.338   0.012   0.606  0.00  0.00    +0.024 A 
BRANCH  10  13
ATOM     13  C   UNL     1       1.358   3.575   0.018  0.00  0.00    +0.160 C 
ATOM     14  O   UNL     1       0.417   4.200  -0.424  0.00  0.00    -0.292 OA
ATOM     15  C   UNL     1       2.553   4.304   0.576  0.00  0.00    +0.091 C 
ENDBRANCH  10  13
ENDBRANCH   5   7
ENDBRANCH   2   3
BRANCH   2  16
ATOM     16  N   UNL     1       3.744  -4.762  -0.331  0.00  0.00    -0.333 N 
ATOM     17  H   UNL     1       4.545  -4.118  -0.723  0.00  0.00    +0.147 HD
BRANCH  16  18
ATOM     18  C   UNL     1       4.031  -6.065   0.069  0.00  0.00    +0.036 A 
ATOM     19  C   UNL     1       3.035  -6.887   0.563  0.00  0.00    +0.024 A 
ATOM     20  C   UNL     1       3.291  -8.196   0.971  0.00  0.00    +0.006 A 
ATOM     21  C   UNL     1       4.550  -8.711   0.894  0.00  0.00    -0.039 A 
ATOM     22  C   UNL     1       5.564  -7.897   0.399  0.00  0.00    -0.010 A 
ATOM     23  C   UNL     1       5.342  -6.576  -0.027  0.00  0.00    +0.003 A 
ATOM     24  C   UNL     1       6.441  -5.846  -0.503  0.00  0.00    +0.010 A 
ATOM     25  C   UNL     1       7.666  -6.449  -0.543  0.00  0.00    +0.001 A 
ATOM     26  C   UNL     1       7.863  -7.765  -0.120  0.00  0.00    +0.004 A 
ATOM     27  C   UNL     1       6.818  -8.499   0.353  0.00  0.00    -0.039 A 
ATOM     28  C   UNL     1       6.664  -9.905   0.879  0.00  0.00    +0.040 C 
ATOM     29  C   UNL     1       5.168 -10.045   1.236  0.00  0.00    +0.040 C 
ENDBRANCH  16  18
ENDBRANCH   2  16
TORSDOF 5
