REMARK  Name = ZINC40899465
REMARK  11 active torsions:
REMARK  status: ('A' for Active; 'I' for Inactive)
REMARK    1  A    between atoms: C_1  and  C_2
REMARK    2  A    between atoms: C_4  and  O_11
REMARK    3  A    between atoms: C_7  and  C_8
REMARK    4  A    between atoms: C_8  and  C_9
REMARK    5  A    between atoms: C_8  and  C_10
REMARK    6  A    between atoms: O_11  and  C_12
REMARK    7  A    between atoms: C_12  and  C_13
REMARK    8  A    between atoms: N_15  and  C_16
REMARK    9  A    between atoms: C_16  and  N_18
REMARK   10  A    between atoms: N_18  and  C_19
REMARK   11  A    between atoms: C_24  and  C_25
REMARK                            x       y       z     vdW  Elec       q    Type
REMARK                         _______ _______ _______ _____ _____    ______ ____
ROOT
ATOM      1  C   UNL     1       0.349  -4.772  -3.704  0.00  0.00    +0.256 C 
ATOM      2  O   UNL     1       0.329  -4.023  -4.657  0.00  0.00    -0.272 OA
ATOM      3  N   UNL     1       0.248  -6.103  -3.890  0.00  0.00    -0.265 N 
ATOM      4  H   UNL     1       0.264  -6.702  -3.127  0.00  0.00    +0.157 HD
ENDROOT
BRANCH   3   5
ATOM      5  C   UNL     1       0.124  -6.601  -5.136  0.00  0.00    +0.141 C 
ATOM      6  S   UNL     1       0.095  -5.543  -6.482  0.00  0.00    -0.018 S 
BRANCH   5   7
ATOM      7  N   UNL     1       0.022  -7.932  -5.322  0.00  0.00    -0.296 N 
ATOM      8  H   UNL     1      -0.031  -8.526  -4.558  0.00  0.00    +0.154 HD
BRANCH   7   9
ATOM      9  C   UNL     1      -0.007  -8.457  -6.619  0.00  0.00    +0.036 A 
ATOM     10  C   UNL     1      -0.836  -7.892  -7.580  0.00  0.00    +0.025 A 
ATOM     11  C   UNL     1      -0.862  -8.411  -8.859  0.00  0.00    +0.022 A 
ATOM     12  C   UNL     1      -0.064  -9.495  -9.184  0.00  0.00    +0.041 A 
ATOM     13  C   UNL     1       0.762 -10.059  -8.229  0.00  0.00    +0.025 A 
ATOM     14  C   UNL     1       0.797  -9.539  -6.950  0.00  0.00    -0.028 A 
ATOM     15  C   UNL     1       1.702 -10.151  -5.912  0.00  0.00    +0.046 C 
ATOM     16 CL   UNL     1      -0.101 -10.146 -10.793  0.00  0.00    -0.084 Cl
ENDBRANCH   7   9
ENDBRANCH   5   7
ENDBRANCH   3   5
BRANCH   1  17
ATOM     17  C   UNL     1       0.488  -4.214  -2.310  0.00  0.00    +0.324 C 
BRANCH  17  18
ATOM     18  O   UNL     1       0.577  -2.789  -2.374  0.00  0.00    -0.483 OA
BRANCH  18  22
ATOM     19  C   UNL     1       1.032   1.433   0.031  0.00  0.00    +0.044 C 
ATOM     20  C   UNL     1       0.931  -0.070   0.017  0.00  0.00    -0.044 A 
ATOM     21  C   UNL     1       0.799  -0.742  -1.183  0.00  0.00    +0.049 A 
ATOM     22  C   UNL     1       0.707  -2.126  -1.195  0.00  0.00    +0.121 A 
ATOM     23  C   UNL     1       0.747  -2.832  -0.001  0.00  0.00    +0.046 A 
ATOM     24  C   UNL     1       0.879  -2.156   1.196  0.00  0.00    +0.008 A 
ATOM     25  C   UNL     1       0.976  -0.776   1.205  0.00  0.00    -0.042 A 
BRANCH  25  26
ATOM     26  C   UNL     1       1.126  -0.041   2.512  0.00  0.00    +0.013 C 
ATOM     27  C   UNL     1      -0.109  -0.288   3.381  0.00  0.00    +0.012 C 
ATOM     28  C   UNL     1       2.372  -0.547   3.241  0.00  0.00    +0.012 C 
ENDBRANCH  25  26
ENDBRANCH  18  22
ENDBRANCH  17  18
ENDBRANCH   1  17
TORSDOF 7
