REMARK  Name = ZINC39380993
REMARK  5 active torsions:
REMARK  status: ('A' for Active; 'I' for Inactive)
REMARK    1  A    between atoms: C_1  and  C_2
REMARK    2  A    between atoms: C_7  and  C_8
REMARK    3  A    between atoms: C_8  and  C_9
REMARK    4  A    between atoms: N_18  and  C_19
REMARK    5  A    between atoms: C_25  and  C_27
REMARK                            x       y       z     vdW  Elec       q    Type
REMARK                         _______ _______ _______ _____ _____    ______ ____
ROOT
ATOM      1  C   UNL     1      -1.413   0.387   2.899  0.00  0.00    +0.164 C 
ATOM      2  N   UNL     1      -2.155  -0.838   3.220  0.00  0.00    -0.323 N 
ATOM      3  C   UNL     1      -2.565  -0.733   4.555  0.00  0.00    +0.067 A 
ATOM      4  C   UNL     1      -3.293  -1.607   5.354  0.00  0.00    +0.028 A 
ATOM      5  C   UNL     1      -3.560  -1.240   6.666  0.00  0.00    +0.019 A 
ATOM      6  C   UNL     1      -3.097  -0.026   7.133  0.00  0.00    +0.084 A 
ATOM      7  N   UNL     1      -2.409   0.785   6.353  0.00  0.00    -0.348 N 
ATOM      8  C   UNL     1      -2.129   0.477   5.093  0.00  0.00    +0.122 A 
ATOM      9  N   UNL     1      -1.423   1.195   4.124  0.00  0.00    -0.293 N 
ATOM     10  H   UNL     1      -2.330  -1.580   2.621  0.00  0.00    +0.148 HD
ATOM     11  H   UNL     1      -2.098   1.631   6.711  0.00  0.00    +0.167 HD
ENDROOT
BRANCH   9  12
ATOM     12  C   UNL     1      -0.807   2.513   4.298  0.00  0.00    +0.080 C 
ATOM     13  C   UNL     1      -1.883   3.534   4.672  0.00  0.00    +0.041 C 
ATOM     14  C   UNL     1      -1.241   4.917   4.819  0.00  0.00    +0.109 C 
ATOM     15  N   UNL     1      -0.136   4.824   5.783  0.00  0.00    -0.299 N 
ATOM     16  C   UNL     1       0.907   3.813   5.567  0.00  0.00    +0.109 C 
ATOM     17  C   UNL     1       0.241   2.442   5.411  0.00  0.00    +0.041 C 
ATOM     18  C   UNL     1      -0.080   5.652   6.845  0.00  0.00    +0.246 C 
ATOM     19  O   UNL     1      -0.947   6.484   7.012  0.00  0.00    -0.273 OA
BRANCH  18  20
ATOM     20  C   UNL     1       1.060   5.545   7.825  0.00  0.00    +0.241 C 
ATOM     21  C   UNL     1       0.800   4.453   8.830  0.00  0.00    -0.012 C 
ATOM     22  C   UNL     1       0.759   5.076  10.013  0.00  0.00    +0.065 C 
ATOM     23  C   UNL     1       0.517   4.350  11.318  0.00  0.00    +0.057 C 
ATOM     24  C   UNL     1      -0.079   2.973  11.006  0.00  0.00    +0.006 C 
ATOM     25  C   UNL     1       0.781   2.264   9.955  0.00  0.00    +0.005 C 
ATOM     26  C   UNL     1       0.621   2.980   8.607  0.00  0.00    +0.035 C 
ATOM     27  N   UNL     1       0.962   6.401   9.844  0.00  0.00    -0.158 NA
ATOM     28  N   UNL     1       1.140   6.753   8.669  0.00  0.00    -0.170 NA
ENDBRANCH  18  20
ENDBRANCH   9  12
BRANCH   1  29
ATOM     29  C   UNL     1       0.025   0.045   2.504  0.00  0.00    +0.077 C 
BRANCH  29  36
ATOM     30  C   UNL     1      -0.018   1.503   0.010  0.00  0.00    +0.044 C 
ATOM     31  C   UNL     1       0.002  -0.004   0.002  0.00  0.00    -0.047 A 
ATOM     32  C   UNL     1       0.006  -0.689  -1.199  0.00  0.00    +0.003 A 
ATOM     33  C   UNL     1       0.025  -2.071  -1.207  0.00  0.00    +0.000 A 
ATOM     34  C   UNL     1       0.040  -2.768  -0.013  0.00  0.00    +0.000 A 
ATOM     35  C   UNL     1       0.037  -2.084   1.188  0.00  0.00    +0.004 A 
ATOM     36  C   UNL     1       0.023  -0.702   1.195  0.00  0.00    -0.041 A 
ENDBRANCH  29  36
ENDBRANCH   1  29
TORSDOF 4
