REMARK  Name = ZINC38605113
REMARK  7 active torsions:
REMARK  status: ('A' for Active; 'I' for Inactive)
REMARK    1  A    between atoms: C_1  and  C_2
REMARK    2  A    between atoms: C_2  and  C_4
REMARK    3  A    between atoms: C_2  and  N_22
REMARK    4  A    between atoms: N_6  and  C_7
REMARK    5  A    between atoms: C_15  and  C_17
REMARK    6  A    between atoms: C_17  and  O_19
REMARK    7  A    between atoms: O_19  and  C_20
REMARK                            x       y       z     vdW  Elec       q    Type
REMARK                         _______ _______ _______ _____ _____    ______ ____
ROOT
ATOM      1  C   UNL     1       0.755  -0.009   1.657  0.00  0.00    +0.203 C 
ATOM      2  O   UNL     1       1.470  -0.884   1.218  0.00  0.00    -0.277 OA
ATOM      3  N   UNL     1       0.721   0.233   2.982  0.00  0.00    -0.288 N 
ATOM      4  H   UNL     1       0.094   0.880   3.341  0.00  0.00    +0.155 HD
ENDROOT
BRANCH   3   5
ATOM      5  C   UNL     1       1.567  -0.432   3.818  0.00  0.00    +0.053 C 
ATOM      6  C   UNL     1       1.575  -0.393   5.202  0.00  0.00    +0.019 A 
ATOM      7  C   UNL     1       0.773   0.295   6.143  0.00  0.00    +0.026 A 
ATOM      8  C   UNL     1       1.012   0.143   7.469  0.00  0.00    +0.019 A 
ATOM      9  C   UNL     1       2.039  -0.682   7.938  0.00  0.00    +0.017 A 
ATOM     10  C   UNL     1       2.846  -1.370   7.095  0.00  0.00    +0.027 A 
ATOM     11  C   UNL     1       2.658  -1.263   5.693  0.00  0.00    +0.045 A 
ATOM     12  N   UNL     1       3.296  -1.819   4.683  0.00  0.00    -0.367 N 
ATOM     13  C   UNL     1       2.687  -1.370   3.426  0.00  0.00    +0.234 C 
ATOM     14 BR   UNL     1      -0.068   1.071   8.714  0.00  0.00    -0.050 Br
ATOM     15  H   UNL     1       4.045  -2.430   4.758  0.00  0.00    +0.161 HD
BRANCH  13  16
ATOM     16  C   UNL     1       3.706  -0.641   2.590  0.00  0.00    +0.335 C 
ATOM     17  O   UNL     1       4.628  -0.070   3.123  0.00  0.00    -0.248 OA
BRANCH  16  18
ATOM     18  O   UNL     1       3.590  -0.625   1.253  0.00  0.00    -0.466 OA
ATOM     19  C   UNL     1       4.593   0.086   0.523  0.00  0.00    +0.280 C 
ENDBRANCH  16  18
ENDBRANCH  13  16
ENDBRANCH   3   5
BRANCH   1  21
ATOM     20  C   UNL     1       0.293   2.285   0.836  0.00  0.00    -0.004 C 
ATOM     21  C   UNL     1      -0.095   0.810   0.719  0.00  0.00    +0.017 C 
BRANCH  21  22
ATOM     22  N   UNL     1       0.121   0.354  -0.661  0.00  0.00    +0.390 N 
ATOM     23  C   UNL     1      -0.598   1.240  -1.589  0.00  0.00    -0.073 C 
ATOM     24  C   UNL     1      -0.121   0.946  -3.012  0.00  0.00    +0.017 C 
ATOM     25  C   UNL     1      -0.199  -0.535  -3.280  0.00  0.00    -0.048 A 
ATOM     26  C   UNL     1      -0.147  -0.977  -4.593  0.00  0.00    +0.004 A 
ATOM     27  C   UNL     1      -0.212  -2.327  -4.877  0.00  0.00    +0.000 A 
ATOM     28  C   UNL     1      -0.330  -3.241  -3.846  0.00  0.00    +0.000 A 
ATOM     29  C   UNL     1      -0.383  -2.802  -2.539  0.00  0.00    +0.002 A 
ATOM     30  C   UNL     1      -0.320  -1.446  -2.252  0.00  0.00    -0.061 A 
ATOM     31  C   UNL     1      -0.390  -1.011  -0.812  0.00  0.00    -0.042 C 
ATOM     32  H   UNL     1       1.107   0.371  -0.872  0.00  0.00    -0.080 HD
ENDBRANCH  21  22
ENDBRANCH   1  21
TORSDOF 5
