REMARK  Name = ZINC13607689
REMARK  4 active torsions:
REMARK  status: ('A' for Active; 'I' for Inactive)
REMARK    1  A    between atoms: C_1  and  N_2
REMARK    2  A    between atoms: C_4  and  C_29
REMARK    3  A    between atoms: C_6  and  C_18
REMARK    4  A    between atoms: C_18  and  C_20
REMARK                            x       y       z     vdW  Elec       q    Type
REMARK                         _______ _______ _______ _____ _____    ______ ____
ROOT
ATOM      1  C   UNL     1      -0.007   1.485   0.042  0.00  0.00    +0.106 C 
ATOM      2  N   UNL     1       0.023   0.016   0.020  0.00  0.00    -0.287 NA
ATOM      3  C   UNL     1      -1.348  -0.542  -0.008  0.00  0.00    +0.094 C 
ATOM      4  C   UNL     1      -1.258  -1.855   0.810  0.00  0.00    +0.046 C 
ATOM      5  C   UNL     1      -0.256  -1.462   1.929  0.00  0.00    +0.103 C 
ATOM      6  C   UNL     1       0.711  -0.513   1.203  0.00  0.00    +0.136 C 
ATOM      7  C   UNL     1       1.979  -1.230   0.826  0.00  0.00    +0.004 A 
ATOM      8  C   UNL     1       2.247  -2.316   0.022  0.00  0.00    +0.008 A 
ATOM      9  C   UNL     1       3.550  -2.756  -0.134  0.00  0.00    +0.000 A 
ATOM     10  C   UNL     1       4.580  -2.102   0.518  0.00  0.00    +0.002 A 
ATOM     11  C   UNL     1       4.316  -1.014   1.323  0.00  0.00    +0.023 A 
ATOM     12  C   UNL     1       3.007  -0.564   1.486  0.00  0.00    +0.039 A 
ATOM     13  N   UNL     1       2.493   0.498   2.232  0.00  0.00    -0.283 N 
ATOM     14  C   UNL     1       1.155   0.597   2.120  0.00  0.00    +0.243 C 
ATOM     15  O   UNL     1       0.445   1.421   2.655  0.00  0.00    -0.273 OA
ATOM     16  H   UNL     1       3.037   1.094   2.770  0.00  0.00    +0.155 HD
ENDROOT
BRANCH   4  17
ATOM     17  C   UNL     1      -2.600  -2.222   1.390  0.00  0.00    -0.042 A 
ATOM     18  C   UNL     1      -3.253  -1.341   2.231  0.00  0.00    +0.005 A 
ATOM     19  C   UNL     1      -4.484  -1.677   2.764  0.00  0.00    +0.020 A 
ATOM     20  C   UNL     1      -5.061  -2.896   2.455  0.00  0.00    +0.041 A 
ATOM     21  C   UNL     1      -4.407  -3.777   1.613  0.00  0.00    +0.020 A 
ATOM     22  C   UNL     1      -3.179  -3.438   1.077  0.00  0.00    +0.005 A 
ATOM     23 CL   UNL     1      -6.606  -3.318   3.124  0.00  0.00    -0.084 Cl
ENDBRANCH   4  17
BRANCH   5  24
ATOM     24  C   UNL     1       0.470  -2.677   2.447  0.00  0.00    +0.170 C 
ATOM     25  O   UNL     1       0.578  -3.662   1.748  0.00  0.00    -0.292 OA
BRANCH  24  26
ATOM     26  C   UNL     1       1.046  -2.668   3.797  0.00  0.00    +0.021 A 
ATOM     27  C   UNL     1       0.918  -1.534   4.609  0.00  0.00    +0.015 A 
ATOM     28  C   UNL     1       1.459  -1.528   5.874  0.00  0.00    +0.050 A 
ATOM     29  C   UNL     1       2.134  -2.645   6.352  0.00  0.00    +0.166 A 
ATOM     30  C   UNL     1       2.266  -3.780   5.549  0.00  0.00    +0.167 A 
ATOM     31  C   UNL     1       1.721  -3.795   4.281  0.00  0.00    +0.061 A 
ATOM     32  O   UNL     1       2.963  -4.726   6.244  0.00  0.00    -0.453 OA
ATOM     33  C   UNL     1       3.607  -4.015   7.318  0.00  0.00    +0.466 C 
ATOM     34  O   UNL     1       2.747  -2.884   7.546  0.00  0.00    -0.453 OA
ENDBRANCH  24  26
ENDBRANCH   5  24
TORSDOF 3
