REMARK  Name = ZINC12560404
REMARK  23 active torsions:
REMARK  status: ('A' for Active; 'I' for Inactive)
REMARK    1  A    between atoms: C_1  and  N_2
REMARK    2  A    between atoms: C_3  and  C_20
REMARK    3  A    between atoms: C_6  and  C_7
REMARK    4  A    between atoms: C_7  and  N_9
REMARK    5  A    between atoms: P_10  and  N_11
REMARK    6  A    between atoms: P_10  and  N_14
REMARK    7  A    between atoms: P_10  and  N_17
REMARK    8  A    between atoms: N_11  and  C_12
REMARK    9  A    between atoms: N_11  and  C_13
REMARK   10  A    between atoms: N_14  and  C_15
REMARK   11  A    between atoms: N_14  and  C_16
REMARK   12  A    between atoms: N_17  and  C_18
REMARK   13  A    between atoms: N_17  and  C_19
REMARK   14  A    between atoms: C_20  and  N_22
REMARK   15  A    between atoms: P_23  and  N_24
REMARK   16  A    between atoms: P_23  and  N_27
REMARK   17  A    between atoms: P_23  and  N_30
REMARK   18  A    between atoms: N_24  and  C_25
REMARK   19  A    between atoms: N_24  and  C_26
REMARK   20  A    between atoms: N_27  and  C_28
REMARK   21  A    between atoms: N_27  and  C_29
REMARK   22  A    between atoms: N_30  and  C_31
REMARK   23  A    between atoms: N_30  and  C_32
REMARK                            x       y       z     vdW  Elec       q    Type
REMARK                         _______ _______ _______ _____ _____    ______ ____
ROOT
ATOM      1  C   UNL     1      -0.049  -0.096   4.017  0.00  0.00    +0.149 C 
ATOM      2  N   UNL     1      -1.191  -0.598   3.249  0.00  0.00    -0.340 N 
ATOM      3  C   UNL     1      -1.823   0.065   2.231  0.00  0.00    +0.073 A 
ATOM      4  C   UNL     1      -2.836  -0.729   1.772  0.00  0.00    +0.030 A 
ATOM      5  C   UNL     1      -2.826  -1.905   2.525  0.00  0.00    +0.030 A 
ATOM      6  C   UNL     1      -1.807  -1.807   3.429  0.00  0.00    +0.073 A 
ENDROOT
BRANCH   6   7
ATOM      7  C   UNL     1      -1.434  -2.829   4.428  0.00  0.00    +0.123 C 
ATOM      8  S   UNL     1      -0.036  -2.614   5.392  0.00  0.00    -0.031 S 
BRANCH   7   9
ATOM      9  N   UNL     1      -2.178  -3.906   4.578  0.00  0.00    -0.179 NA
ATOM     10  P   UNL     1      -1.826  -4.946   5.677  0.00  0.00    +0.164 P 
BRANCH  10  11
ATOM     11  N   UNL     1      -2.499  -4.464   7.142  0.00  0.00    -0.253 NA
ATOM     12  C   UNL     1      -1.829  -3.263   7.659  0.00  0.00    +0.112 C 
ATOM     13  C   UNL     1      -3.946  -4.244   7.010  0.00  0.00    +0.112 C 
ENDBRANCH  10  11
BRANCH  10  14
ATOM     14  N   UNL     1      -2.445  -6.450   5.244  0.00  0.00    -0.253 NA
ATOM     15  C   UNL     1      -1.571  -7.119   4.270  0.00  0.00    +0.112 C 
ATOM     16  C   UNL     1      -2.655  -7.294   6.428  0.00  0.00    +0.112 C 
ENDBRANCH  10  14
BRANCH  10  17
ATOM     17  N   UNL     1      -0.154  -5.052   5.835  0.00  0.00    -0.253 NA
ATOM     18  C   UNL     1       0.222  -6.165   6.716  0.00  0.00    +0.112 C 
ATOM     19  C   UNL     1       0.492  -5.178   4.522  0.00  0.00    +0.112 C 
ENDBRANCH  10  17
ENDBRANCH   7   9
ENDBRANCH   6   7
BRANCH   3  20
ATOM     20  C   UNL     1      -1.471   1.404   1.718  0.00  0.00    +0.123 C 
ATOM     21  S   UNL     1      -0.070   2.200   2.296  0.00  0.00    -0.031 S 
BRANCH  20  22
ATOM     22  N   UNL     1      -2.235   1.986   0.817  0.00  0.00    -0.179 NA
ATOM     23  P   UNL     1      -1.944   3.447   0.379  0.00  0.00    +0.164 P 
BRANCH  23  24
ATOM     24  N   UNL     1      -1.318   4.309   1.682  0.00  0.00    -0.253 NA
ATOM     25  C   UNL     1      -1.451   5.757   1.468  0.00  0.00    +0.112 C 
ATOM     26  C   UNL     1      -1.958   3.901   2.939  0.00  0.00    +0.112 C 
ENDBRANCH  23  24
BRANCH  23  27
ATOM     27  N   UNL     1      -0.827   3.444  -0.880  0.00  0.00    -0.253 NA
ATOM     28  C   UNL     1       0.159   2.369  -0.706  0.00  0.00    +0.112 C 
ATOM     29  C   UNL     1      -1.500   3.335  -2.181  0.00  0.00    +0.112 C 
ENDBRANCH  23  27
BRANCH  23  30
ATOM     30  N   UNL     1      -3.371   4.173  -0.140  0.00  0.00    -0.253 NA
ATOM     31  C   UNL     1      -4.370   4.198   0.937  0.00  0.00    +0.112 C 
ATOM     32  C   UNL     1      -3.118   5.525  -0.655  0.00  0.00    +0.112 C 
ENDBRANCH  23  30
ENDBRANCH  20  22
ENDBRANCH   3  20
TORSDOF 10
