REMARK  Name = ZINC38185644
REMARK  11 active torsions:
REMARK  status: ('A' for Active; 'I' for Inactive)
REMARK    1  A    between atoms: C_1  and  C_2
REMARK    2  A    between atoms: C_9  and  O_43
REMARK    3  A    between atoms: C_11  and  C_42
REMARK    4  A    between atoms: C_12  and  C_41
REMARK    5  A    between atoms: C_16  and  O_25
REMARK    6  A    between atoms: C_20  and  C_23
REMARK    7  A    between atoms: C_20  and  O_24
REMARK    8  A    between atoms: O_25  and  C_26
REMARK    9  A    between atoms: C_26  and  C_28
REMARK   10  A    between atoms: C_32  and  C_34
REMARK   11  A    between atoms: C_34  and  C_35
REMARK                            x       y       z     vdW  Elec       q    Type
REMARK                         _______ _______ _______ _____ _____    ______ ____
ROOT
ATOM      1  C   UNL     1       1.008   2.324   0.893  0.00  0.00    +0.016 C 
ATOM      2  C   UNL     1       1.651   0.946   0.778  0.00  0.00    +0.059 C 
ATOM      3  C   UNL     1       0.732   0.066   0.077  0.00  0.00    +0.037 C 
ATOM      4  C   UNL     1      -0.439  -0.182   1.011  0.00  0.00    -0.030 C 
ATOM      5  C   UNL     1      -0.459  -1.245   1.763  0.00  0.00    -0.024 C 
ATOM      6  C   UNL     1      -1.459  -1.552   2.861  0.00  0.00    +0.064 C 
ATOM      7  C   UNL     1      -2.709  -0.673   2.739  0.00  0.00    +0.148 C 
ATOM      8  C   UNL     1      -3.696  -0.995   3.774  0.00  0.00    -0.045 C 
ATOM      9  C   UNL     1      -3.299  -1.340   4.998  0.00  0.00    -0.065 C 
ATOM     10  C   UNL     1      -1.867  -1.637   5.417  0.00  0.00    +0.055 C 
ATOM     11  C   UNL     1      -0.848  -1.384   4.224  0.00  0.00    +0.104 C 
ATOM     12  C   UNL     1      -0.053  -0.144   4.437  0.00  0.00    +0.215 C 
ATOM     13  C   UNL     1       1.323  -0.477   4.922  0.00  0.00    +0.017 C 
ATOM     14  C   UNL     1       2.460   0.012   4.458  0.00  0.00    +0.014 C 
ATOM     15  C   UNL     1       2.681   0.940   3.301  0.00  0.00    +0.139 C 
ATOM     16  C   UNL     1       2.126   0.404   2.094  0.00  0.00    +0.171 C 
ATOM     17  O   UNL     1       1.927  -0.918   2.121  0.00  0.00    -0.294 OA
ATOM     18  C   UNL     1       2.143   2.348   3.717  0.00  0.00    +0.054 C 
ATOM     19  C   UNL     1       0.145  -2.531   4.444  0.00  0.00    +0.225 C 
ATOM     20  O   UNL     1       1.133  -2.782   3.787  0.00  0.00    -0.275 OA
ATOM     21  N   UNL     1      -0.274  -3.369   5.429  0.00  0.00    -0.311 N 
ATOM     22  C   UNL     1      -1.609  -2.987   5.805  0.00  0.00    +0.085 C 
ATOM     23  C   UNL     1      -4.347  -1.564   6.033  0.00  0.00    +0.039 C 
ATOM     24  C   UNL     1      -5.176  -0.964   3.533  0.00  0.00    +0.041 C 
ATOM     25  H   UNL     1       0.315  -4.028   5.839  0.00  0.00    +0.149 HD
ENDROOT
BRANCH  15  26
ATOM     26  O   UNL     1       4.089   1.076   3.111  0.00  0.00    -0.377 OA
ATOM     27  H   UNL     1       4.557   1.436   3.878  0.00  0.00    +0.211 HD
ENDBRANCH  15  26
BRANCH   7  28
ATOM     28  O   UNL     1      -2.382   0.768   2.794  0.00  0.00    -0.387 OA
ATOM     29  H   UNL     1      -3.151   1.350   2.720  0.00  0.00    +0.210 HD
ENDBRANCH   7  28
BRANCH  12  30
ATOM     30  O   UNL     1      -0.107   0.692   3.361  0.00  0.00    -0.456 OA
BRANCH  30  31
ATOM     31  C   UNL     1      -0.704   1.881   3.541  0.00  0.00    +0.305 C 
ATOM     32  O   UNL     1      -0.679   2.410   4.627  0.00  0.00    -0.251 OA
ATOM     33  C   UNL     1      -1.404   2.555   2.390  0.00  0.00    +0.136 C 
ENDBRANCH  30  31
ENDBRANCH  12  30
BRANCH  22  34
ATOM     34  C   UNL     1      -2.595  -4.086   5.162  0.00  0.00    +0.058 C 
BRANCH  34  35
ATOM     35  C   UNL     1      -2.289  -5.440   5.749  0.00  0.00    -0.046 A 
ATOM     36  C   UNL     1      -1.351  -6.258   5.147  0.00  0.00    +0.004 A 
ATOM     37  C   UNL     1      -1.070  -7.500   5.686  0.00  0.00    +0.000 A 
ATOM     38  C   UNL     1      -1.726  -7.923   6.827  0.00  0.00    +0.000 A 
ATOM     39  C   UNL     1      -2.663  -7.105   7.429  0.00  0.00    +0.000 A 
ATOM     40  C   UNL     1      -2.941  -5.861   6.893  0.00  0.00    +0.004 A 
ENDBRANCH  34  35
ENDBRANCH  22  34
TORSDOF 6
