REMARK  Name = ZINC01159762
REMARK  5 active torsions:
REMARK  status: ('A' for Active; 'I' for Inactive)
REMARK    1  A    between atoms: C_1  and  C_2
REMARK    2  A    between atoms: C_2  and  S_3
REMARK    3  A    between atoms: S_3  and  C_4
REMARK    4  A    between atoms: C_17  and  C_20
REMARK    5  A    between atoms: C_23  and  N_26
REMARK                            x       y       z     vdW  Elec       q    Type
REMARK                         _______ _______ _______ _____ _____    ______ ____
ROOT
ATOM      1  C   UNL     1      -3.915   0.350  -2.005  0.00  0.00    +0.212 A 
ATOM      2  N   UNL     1      -2.587   0.412  -1.976  0.00  0.00    -0.184 NA
ATOM      3  C   UNL     1      -2.000   1.357  -1.261  0.00  0.00    +0.248 A 
ATOM      4  C   UNL     1      -2.808   2.267  -0.544  0.00  0.00    +0.156 A 
ATOM      5  N   UNL     1      -4.125   2.153  -0.619  0.00  0.00    -0.141 NA
ATOM      6  N   UNL     1      -4.656   1.220  -1.330  0.00  0.00    -0.122 NA
ATOM      7  C   UNL     1      -2.171   3.320   0.275  0.00  0.00    +0.029 A 
ATOM      8  C   UNL     1      -2.580   4.646   0.203  0.00  0.00    +0.027 A 
ATOM      9  C   UNL     1      -1.968   5.597   0.996  0.00  0.00    +0.019 A 
ATOM     10  C   UNL     1      -0.950   5.238   1.862  0.00  0.00    +0.017 A 
ATOM     11  C   UNL     1      -0.529   3.923   1.940  0.00  0.00    +0.025 A 
ATOM     12  C   UNL     1      -1.127   2.960   1.148  0.00  0.00    +0.040 A 
ATOM     13  N   UNL     1      -0.704   1.628   1.174  0.00  0.00    -0.305 N 
ATOM     14  C   UNL     1      -0.013   1.086   0.008  0.00  0.00    +0.294 C 
ATOM     15  O   UNL     1      -0.651   1.464  -1.206  0.00  0.00    -0.449 OA
ATOM     16 BR   UNL     1      -2.524   7.402   0.896  0.00  0.00    -0.050 Br
ATOM     17  H   UNL     1      -0.866   1.074   1.954  0.00  0.00    +0.150 HD
ENDROOT
BRANCH  14  18
ATOM     18  C   UNL     1       1.405   1.596  -0.003  0.00  0.00    +0.011 A 
ATOM     19  C   UNL     1       2.019   1.907  -1.202  0.00  0.00    +0.011 A 
ATOM     20  C   UNL     1       3.318   2.380  -1.211  0.00  0.00    +0.033 A 
ATOM     21  C   UNL     1       4.007   2.531  -0.023  0.00  0.00    +0.126 A 
ATOM     22  C   UNL     1       3.396   2.214   1.176  0.00  0.00    +0.033 A 
ATOM     23  C   UNL     1       2.095   1.747   1.186  0.00  0.00    +0.011 A 
BRANCH  21  24
ATOM     24  N   UNL     1       5.400   3.032  -0.033  0.00  0.00    +0.056 N 
ATOM     25  O   UNL     1       6.007   3.166   1.014  0.00  0.00    -0.126 OA
ATOM     26  O   UNL     1       5.938   3.312  -1.089  0.00  0.00    -0.126 OA
ENDBRANCH  21  24
ENDBRANCH  14  18
BRANCH   1  27
ATOM     27  S   UNL     1      -4.704  -0.906  -2.957  0.00  0.00    -0.085 S 
BRANCH  27  29
ATOM     28  C   UNL     1      -7.339  -1.495  -3.372  0.00  0.00    +0.016 C 
ATOM     29  C   UNL     1      -6.438  -0.507  -2.627  0.00  0.00    +0.074 C 
ENDBRANCH  27  29
ENDBRANCH   1  27
TORSDOF 4
