REMARK  Name = ZINC32124672
REMARK  6 active torsions:
REMARK  status: ('A' for Active; 'I' for Inactive)
REMARK    1  A    between atoms: C_5  and  N_7
REMARK    2  A    between atoms: N_7  and  C_8
REMARK    3  A    between atoms: C_13  and  C_14
REMARK    4  A    between atoms: C_17  and  S_23
REMARK    5  A    between atoms: C_18  and  N_20
REMARK    6  A    between atoms: S_23  and  C_24
REMARK                            x       y       z     vdW  Elec       q    Type
REMARK                         _______ _______ _______ _____ _____    ______ ____
ROOT
ATOM      1  C   UNL     1      -4.307  -5.633  -0.220  0.00  0.00    -0.022 A 
ATOM      2  C   UNL     1      -4.763  -4.309  -0.278  0.00  0.00    +0.009 A 
ATOM      3  C   UNL     1      -6.097  -4.042  -0.164  0.00  0.00    +0.018 A 
ATOM      4  C   UNL     1      -7.005  -5.085   0.009  0.00  0.00    +0.043 A 
ATOM      5  C   UNL     1      -6.557  -6.403   0.067  0.00  0.00    +0.140 A 
ATOM      6  C   UNL     1      -5.225  -6.679  -0.052  0.00  0.00    +0.041 A 
ENDROOT
BRANCH   1  12
ATOM      7  C   UNL     1       0.136  -3.641   1.081  0.00  0.00    +0.175 C 
ATOM      8  N   UNL     1      -1.075  -3.272   1.468  0.00  0.00    -0.152 NA
ATOM      9  C   UNL     1      -2.161  -3.912   1.092  0.00  0.00    +0.276 C 
ATOM     10  O   UNL     1      -3.273  -3.562   1.455  0.00  0.00    -0.267 OA
ATOM     11  C   UNL     1      -1.961  -5.080   0.203  0.00  0.00    +0.079 C 
ATOM     12  C   UNL     1      -2.874  -5.924  -0.342  0.00  0.00    +0.028 C 
ATOM     13  S   UNL     1      -0.180  -5.060   0.043  0.00  0.00    -0.050 S 
BRANCH   7  14
ATOM     14  N   UNL     1       1.341  -3.068   1.396  0.00  0.00    -0.190 NA
BRANCH  14  19
ATOM     15  C   UNL     1       0.333   0.240   2.645  0.00  0.00    +0.002 A 
ATOM     16  C   UNL     1       1.452   0.596   3.375  0.00  0.00    +0.002 A 
ATOM     17  C   UNL     1       2.535  -0.261   3.451  0.00  0.00    +0.022 A 
ATOM     18  C   UNL     1       2.502  -1.477   2.796  0.00  0.00    +0.064 A 
ATOM     19  C   UNL     1       1.378  -1.838   2.061  0.00  0.00    +0.074 A 
ATOM     20  C   UNL     1       0.293  -0.974   1.988  0.00  0.00    +0.026 A 
ATOM     21 CL   UNL     1       3.861  -2.553   2.890  0.00  0.00    -0.082 Cl
ENDBRANCH  14  19
ENDBRANCH   7  14
ENDBRANCH   1  12
BRANCH   5  22
ATOM     22  N   UNL     1      -7.527  -7.506   0.251  0.00  0.00    +0.058 N 
ATOM     23  O   UNL     1      -7.139  -8.650   0.301  0.00  0.00    -0.126 OA
ATOM     24  O   UNL     1      -8.707  -7.263   0.351  0.00  0.00    -0.126 OA
ENDBRANCH   5  22
BRANCH   4  25
ATOM     25  S   UNL     1      -8.726  -4.735   0.157  0.00  0.00    -0.087 S 
BRANCH  25  26
ATOM     26  C   UNL     1      -8.829  -2.992  -0.082  0.00  0.00    +0.013 A 
ATOM     27  C   UNL     1      -8.963  -2.472  -1.363  0.00  0.00    +0.016 A 
ATOM     28  C   UNL     1      -9.044  -1.105  -1.546  0.00  0.00    +0.021 A 
ATOM     29  C   UNL     1      -8.989  -0.255  -0.456  0.00  0.00    +0.041 A 
ATOM     30  C   UNL     1      -8.855  -0.771   0.822  0.00  0.00    +0.021 A 
ATOM     31  C   UNL     1      -8.781  -2.136   1.012  0.00  0.00    +0.016 A 
ATOM     32 CL   UNL     1      -9.090   1.462  -0.691  0.00  0.00    -0.084 Cl
ENDBRANCH  25  26
ENDBRANCH   4  25
TORSDOF 6
