REMARK  Name = ZINC00678827
REMARK  10 active torsions:
REMARK  status: ('A' for Active; 'I' for Inactive)
REMARK    1  A    between atoms: C_1  and  C_2
REMARK    2  A    between atoms: C_2  and  C_3
REMARK    3  A    between atoms: C_3  and  C_5
REMARK    4  A    between atoms: C_3  and  C_6
REMARK    5  A    between atoms: C_9  and  O_30
REMARK    6  A    between atoms: C_10  and  N_12
REMARK    7  A    between atoms: N_12  and  C_13
REMARK    8  A    between atoms: C_13  and  N_15
REMARK    9  A    between atoms: C_16  and  C_18
REMARK   10  A    between atoms: C_21  and  C_23
REMARK                            x       y       z     vdW  Elec       q    Type
REMARK                         _______ _______ _______ _____ _____    ______ ____
ROOT
ATOM      1  C   UNL     1      -0.055  -0.700   3.583  0.00  0.00    +0.141 C 
ATOM      2  S   UNL     1      -0.034  -2.411   3.574  0.00  0.00    -0.018 S 
ENDROOT
BRANCH   1   3
ATOM      3  N   UNL     1      -0.154  -0.033   4.750  0.00  0.00    -0.261 N 
ATOM      4  C   UNL     1      -0.235  -0.714   5.910  0.00  0.00    +0.285 C 
ATOM      5  O   UNL     1      -0.220  -1.931   5.904  0.00  0.00    -0.266 OA
ATOM      6  H   UNL     1      -0.166   0.937   4.755  0.00  0.00    +0.157 HD
BRANCH   4   7
ATOM      7  C   UNL     1      -0.343   0.010   7.178  0.00  0.00    +0.190 A 
ATOM      8  C   UNL     1      -0.433  -0.559   8.430  0.00  0.00    +0.055 A 
ATOM      9  C   UNL     1      -0.517   0.493   9.347  0.00  0.00    +0.050 A 
ATOM     10  C   UNL     1      -0.475   1.655   8.629  0.00  0.00    +0.136 A 
ATOM     11  O   UNL     1      -0.365   1.352   7.325  0.00  0.00    -0.450 OA
BRANCH  10  12
ATOM     12  C   UNL     1      -0.536   3.018   9.194  0.00  0.00    +0.017 A 
ATOM     13  C   UNL     1      -0.651   3.201  10.574  0.00  0.00    +0.012 A 
ATOM     14  C   UNL     1      -0.703   4.477  11.095  0.00  0.00    +0.016 A 
ATOM     15  C   UNL     1      -0.651   5.575  10.253  0.00  0.00    +0.018 A 
ATOM     16  C   UNL     1      -0.542   5.400   8.884  0.00  0.00    +0.016 A 
ATOM     17  C   UNL     1      -0.484   4.130   8.350  0.00  0.00    +0.012 A 
ATOM     18 BR   UNL     1      -0.729   7.320  10.976  0.00  0.00    -0.050 Br
ENDBRANCH  10  12
ENDBRANCH   4   7
ENDBRANCH   1   3
BRANCH   1  19
ATOM     19  N   UNL     1       0.026  -0.018   2.423  0.00  0.00    -0.294 N 
ATOM     20  H   UNL     1       0.094   0.949   2.432  0.00  0.00    +0.154 HD
BRANCH  19  25
ATOM     21  C   UNL     1      -0.903  -2.417  -0.207  0.00  0.00    -0.043 A 
ATOM     22  C   UNL     1      -0.012  -2.073  -1.207  0.00  0.00    +0.007 A 
ATOM     23  C   UNL     1       0.890  -1.044  -1.010  0.00  0.00    +0.047 A 
ATOM     24  C   UNL     1       0.911  -0.362   0.196  0.00  0.00    +0.138 A 
ATOM     25  C   UNL     1       0.013  -0.708   1.203  0.00  0.00    +0.075 A 
ATOM     26  C   UNL     1      -0.893  -1.738   0.996  0.00  0.00    +0.031 A 
BRANCH  21  27
ATOM     27  C   UNL     1      -1.888  -3.536  -0.431  0.00  0.00    +0.016 C 
ATOM     28  C   UNL     1      -2.783  -3.197  -1.624  0.00  0.00    +0.012 C 
BRANCH  27  30
ATOM     29  C   UNL     1      -2.123  -5.993  -0.818  0.00  0.00    +0.004 C 
ATOM     30  C   UNL     1      -1.129  -4.834  -0.715  0.00  0.00    +0.004 C 
ENDBRANCH  27  30
ENDBRANCH  21  27
BRANCH  24  31
ATOM     31  O   UNL     1       1.801   0.647   0.393  0.00  0.00    -0.505 OA
ATOM     32  H   UNL     1       2.643   0.360   0.771  0.00  0.00    +0.292 HD
ENDBRANCH  24  31
ENDBRANCH  19  25
ENDBRANCH   1  19
TORSDOF 8
