REMARK  Name = ZINC39675327
REMARK  10 active torsions:
REMARK  status: ('A' for Active; 'I' for Inactive)
REMARK    1  A    between atoms: C_1  and  C_2
REMARK    2  A    between atoms: C_6  and  C_9
REMARK    3  A    between atoms: C_13  and  C_22
REMARK    4  A    between atoms: N_24  and  C_25
REMARK    5  A    between atoms: C_25  and  C_27
REMARK    6  A    between atoms: C_25  and  C_28
REMARK    7  A    between atoms: C_28  and  C_29
REMARK    8  A    between atoms: C_29  and  C_30
REMARK    9  A    between atoms: C_33  and  O_36
REMARK   10  A    between atoms: O_36  and  C_37
REMARK                            x       y       z     vdW  Elec       q    Type
REMARK                         _______ _______ _______ _____ _____    ______ ____
ROOT
ATOM      1  C   UNL     1      -0.099  -2.595   2.268  0.00  0.00    +0.252 C 
ATOM      2  O   UNL     1       1.009  -2.806   2.722  0.00  0.00    -0.270 OA
ATOM      3  N   UNL     1      -1.190  -3.043   2.919  0.00  0.00    -0.296 N 
ATOM      4  C   UNL     1      -2.610  -2.890   2.522  0.00  0.00    +0.121 C 
ATOM      5  C   UNL     1      -3.264  -4.243   2.883  0.00  0.00    +0.100 C 
ATOM      6  C   UNL     1      -2.363  -4.833   3.981  0.00  0.00    -0.004 C 
ATOM      7  C   UNL     1      -1.242  -3.804   4.189  0.00  0.00    +0.115 C 
ATOM      8  C   UNL     1      -3.155  -5.022   5.271  0.00  0.00    -0.010 C 
ATOM      9  C   UNL     1      -2.254  -5.664   6.329  0.00  0.00    -0.082 C 
ATOM     10  N   UNL     1      -1.765  -6.958   5.839  0.00  0.00    +0.379 N 
ATOM     11  C   UNL     1      -0.927  -6.758   4.650  0.00  0.00    -0.082 C 
ATOM     12  C   UNL     1      -1.772  -6.163   3.521  0.00  0.00    -0.010 C 
ATOM     13  H   UNL     1      -1.222  -7.406   6.561  0.00  0.00    -0.086 HD
ATOM     14  H   UNL     1      -2.551  -7.544   5.600  0.00  0.00    -0.086 HD
ENDROOT
BRANCH   1  20
ATOM     15  C   UNL     1      -0.652   1.737  -0.152  0.00  0.00    +0.047 C 
ATOM     16  C   UNL     1      -0.514   0.237  -0.168  0.00  0.00    -0.014 A 
ATOM     17  C   UNL     1      -0.528  -0.445  -1.371  0.00  0.00    +0.009 A 
ATOM     18  C   UNL     1      -0.403  -1.821  -1.397  0.00  0.00    +0.039 A 
ATOM     19  C   UNL     1      -0.263  -2.529  -0.218  0.00  0.00    +0.138 A 
ATOM     20  C   UNL     1      -0.248  -1.848   1.004  0.00  0.00    +0.107 A 
ATOM     21  C   UNL     1      -0.369  -0.454   1.020  0.00  0.00    +0.141 A 
ATOM     22  F   UNL     1      -0.350   0.214   2.195  0.00  0.00    -0.204 F 
ATOM     23  F   UNL     1      -0.141  -3.874  -0.245  0.00  0.00    -0.205 F 
ENDBRANCH   1  20
BRANCH   5  24
ATOM     24  C   UNL     1      -3.292  -5.150   1.680  0.00  0.00    +0.218 C 
ATOM     25  O   UNL     1      -2.422  -5.067   0.838  0.00  0.00    -0.275 OA
ATOM     26  N   UNL     1      -4.283  -6.052   1.539  0.00  0.00    -0.312 N 
ATOM     27  H   UNL     1      -4.978  -6.118   2.212  0.00  0.00    +0.149 HD
BRANCH  26  28
ATOM     28  C   UNL     1      -4.310  -6.934   0.369  0.00  0.00    +0.070 C 
ATOM     29  C   UNL     1      -3.431  -8.158   0.633  0.00  0.00    +0.028 C 
BRANCH  28  30
ATOM     30  C   UNL     1      -5.747  -7.385   0.104  0.00  0.00    +0.026 C 
BRANCH  30  31
ATOM     31  C   UNL     1      -6.599  -6.174  -0.282  0.00  0.00    +0.037 C 
BRANCH  31  32
ATOM     32  C   UNL     1      -8.015  -6.619  -0.543  0.00  0.00    -0.047 A 
ATOM     33  C   UNL     1      -8.393  -7.006  -1.815  0.00  0.00    +0.007 A 
ATOM     34  C   UNL     1      -9.691  -7.414  -2.058  0.00  0.00    +0.046 A 
ATOM     35  C   UNL     1     -10.615  -7.434  -1.023  0.00  0.00    +0.120 A 
ATOM     36  C   UNL     1     -10.233  -7.045   0.253  0.00  0.00    +0.046 A 
ATOM     37  C   UNL     1      -8.933  -6.644   0.491  0.00  0.00    +0.007 A 
BRANCH  35  38
ATOM     38  O   UNL     1     -11.892  -7.835  -1.258  0.00  0.00    -0.495 OA
ATOM     39  C   UNL     1     -12.789  -7.830  -0.146  0.00  0.00    +0.277 C 
ENDBRANCH  35  38
ENDBRANCH  31  32
ENDBRANCH  30  31
ENDBRANCH  28  30
ENDBRANCH  26  28
ENDBRANCH   5  24
TORSDOF 7
