REMARK  Name = ZINC06623535
REMARK  5 active torsions:
REMARK  status: ('A' for Active; 'I' for Inactive)
REMARK    1  A    between atoms: C_3  and  N_10
REMARK    2  A    between atoms: C_5  and  N_7
REMARK    3  A    between atoms: N_10  and  C_11
REMARK    4  A    between atoms: C_11  and  C_12
REMARK    5  A    between atoms: N_14  and  C_15
REMARK                            x       y       z     vdW  Elec       q    Type
REMARK                         _______ _______ _______ _____ _____    ______ ____
ROOT
ATOM      1  C   UNL     1      -6.183   1.913   0.048  0.00  0.00    +0.198 C 
ENDROOT
BRANCH   1   2
ATOM      2  C   UNL     1      -7.316   0.921   0.039  0.00  0.00    +0.234 C 
ATOM      3  O   UNL     1      -7.081  -0.269   0.022  0.00  0.00    -0.274 OA
ATOM      4  N   UNL     1      -8.592   1.355   0.049  0.00  0.00    -0.284 N 
ATOM      5  H   UNL     1      -8.781   2.303   0.130  0.00  0.00    +0.155 HD
BRANCH   4   6
ATOM      6  C   UNL     1      -9.645   0.438  -0.057  0.00  0.00    +0.033 A 
ATOM      7  C   UNL     1     -10.802   0.784  -0.741  0.00  0.00    +0.024 A 
ATOM      8  C   UNL     1     -11.837  -0.124  -0.849  0.00  0.00    +0.017 A 
ATOM      9  C   UNL     1     -11.725  -1.374  -0.267  0.00  0.00    +0.018 A 
ATOM     10  C   UNL     1     -10.575  -1.720   0.421  0.00  0.00    +0.017 A 
ATOM     11  C   UNL     1      -9.535  -0.817   0.526  0.00  0.00    +0.024 A 
ATOM     12 BR   UNL     1     -13.146  -2.613  -0.410  0.00  0.00    -0.050 Br
ENDBRANCH   4   6
ENDBRANCH   1   2
BRANCH   1  13
ATOM     13  N   UNL     1      -4.905   1.196   0.034  0.00  0.00    -0.335 N 
ATOM     14  H   UNL     1      -4.894   0.226   0.021  0.00  0.00    +0.147 HD
BRANCH  13  17
ATOM     15  C   UNL     1      -2.529   3.999   0.062  0.00  0.00    +0.004 A 
ATOM     16  C   UNL     1      -3.719   3.297   0.057  0.00  0.00    +0.023 A 
ATOM     17  C   UNL     1      -3.704   1.908   0.040  0.00  0.00    +0.030 A 
ATOM     18  C   UNL     1      -2.492   1.230   0.026  0.00  0.00    +0.055 A 
ATOM     19  C   UNL     1      -1.306   1.937   0.031  0.00  0.00    +0.128 A 
ATOM     20  C   UNL     1      -1.324   3.320   0.055  0.00  0.00    +0.033 A 
BRANCH  19  21
ATOM     21  N   UNL     1      -0.014   1.215   0.017  0.00  0.00    +0.056 N 
ATOM     22  O   UNL     1       0.002  -0.003   0.002  0.00  0.00    -0.126 OA
ATOM     23  O   UNL     1       1.032   1.838   0.016  0.00  0.00    -0.126 OA
ENDBRANCH  19  21
ENDBRANCH  13  17
ENDBRANCH   1  13
TORSDOF 5
