REMARK  Name = ZINC24954842
REMARK  10 active torsions:
REMARK  status: ('A' for Active; 'I' for Inactive)
REMARK    1  A    between atoms: C_1  and  C_2
REMARK    2  A    between atoms: C_4  and  C_37
REMARK    3  A    between atoms: C_5  and  C_9
REMARK    4  A    between atoms: C_6  and  C_8
REMARK    5  A    between atoms: C_15  and  C_17
REMARK    6  A    between atoms: C_17  and  N_18
REMARK    7  A    between atoms: N_21  and  C_24
REMARK    8  A    between atoms: C_24  and  C_25
REMARK    9  A    between atoms: C_29  and  C_36
REMARK   10  A    between atoms: C_32  and  C_35
REMARK                            x       y       z     vdW  Elec       q    Type
REMARK                         _______ _______ _______ _____ _____    ______ ____
ROOT
ATOM      1  C   UNL     1       5.840  -0.194   1.940  0.00  0.00    +0.180 C 
ENDROOT
BRANCH   1   8
ATOM      2  C   UNL     1       8.411  -4.014   5.878  0.00  0.00    +0.081 A 
ATOM      3  C   UNL     1       7.752  -3.447   6.934  0.00  0.00    +0.076 A 
ATOM      4  S   UNL     1       6.820  -2.171   6.096  0.00  0.00    -0.060 S 
ATOM      5  C   UNL     1       7.393  -2.527   4.441  0.00  0.00    +0.165 A 
ATOM      6  N   UNL     1       8.214  -3.537   4.658  0.00  0.00    -0.225 NA
ATOM      7  N   UNL     1       7.066  -1.901   3.244  0.00  0.00    -0.264 N 
ATOM      8  C   UNL     1       6.195  -0.873   3.238  0.00  0.00    +0.233 C 
ATOM      9  O   UNL     1       5.696  -0.494   4.276  0.00  0.00    -0.274 OA
ATOM     10  H   UNL     1       7.519  -2.244   2.302  0.00  0.00    +0.157 HD
BRANCH   2  15
ATOM     11  C   UNL     1      12.013  -8.426   6.729  0.00  0.00    +0.044 C 
ATOM     12  C   UNL     1      11.070  -7.271   6.506  0.00  0.00    -0.050 A 
ATOM     13  C   UNL     1      10.063  -7.376   5.564  0.00  0.00    +0.007 A 
ATOM     14  C   UNL     1       9.197  -6.322   5.356  0.00  0.00    -0.041 A 
ATOM     15  C   UNL     1       9.339  -5.150   6.097  0.00  0.00    +0.007 A 
ATOM     16  C   UNL     1      10.359  -5.048   7.042  0.00  0.00    -0.041 A 
ATOM     17  C   UNL     1      11.216  -6.111   7.245  0.00  0.00    +0.007 A 
ATOM     18  C   UNL     1      10.522  -3.782   7.843  0.00  0.00    +0.044 C 
ATOM     19  C   UNL     1       8.100  -6.437   4.329  0.00  0.00    +0.044 C 
ENDBRANCH   2  15
ENDBRANCH   1   8
BRANCH   1  20
ATOM     20  N   UNL     1       4.879   0.886   2.199  0.00  0.00    -0.298 NA
ATOM     21  C   UNL     1       4.690   1.721   1.004  0.00  0.00    +0.066 C 
ATOM     22  C   UNL     1       3.746   2.878   1.337  0.00  0.00    -0.063 C 
ATOM     23  N   UNL     1       2.462   2.340   1.809  0.00  0.00    +0.387 N 
ATOM     24  C   UNL     1       2.651   1.505   3.004  0.00  0.00    -0.063 C 
ATOM     25  C   UNL     1       3.596   0.348   2.670  0.00  0.00    +0.066 C 
ATOM     26  H   UNL     1       2.047   1.704   1.012  0.00  0.00    -0.081 HD
BRANCH  23  27
ATOM     27  C   UNL     1       1.501   3.420   2.068  0.00  0.00    +0.019 C 
BRANCH  27  28
ATOM     28  C   UNL     1       0.136   2.830   2.309  0.00  0.00    +0.199 C 
ATOM     29  O   UNL     1      -0.022   1.629   2.270  0.00  0.00    -0.278 OA
ATOM     30  N   UNL     1      -0.912   3.639   2.564  0.00  0.00    -0.303 N 
ATOM     31  C   UNL     1      -0.736   5.097   2.621  0.00  0.00    +0.111 C 
ATOM     32  C   UNL     1      -1.743   5.748   1.661  0.00  0.00    +0.004 C 
ATOM     33  C   UNL     1      -3.155   5.272   2.011  0.00  0.00    +0.009 C 
ATOM     34  C   UNL     1      -3.239   3.754   1.839  0.00  0.00    +0.004 C 
ATOM     35  C   UNL     1      -2.251   3.079   2.796  0.00  0.00    +0.111 C 
ATOM     36  C   UNL     1      -4.660   3.282   2.157  0.00  0.00    +0.009 C 
ATOM     37  C   UNL     1      -1.411   5.351   0.221  0.00  0.00    +0.009 C 
ENDBRANCH  27  28
ENDBRANCH  23  27
ENDBRANCH   1  20
TORSDOF 5
