REMARK  Name = ZINC40650773
REMARK  6 active torsions:
REMARK  status: ('A' for Active; 'I' for Inactive)
REMARK    1  A    between atoms: C_1  and  C_2
REMARK    2  A    between atoms: C_5  and  C_8
REMARK    3  A    between atoms: C_8  and  N_9
REMARK    4  A    between atoms: C_11  and  N_28
REMARK    5  A    between atoms: C_12  and  N_16
REMARK    6  A    between atoms: C_20  and  C_23
REMARK                            x       y       z     vdW  Elec       q    Type
REMARK                         _______ _______ _______ _____ _____    ______ ____
ROOT
ATOM      1  N   UNL     1       1.447  -4.746  -0.032  0.00  0.00    -0.323 N 
ATOM      2  C   UNL     1       1.718  -6.105  -0.041  0.00  0.00    +0.155 A 
ATOM      3  C   UNL     1       3.032  -6.563  -0.045  0.00  0.00    +0.205 A 
ATOM      4  C   UNL     1       3.251  -7.937  -0.053  0.00  0.00    +0.160 A 
ATOM      5  N   UNL     1       2.203  -8.759  -0.057  0.00  0.00    -0.218 NA
ATOM      6  C   UNL     1       0.973  -8.286  -0.053  0.00  0.00    +0.225 A 
ATOM      7  N   UNL     1       0.724  -6.992  -0.040  0.00  0.00    -0.218 NA
ATOM      8  H   UNL     1       2.176  -4.106  -0.032  0.00  0.00    +0.148 HD
ENDROOT
BRANCH   4   9
ATOM      9  N   UNL     1       4.543  -8.444  -0.058  0.00  0.00    -0.281 N 
ATOM     10  C   UNL     1       4.750  -9.821  -0.066  0.00  0.00    +0.142 A 
ATOM     11  C   UNL     1       6.049 -10.323  -0.065  0.00  0.00    +0.081 A 
ATOM     12  C   UNL     1       6.240 -11.694  -0.073  0.00  0.00    +0.037 A 
ATOM     13  C   UNL     1       5.122 -12.519  -0.083  0.00  0.00    +0.074 A 
ATOM     14  C   UNL     1       3.864 -11.952  -0.083  0.00  0.00    +0.125 A 
ATOM     15  N   UNL     1       3.711 -10.641  -0.070  0.00  0.00    -0.238 NA
ATOM     16 CL   UNL     1       7.409  -9.245  -0.054  0.00  0.00    -0.080 Cl
ATOM     17  H   UNL     1       5.301  -7.840  -0.055  0.00  0.00    +0.155 HD
BRANCH  13  18
ATOM     18  C   UNL     1       5.282 -14.017  -0.093  0.00  0.00    +0.419 C 
ATOM     19  F   UNL     1       5.327 -14.490   1.223  0.00  0.00    -0.166 F 
ATOM     20  F   UNL     1       4.198 -14.597  -0.760  0.00  0.00    -0.166 F 
ATOM     21  F   UNL     1       6.470 -14.355  -0.751  0.00  0.00    -0.166 F 
ENDBRANCH  13  18
ENDBRANCH   4   9
BRANCH   3  22
ATOM     22  N   UNL     1       4.167  -5.614  -0.040  0.00  0.00    +0.063 N 
ATOM     23  O   UNL     1       4.632  -5.232   1.008  0.00  0.00    -0.126 OA
ATOM     24  O   UNL     1       4.630  -5.220  -1.086  0.00  0.00    -0.126 OA
ENDBRANCH   3  22
BRANCH   1  25
ATOM     25  C   UNL     1       0.059  -4.275  -0.021  0.00  0.00    +0.138 C 
BRANCH  25  30
ATOM     26  C   UNL     1      -0.018   1.503   0.010  0.00  0.00    +0.044 C 
ATOM     27  C   UNL     1       0.002  -0.004   0.002  0.00  0.00    -0.050 A 
ATOM     28  C   UNL     1       0.006  -0.689  -1.199  0.00  0.00    +0.003 A 
ATOM     29  C   UNL     1       0.025  -2.071  -1.206  0.00  0.00    +0.005 A 
ATOM     30  C   UNL     1       0.040  -2.768  -0.013  0.00  0.00    -0.030 A 
ATOM     31  C   UNL     1       0.037  -2.084   1.188  0.00  0.00    +0.005 A 
ATOM     32  C   UNL     1       0.023  -0.702   1.195  0.00  0.00    +0.003 A 
ENDBRANCH  25  30
ENDBRANCH   1  25
TORSDOF 5
