REMARK  Name = ZINC41584769
REMARK  4 active torsions:
REMARK  status: ('A' for Active; 'I' for Inactive)
REMARK    1  A    between atoms: C_3  and  C_8
REMARK    2  A    between atoms: C_15  and  O_36
REMARK    3  A    between atoms: C_16  and  C_19
REMARK    4  A    between atoms: C_19  and  N_20
REMARK                            x       y       z     vdW  Elec       q    Type
REMARK                         _______ _______ _______ _____ _____    ______ ____
ROOT
ATOM      1  C   UNL     1       3.652   2.156  -0.022  0.00  0.00    +0.058 C 
ATOM      2  C   UNL     1       4.832   1.495   0.066  0.00  0.00    +0.176 C 
ATOM      3  C   UNL     1       6.166   2.107   0.179  0.00  0.00    +0.231 C 
ATOM      4  O   UNL     1       6.442   3.293   0.213  0.00  0.00    -0.283 OA
ATOM      5  C   UNL     1       7.093   0.963   0.242  0.00  0.00    +0.068 A 
ATOM      6  C   UNL     1       8.481   0.864   0.352  0.00  0.00    +0.019 A 
ATOM      7  C   UNL     1       9.075  -0.366   0.388  0.00  0.00    +0.046 A 
ATOM      8  C   UNL     1       8.299  -1.520   0.314  0.00  0.00    +0.122 A 
ATOM      9  C   UNL     1       6.921  -1.437   0.204  0.00  0.00    +0.020 A 
ATOM     10  C   UNL     1       6.301  -0.194   0.167  0.00  0.00    +0.144 A 
ATOM     11  O   UNL     1       4.998   0.151   0.071  0.00  0.00    -0.451 OA
ENDROOT
BRANCH   1  14
ATOM     12  C   UNL     1       1.207  -0.687  -0.021  0.00  0.00    +0.002 A 
ATOM     13  C   UNL     1       2.398   0.008  -0.035  0.00  0.00    +0.008 A 
ATOM     14  C   UNL     1       2.387   1.407  -0.009  0.00  0.00    -0.020 A 
ATOM     15  C   UNL     1       1.166   2.090   0.031  0.00  0.00    +0.028 A 
ATOM     16  C   UNL     1      -0.017   1.379   0.043  0.00  0.00    +0.042 A 
ATOM     17  C   UNL     1       0.003  -0.006   0.017  0.00  0.00    +0.020 A 
ATOM     18 CL   UNL     1      -1.533   2.223   0.092  0.00  0.00    -0.084 Cl
ENDBRANCH   1  14
BRANCH   8  19
ATOM     19  O   UNL     1       8.899  -2.737   0.349  0.00  0.00    -0.506 OA
ATOM     20  H   UNL     1       9.003  -3.099   1.240  0.00  0.00    +0.292 HD
ENDBRANCH   8  19
BRANCH   9  21
ATOM     21  C   UNL     1       6.094  -2.694   0.125  0.00  0.00    -0.036 C 
BRANCH  21  22
ATOM     22  N   UNL     1       5.715  -3.117   1.480  0.00  0.00    +0.383 N 
ATOM     23  C   UNL     1       4.806  -4.264   1.395  0.00  0.00    -0.073 C 
ATOM     24  C   UNL     1       4.389  -4.738   2.779  0.00  0.00    -0.007 C 
ATOM     25  C   UNL     1       5.617  -5.076   3.629  0.00  0.00    +0.011 C 
ATOM     26  C   UNL     1       6.504  -3.825   3.672  0.00  0.00    +0.020 C 
ATOM     27  C   UNL     1       6.922  -3.491   2.230  0.00  0.00    -0.069 C 
ATOM     28  C   UNL     1       5.694  -2.664   4.203  0.00  0.00    +0.023 A 
ATOM     29  C   UNL     1       6.363  -1.683   4.866  0.00  0.00    +0.022 A 
ATOM     30  C   UNL     1       5.686  -0.549   5.328  0.00  0.00    +0.007 A 
ATOM     31  C   UNL     1       4.349  -0.432   5.080  0.00  0.00    +0.070 A 
ATOM     32  C   UNL     1       3.691  -1.460   4.391  0.00  0.00    +0.251 A 
ATOM     33  O   UNL     1       2.510  -1.339   4.109  0.00  0.00    -0.268 OA
ATOM     34  N   UNL     1       4.354  -2.588   4.033  0.00  0.00    -0.312 N 
ATOM     35  C   UNL     1       3.558  -3.693   3.507  0.00  0.00    +0.126 C 
ATOM     36  H   UNL     1       5.249  -2.356   1.951  0.00  0.00    -0.081 HD
ENDBRANCH  21  22
ENDBRANCH   9  21
TORSDOF 4
