REMARK  Name = ZINC63720404
REMARK  5 active torsions:
REMARK  status: ('A' for Active; 'I' for Inactive)
REMARK    1  A    between atoms: C_1  and  C_2
REMARK    2  A    between atoms: C_7  and  N_12
REMARK    3  A    between atoms: C_9  and  C_11
REMARK    4  A    between atoms: C_13  and  C_15
REMARK    5  A    between atoms: N_18  and  C_21
REMARK                            x       y       z     vdW  Elec       q    Type
REMARK                         _______ _______ _______ _____ _____    ______ ____
ROOT
ATOM      1  C   UNL     1      -2.287  -4.298   1.743  0.00  0.00    +0.077 C 
ATOM      2  C   UNL     1      -3.166  -3.375   2.591  0.00  0.00    +0.028 C 
ATOM      3  C   UNL     1      -4.587  -3.942   2.648  0.00  0.00    +0.089 C 
ATOM      4  N   UNL     1      -4.554  -5.289   3.233  0.00  0.00    -0.266 NA
ATOM      5  C   UNL     1      -3.753  -6.205   2.410  0.00  0.00    +0.089 C 
ATOM      6  C   UNL     1      -2.308  -5.705   2.346  0.00  0.00    +0.028 C 
ENDROOT
BRANCH   4   7
ATOM      7  C   UNL     1      -5.913  -5.810   3.431  0.00  0.00    +0.252 C 
ATOM      8  N   UNL     1      -5.857  -7.137   4.058  0.00  0.00    -0.351 N 
ATOM      9  C   UNL     1      -6.414  -7.980   3.238  0.00  0.00    +0.061 A 
ATOM     10  C   UNL     1      -6.654  -9.428   3.304  0.00  0.00    +0.027 A 
ATOM     11  C   UNL     1      -7.269 -10.049   2.278  0.00  0.00    +0.002 A 
ATOM     12  C   UNL     1      -7.698  -9.364   1.127  0.00  0.00    +0.002 A 
ATOM     13  C   UNL     1      -7.528  -8.037   0.964  0.00  0.00    +0.027 A 
ATOM     14  C   UNL     1      -6.869  -7.256   2.020  0.00  0.00    +0.061 A 
ATOM     15  N   UNL     1      -6.577  -5.993   2.134  0.00  0.00    -0.351 N 
ATOM     16  H   UNL     1      -5.475  -7.346   4.925  0.00  0.00    +0.163 HD
ATOM     17  H   UNL     1      -6.763  -5.299   1.482  0.00  0.00    +0.163 HD
ENDBRANCH   4   7
BRANCH   1  19
ATOM     18  N   UNL     1      -0.612  -2.548   1.244  0.00  0.00    -0.312 N 
ATOM     19  C   UNL     1      -0.873  -3.776   1.733  0.00  0.00    +0.216 C 
ATOM     20  O   UNL     1       0.030  -4.462   2.164  0.00  0.00    -0.276 OA
ATOM     21  H   UNL     1      -1.333  -2.000   0.898  0.00  0.00    +0.149 HD
BRANCH  18  27
ATOM     22  C   UNL     1      -0.019   1.526   0.010  0.00  0.00    +0.008 C 
ATOM     23  C   UNL     1       0.002  -0.004   0.002  0.00  0.00    -0.009 C 
ATOM     24  C   UNL     1       0.718  -0.497  -1.257  0.00  0.00    +0.003 C 
ATOM     25  C   UNL     1       0.739  -2.027  -1.265  0.00  0.00    +0.002 C 
ATOM     26  C   UNL     1       1.479  -2.534  -0.026  0.00  0.00    +0.022 C 
ATOM     27  C   UNL     1       0.763  -2.041   1.233  0.00  0.00    +0.076 C 
ATOM     28  C   UNL     1       0.742  -0.511   1.242  0.00  0.00    +0.009 C 
ATOM     29  C   UNL     1       0.026  -0.018   2.500  0.00  0.00    +0.009 C 
ENDBRANCH  18  27
ENDBRANCH   1  19
TORSDOF 3
