REMARK  Name = ZINC15362375
REMARK  12 active torsions:
REMARK  status: ('A' for Active; 'I' for Inactive)
REMARK    1  A    between atoms: C_1  and  C_2
REMARK    2  A    between atoms: C_2  and  C_3
REMARK    3  A    between atoms: C_2  and  C_4
REMARK    4  A    between atoms: C_7  and  C_10
REMARK    5  A    between atoms: C_10  and  C_12
REMARK    6  A    between atoms: C_10  and  N_17
REMARK    7  A    between atoms: N_17  and  C_18
REMARK    8  A    between atoms: C_18  and  C_19
REMARK    9  A    between atoms: N_21  and  C_22
REMARK   10  A    between atoms: C_27  and  S_28
REMARK   11  A    between atoms: S_28  and  C_29
REMARK   12  A    between atoms: C_29  and  C_30
REMARK                            x       y       z     vdW  Elec       q    Type
REMARK                         _______ _______ _______ _____ _____    ______ ____
ROOT
ATOM      1  N   UNL     1      -5.418  -3.402  -0.414  0.00  0.00    -0.297 NA
ATOM      2  H   UNL     1      -5.394  -3.433  -1.422  0.00  0.00    +0.123 HD
ENDROOT
BRANCH   1   3
ATOM      3  C   UNL     1      -5.399  -2.015   0.070  0.00  0.00    +0.122 C 
BRANCH   3   7
ATOM      4  C   UNL     1      -1.385  -0.555   0.047  0.00  0.00    -0.045 A 
ATOM      5  C   UNL     1      -2.230  -0.236   1.093  0.00  0.00    +0.004 A 
ATOM      6  C   UNL     1      -3.529  -0.709   1.101  0.00  0.00    +0.006 A 
ATOM      7  C   UNL     1      -3.983  -1.500   0.062  0.00  0.00    -0.026 A 
ATOM      8  C   UNL     1      -3.138  -1.817  -0.985  0.00  0.00    +0.006 A 
ATOM      9  C   UNL     1      -1.840  -1.341  -0.995  0.00  0.00    +0.004 A 
BRANCH   4  11
ATOM     10  C   UNL     1       0.018   1.490   0.057  0.00  0.00    +0.012 C 
ATOM     11  C   UNL     1       0.032  -0.040   0.039  0.00  0.00    +0.013 C 
ATOM     12  C   UNL     1       0.770  -0.558   1.275  0.00  0.00    +0.012 C 
ENDBRANCH   4  11
ENDBRANCH   3   7
BRANCH   3  13
ATOM     13  C   UNL     1      -6.251  -1.157  -0.828  0.00  0.00    +0.011 A 
ATOM     14  C   UNL     1      -7.097  -0.151  -0.497  0.00  0.00    +0.013 A 
ATOM     15  C   UNL     1      -7.784   0.505  -1.501  0.00  0.00    +0.008 A 
ATOM     16  C   UNL     1      -7.591   0.124  -2.787  0.00  0.00    +0.045 A 
ATOM     17  S   UNL     1      -6.404  -1.198  -2.607  0.00  0.00    -0.100 S 
ENDBRANCH   3  13
ENDBRANCH   1   3
BRANCH   1  18
ATOM     18  C   UNL     1      -6.585  -4.126   0.107  0.00  0.00    +0.178 C 
BRANCH  18  19
ATOM     19  C   UNL     1      -6.570  -5.541  -0.410  0.00  0.00    +0.231 C 
ATOM     20  O   UNL     1      -5.675  -5.911  -1.141  0.00  0.00    -0.274 OA
ATOM     21  N   UNL     1      -7.551  -6.397  -0.060  0.00  0.00    -0.284 N 
ATOM     22  H   UNL     1      -8.230  -6.122   0.575  0.00  0.00    +0.155 HD
BRANCH  21  23
ATOM     23  C   UNL     1      -7.589  -7.683  -0.615  0.00  0.00    +0.047 A 
ATOM     24  C   UNL     1      -6.409  -8.354  -0.898  0.00  0.00    +0.024 A 
ATOM     25  C   UNL     1      -6.449  -9.623  -1.446  0.00  0.00    +0.002 A 
ATOM     26  C   UNL     1      -7.664 -10.228  -1.712  0.00  0.00    +0.001 A 
ATOM     27  C   UNL     1      -8.846  -9.567  -1.433  0.00  0.00    +0.016 A 
ATOM     28  C   UNL     1      -8.815  -8.295  -0.878  0.00  0.00    +0.030 A 
BRANCH  28  29
ATOM     29  S   UNL     1     -10.319  -7.453  -0.515  0.00  0.00    -0.108 S 
BRANCH  29  30
ATOM     30  C   UNL     1     -11.610  -8.624  -1.019  0.00  0.00    +0.192 C 
BRANCH  30  31
ATOM     31  C   UNL     1     -12.935  -8.033  -0.764  0.00  0.00    +0.074 C 
ATOM     32  N   UNL     1     -13.957  -7.578  -0.568  0.00  0.00    -0.196 NA
ENDBRANCH  30  31
ENDBRANCH  29  30
ENDBRANCH  28  29
ENDBRANCH  21  23
ENDBRANCH  18  19
ENDBRANCH   1  18
TORSDOF 10
