REMARK  Name = ZINC13008518
REMARK  9 active torsions:
REMARK  status: ('A' for Active; 'I' for Inactive)
REMARK    1  A    between atoms: C_1  and  N_2
REMARK    2  A    between atoms: C_10  and  C_12
REMARK    3  A    between atoms: C_12  and  C_14
REMARK    4  A    between atoms: C_12  and  N_59
REMARK    5  A    between atoms: C_14  and  N_15
REMARK    6  A    between atoms: C_16  and  C_18
REMARK    7  A    between atoms: N_20  and  C_21
REMARK    8  A    between atoms: C_26  and  N_59
REMARK    9  A    between atoms: C_27  and  N_59
REMARK                            x       y       z     vdW  Elec       q    Type
REMARK                         _______ _______ _______ _____ _____    ______ ____
ROOT
ATOM      1  C   UNL     1       3.422  -1.989   4.068  0.00  0.00    -0.021 C 
ENDROOT
BRANCH   1  11
ATOM      2  C   UNL     1      -2.789  -0.923   4.514  0.00  0.00    +0.129 C 
ATOM      3  N   UNL     1      -2.127  -1.149   3.222  0.00  0.00    -0.333 N 
ATOM      4  C   UNL     1      -2.459  -0.087   2.269  0.00  0.00    +0.105 C 
ATOM      5  C   UNL     1      -1.720  -0.360   0.953  0.00  0.00    +0.024 C 
ATOM      6  C   UNL     1      -0.223  -0.165   1.203  0.00  0.00    +0.038 C 
ATOM      7  C   UNL     1       0.179  -0.889   2.463  0.00  0.00    -0.026 A 
ATOM      8  C   UNL     1      -0.754  -1.326   3.388  0.00  0.00    +0.033 A 
ATOM      9  C   UNL     1      -0.320  -1.977   4.544  0.00  0.00    +0.023 A 
ATOM     10  C   UNL     1       1.024  -2.188   4.763  0.00  0.00    +0.004 A 
ATOM     11  C   UNL     1       1.952  -1.755   3.833  0.00  0.00    -0.059 A 
ATOM     12  C   UNL     1       1.528  -1.108   2.689  0.00  0.00    +0.007 A 
ENDBRANCH   1  11
BRANCH   1  15
ATOM     13  C   UNL     1       2.834  -4.241   4.733  0.00  0.00    -0.096 C 
ATOM     14  C   UNL     1       3.643  -3.813   2.491  0.00  0.00    -0.096 C 
ATOM     15  N   UNL     1       3.750  -3.421   3.913  0.00  0.00    +0.382 N 
ATOM     16  H   UNL     1       4.713  -3.579   4.230  0.00  0.00    -0.082 HD
ENDBRANCH   1  15
BRANCH   1  17
ATOM     17  C   UNL     1       3.787  -1.550   5.487  0.00  0.00    +0.094 C 
BRANCH  17  18
ATOM     18  N   UNL     1       5.194  -1.866   5.749  0.00  0.00    -0.309 N 
ATOM     19  C   UNL     1       5.714  -1.659   6.975  0.00  0.00    +0.299 C 
ATOM     20  O   UNL     1       5.018  -1.211   7.862  0.00  0.00    -0.265 OA
ATOM     21  H   UNL     1       5.750  -2.225   5.040  0.00  0.00    +0.149 HD
BRANCH  19  22
ATOM     22  C   UNL     1       7.149  -1.981   7.242  0.00  0.00    +0.299 C 
ATOM     23  O   UNL     1       7.845  -2.430   6.355  0.00  0.00    -0.265 OA
ATOM     24  N   UNL     1       7.670  -1.774   8.467  0.00  0.00    -0.305 N 
ATOM     25  H   UNL     1       7.113  -1.415   9.177  0.00  0.00    +0.149 HD
BRANCH  24  26
ATOM     26  C   UNL     1       9.076  -2.090   8.729  0.00  0.00    +0.073 C 
ATOM     27  C   UNL     1       9.215  -3.565   9.158  0.00  0.00    +0.022 C 
ATOM     28  C   UNL     1      10.327  -3.544  10.236  0.00  0.00    +0.002 C 
ATOM     29  C   UNL     1      10.036  -2.229  11.001  0.00  0.00    +0.002 C 
ATOM     30  C   UNL     1       9.598  -1.240   9.901  0.00  0.00    +0.022 C 
ENDBRANCH  24  26
ENDBRANCH  19  22
ENDBRANCH  17  18
ENDBRANCH   1  17
TORSDOF 6
