REMARK  Name = ZINC00381207
REMARK  5 active torsions:
REMARK  status: ('A' for Active; 'I' for Inactive)
REMARK    1  A    between atoms: C_1  and  C_2
REMARK    2  A    between atoms: C_2  and  O_3
REMARK    3  A    between atoms: O_3  and  C_4
REMARK    4  A    between atoms: C_6  and  C_11
REMARK    5  A    between atoms: C_9  and  O_10
REMARK                            x       y       z     vdW  Elec       q    Type
REMARK                         _______ _______ _______ _____ _____    ______ ____
ROOT
ATOM      1  C   UNL     1      -0.217  -4.963  -0.535  0.00  0.00    +0.108 C 
ATOM      2  C   UNL     1       0.866  -5.361  -1.544  0.00  0.00    +0.106 C 
ATOM      3  C   UNL     1       1.887  -6.236  -0.861  0.00  0.00    +0.168 C 
ATOM      4  O   UNL     1       3.040  -6.228  -1.242  0.00  0.00    -0.292 OA
ATOM      5  C   UNL     1       1.508  -7.064   0.219  0.00  0.00    +0.046 A 
ATOM      6  C   UNL     1       2.473  -7.962   0.855  0.00  0.00    -0.006 A 
ATOM      7  C   UNL     1       3.802  -8.030   0.428  0.00  0.00    +0.009 A 
ATOM      8  C   UNL     1       4.669  -8.881   1.050  0.00  0.00    +0.001 A 
ATOM      9  C   UNL     1       4.246  -9.684   2.104  0.00  0.00    +0.001 A 
ATOM     10  C   UNL     1       2.957  -9.642   2.545  0.00  0.00    +0.008 A 
ATOM     11  C   UNL     1       2.039  -8.776   1.929  0.00  0.00    -0.017 A 
ATOM     12  C   UNL     1       0.700  -8.706   2.360  0.00  0.00    +0.010 A 
ATOM     13  C   UNL     1      -0.184  -7.866   1.764  0.00  0.00    +0.024 A 
ATOM     14  C   UNL     1       0.193  -7.040   0.703  0.00  0.00    +0.039 A 
ATOM     15  N   UNL     1      -0.727  -6.179   0.116  0.00  0.00    -0.336 N 
ATOM     16  H   UNL     1      -1.677  -6.374   0.133  0.00  0.00    +0.147 HD
ENDROOT
BRANCH   1  19
ATOM     17  C   UNL     1       0.807  -1.825   1.303  0.00  0.00    +0.162 A 
ATOM     18  C   UNL     1       0.265  -2.673   0.350  0.00  0.00    +0.055 A 
ATOM     19  C   UNL     1       0.372  -4.043   0.502  0.00  0.00    -0.023 A 
ATOM     20  C   UNL     1       1.019  -4.570   1.605  0.00  0.00    +0.009 A 
ATOM     21  C   UNL     1       1.561  -3.730   2.560  0.00  0.00    +0.049 A 
ATOM     22  C   UNL     1       1.462  -2.356   2.410  0.00  0.00    +0.158 A 
BRANCH  22  23
ATOM     23  O   UNL     1       2.000  -1.528   3.345  0.00  0.00    -0.503 OA
ATOM     24  H   UNL     1       1.394  -1.298   4.062  0.00  0.00    +0.292 HD
ENDBRANCH  22  23
BRANCH  17  25
ATOM     25  O   UNL     1       0.703  -0.477   1.154  0.00  0.00    -0.489 OA
BRANCH  25  27
ATOM     26  C   UNL     1       0.000   1.526  -0.001  0.00  0.00    +0.048 C 
ATOM     27  C   UNL     1       0.016  -0.004  -0.006  0.00  0.00    +0.226 C 
ENDBRANCH  25  27
ENDBRANCH  17  25
ENDBRANCH   1  19
TORSDOF 4
