REMARK  Name = ZINC62315341
REMARK  7 active torsions:
REMARK  status: ('A' for Active; 'I' for Inactive)
REMARK    1  A    between atoms: C_1  and  C_2
REMARK    2  A    between atoms: C_2  and  C_3
REMARK    3  A    between atoms: C_3  and  C_22
REMARK    4  A    between atoms: C_4  and  C_5
REMARK    5  A    between atoms: N_7  and  C_8
REMARK    6  A    between atoms: C_8  and  C_9
REMARK    7  A    between atoms: C_13  and  C_21
REMARK                            x       y       z     vdW  Elec       q    Type
REMARK                         _______ _______ _______ _____ _____    ______ ____
ROOT
ATOM      1  C   UNL     1      -1.346  -0.598  -2.422  0.00  0.00    +0.237 C 
ATOM      2  O   UNL     1      -0.154  -0.353  -2.428  0.00  0.00    -0.271 OA
ATOM      3  N   UNL     1      -2.014  -0.726  -3.585  0.00  0.00    -0.308 N 
ATOM      4  H   UNL     1      -2.964  -0.921  -3.581  0.00  0.00    +0.149 HD
ENDROOT
BRANCH   1   6
ATOM      5  C   UNL     1      -1.367  -0.756   0.009  0.00  0.00    -0.036 C 
ATOM      6  C   UNL     1      -2.055  -0.753  -1.150  0.00  0.00    +0.071 C 
BRANCH   5   7
ATOM      7  C   UNL     1      -2.088  -0.764   1.293  0.00  0.00    -0.022 A 
ATOM      8  C   UNL     1      -1.995   0.330   2.159  0.00  0.00    +0.008 A 
ATOM      9  C   UNL     1      -2.673   0.315   3.359  0.00  0.00    +0.001 A 
ATOM     10  C   UNL     1      -3.444  -0.780   3.708  0.00  0.00    +0.000 A 
ATOM     11  C   UNL     1      -3.541  -1.867   2.857  0.00  0.00    +0.001 A 
ATOM     12  C   UNL     1      -2.874  -1.864   1.650  0.00  0.00    +0.008 A 
ENDBRANCH   5   7
BRANCH   5  14
ATOM     13  C   UNL     1       0.643   0.689  -0.123  0.00  0.00    +0.009 C 
ATOM     14  C   UNL     1       0.140  -0.751  -0.009  0.00  0.00    +0.032 C 
ENDBRANCH   5  14
ENDBRANCH   1   6
BRANCH   3  15
ATOM     15  C   UNL     1      -1.304  -0.571  -4.858  0.00  0.00    +0.145 C 
BRANCH  15  16
ATOM     16  C   UNL     1      -2.271  -0.760  -5.998  0.00  0.00    +0.034 A 
ATOM     17  C   UNL     1      -2.859   0.319  -6.571  0.00  0.00    +0.020 A 
ATOM     18  C   UNL     1      -3.793   0.101  -7.678  0.00  0.00    -0.001 A 
ATOM     19  C   UNL     1      -4.431   1.174  -8.309  0.00  0.00    +0.013 A 
ATOM     20  C   UNL     1      -5.296   0.937  -9.339  0.00  0.00    -0.050 A 
ATOM     21  C   UNL     1      -5.550  -0.360  -9.764  0.00  0.00    +0.005 A 
ATOM     22  C   UNL     1      -4.934  -1.433  -9.157  0.00  0.00    +0.026 A 
ATOM     23  C   UNL     1      -4.047  -1.216  -8.107  0.00  0.00    +0.049 A 
ATOM     24  N   UNL     1      -3.416  -2.270  -7.481  0.00  0.00    -0.322 N 
ATOM     25  H   UNL     1      -3.592  -3.177  -7.778  0.00  0.00    +0.169 HD
ATOM     26  C   UNL     1      -2.556  -2.060  -6.470  0.00  0.00    +0.254 A 
ATOM     27  O   UNL     1      -2.012  -3.015  -5.944  0.00  0.00    -0.268 OA
ATOM     28  C   UNL     1      -5.983   2.093 -10.018  0.00  0.00    +0.044 C 
ENDBRANCH  15  16
ENDBRANCH   3  15
TORSDOF 5
