REMARK  Name = ZINC26641760
REMARK  3 active torsions:
REMARK  status: ('A' for Active; 'I' for Inactive)
REMARK    1  A    between atoms: C_5  and  C_7
REMARK    2  A    between atoms: C_13  and  C_14
REMARK    3  A    between atoms: C_17  and  C_19
REMARK                            x       y       z     vdW  Elec       q    Type
REMARK                         _______ _______ _______ _____ _____    ______ ____
ROOT
ATOM      1  C   UNL     1       1.250  -2.074  -0.963  0.00  0.00    +0.131 C 
ATOM      2  N   UNL     1       2.237  -2.865  -0.618  0.00  0.00    -0.164 NA
ATOM      3  N   UNL     1       2.116  -4.235  -0.713  0.00  0.00    -0.152 N 
ATOM      4  C   UNL     1       3.074  -5.179  -0.285  0.00  0.00    +0.153 C 
ATOM      5  N   UNL     1       3.986  -4.919   0.616  0.00  0.00    -0.283 NA
ATOM      6  C   UNL     1       2.943  -6.499  -0.958  0.00  0.00    +0.084 C 
ATOM      7  C   UNL     1       4.049  -7.291  -1.232  0.00  0.00    +0.063 C 
ATOM      8  C   UNL     1       1.572  -6.923  -1.320  0.00  0.00    +0.273 C 
ATOM      9  O   UNL     1       1.292  -8.105  -1.442  0.00  0.00    -0.268 OA
ATOM     10  N   UNL     1       0.641  -5.966  -1.512  0.00  0.00    -0.152 NA
ATOM     11  C   UNL     1       0.941  -4.720  -1.250  0.00  0.00    +0.181 C 
ATOM     12  S   UNL     1      -0.003  -3.237  -1.486  0.00  0.00    -0.033 S 
ATOM     13  H   UNL     1       4.513  -5.639   0.995  0.00  0.00    +0.188 HD
ENDROOT
BRANCH   1  18
ATOM     14  C   UNL     1      -0.024   1.444  -1.294  0.00  0.00    +0.001 A 
ATOM     15  C   UNL     1       1.067   2.170  -0.849  0.00  0.00    +0.001 A 
ATOM     16  C   UNL     1       2.218   1.520  -0.442  0.00  0.00    +0.020 A 
ATOM     17  C   UNL     1       2.284   0.141  -0.476  0.00  0.00    +0.051 A 
ATOM     18  C   UNL     1       1.186  -0.596  -0.923  0.00  0.00    +0.027 A 
ATOM     19  C   UNL     1       0.029   0.067  -1.333  0.00  0.00    +0.012 A 
ATOM     20 CL   UNL     1       3.729  -0.674   0.036  0.00  0.00    -0.083 Cl
ENDBRANCH   1  18
BRANCH   7  21
ATOM     21  C   UNL     1       5.339  -6.740  -1.174  0.00  0.00    +0.129 A 
ATOM     22  C   UNL     1       6.530  -7.443  -1.287  0.00  0.00    +0.050 A 
ATOM     23  C   UNL     1       7.560  -6.511  -1.173  0.00  0.00    +0.050 A 
ATOM     24  C   UNL     1       6.971  -5.277  -0.996  0.00  0.00    +0.137 A 
ATOM     25  O   UNL     1       5.636  -5.433  -1.005  0.00  0.00    -0.455 OA
BRANCH  24  26
ATOM     26  C   UNL     1       7.686  -3.997  -0.830  0.00  0.00    +0.036 A 
ATOM     27  C   UNL     1       8.722  -3.888   0.102  0.00  0.00    +0.014 A 
ATOM     28  C   UNL     1       9.386  -2.689   0.252  0.00  0.00    +0.021 A 
ATOM     29  C   UNL     1       9.029  -1.594  -0.518  0.00  0.00    +0.042 A 
ATOM     30  C   UNL     1       8.004  -1.694  -1.443  0.00  0.00    +0.040 A 
ATOM     31  C   UNL     1       7.334  -2.890  -1.609  0.00  0.00    +0.053 A 
ATOM     32 CL   UNL     1       6.053  -3.017  -2.774  0.00  0.00    -0.083 Cl
ATOM     33 CL   UNL     1       9.872  -0.089  -0.322  0.00  0.00    -0.083 Cl
ENDBRANCH  24  26
ENDBRANCH   7  21
TORSDOF 3
