REMARK  Name = ZINC30814051
REMARK  10 active torsions:
REMARK  status: ('A' for Active; 'I' for Inactive)
REMARK    1  A    between atoms: C_1  and  C_2
REMARK    2  A    between atoms: C_2  and  O_3
REMARK    3  A    between atoms: O_3  and  C_4
REMARK    4  A    between atoms: C_6  and  C_16
REMARK    5  A    between atoms: C_9  and  O_10
REMARK    6  A    between atoms: O_10  and  C_11
REMARK    7  A    between atoms: C_11  and  C_12
REMARK    8  A    between atoms: N_17  and  N_18
REMARK    9  A    between atoms: C_19  and  C_21
REMARK   10  A    between atoms: C_25  and  N_30
REMARK                            x       y       z     vdW  Elec       q    Type
REMARK                         _______ _______ _______ _____ _____    ______ ____
ROOT
ATOM      1  C   UNL     1       1.899  -0.272   5.538  0.00  0.00    +0.139 C 
ATOM      2  N   UNL     1       1.542   0.189   6.697  0.00  0.00    -0.187 NA
ENDROOT
BRANCH   1   5
ATOM      3  C   UNL     1       0.517   2.231   3.104  0.00  0.00    +0.163 A 
ATOM      4  C   UNL     1       1.031   1.680   4.263  0.00  0.00    +0.060 A 
ATOM      5  C   UNL     1       1.345   0.319   4.307  0.00  0.00    +0.012 A 
ATOM      6  C   UNL     1       1.132  -0.480   3.179  0.00  0.00    +0.030 A 
ATOM      7  C   UNL     1       0.613   0.076   2.028  0.00  0.00    +0.065 A 
ATOM      8  C   UNL     1       0.302   1.428   1.986  0.00  0.00    +0.164 A 
ATOM      9 BR   UNL     1       1.556  -2.322   3.232  0.00  0.00    -0.050 Br
BRANCH   3  10
ATOM     10  O   UNL     1       0.216   3.556   3.057  0.00  0.00    -0.489 OA
BRANCH  10  12
ATOM     11  C   UNL     1       0.233   5.811   3.927  0.00  0.00    +0.048 C 
ATOM     12  C   UNL     1       0.567   4.343   4.197  0.00  0.00    +0.226 C 
ENDBRANCH  10  12
ENDBRANCH   3  10
BRANCH   8  13
ATOM     13  O   UNL     1      -0.208   1.971   0.850  0.00  0.00    -0.477 OA
BRANCH  13  14
ATOM     14  C   UNL     1      -0.398   1.092  -0.261  0.00  0.00    +0.354 C 
BRANCH  14  15
ATOM     15  C   UNL     1      -0.968   1.865  -1.422  0.00  0.00    +0.393 C 
ATOM     16  O   UNL     1      -1.188   3.048  -1.310  0.00  0.00    -0.243 OA
ATOM     17  O   UNL     1      -1.229   1.240  -2.581  0.00  0.00    -0.243 OA
ENDBRANCH  14  15
ENDBRANCH  13  14
ENDBRANCH   8  13
ENDBRANCH   1   5
BRANCH   2  18
ATOM     18  N   UNL     1       0.389   0.976   6.814  0.00  0.00    -0.200 N 
ATOM     19  C   UNL     1      -0.024   1.392   8.027  0.00  0.00    +0.299 C 
ATOM     20  O   UNL     1       0.593   1.066   9.024  0.00  0.00    -0.265 OA
ATOM     21  H   UNL     1      -0.180   1.254   5.914  0.00  0.00    +0.178 HD
BRANCH  19  22
ATOM     22  C   UNL     1      -1.217   2.240   8.146  0.00  0.00    +0.192 A 
ATOM     23  C   UNL     1      -1.666   2.801   9.300  0.00  0.00    +0.063 A 
ATOM     24  C   UNL     1      -2.869   3.552   8.943  0.00  0.00    +0.023 A 
ATOM     25  C   UNL     1      -3.777   4.334   9.661  0.00  0.00    +0.044 A 
ATOM     26  C   UNL     1      -4.828   4.919   9.013  0.00  0.00    +0.127 A 
ATOM     27  C   UNL     1      -5.000   4.739   7.647  0.00  0.00    +0.036 A 
ATOM     28  C   UNL     1      -4.116   3.971   6.921  0.00  0.00    +0.049 A 
ATOM     29  C   UNL     1      -3.038   3.367   7.559  0.00  0.00    +0.136 A 
ATOM     30  O   UNL     1      -2.030   2.585   7.126  0.00  0.00    -0.450 OA
BRANCH  26  31
ATOM     31  N   UNL     1      -5.791   5.748   9.772  0.00  0.00    +0.056 N 
ATOM     32  O   UNL     1      -6.729   6.271   9.198  0.00  0.00    -0.126 OA
ATOM     33  O   UNL     1      -5.644   5.909  10.971  0.00  0.00    -0.126 OA
ENDBRANCH  26  31
ENDBRANCH  19  22
ENDBRANCH   2  18
TORSDOF 9
