REMARK  Name = ZINC44461798
REMARK  16 active torsions:
REMARK  status: ('A' for Active; 'I' for Inactive)
REMARK    1  A    between atoms: C_1  and  C_2
REMARK    2  A    between atoms: C_2  and  C_3
REMARK    3  A    between atoms: C_3  and  C_4
REMARK    4  A    between atoms: C_4  and  C_5
REMARK    5  A    between atoms: C_5  and  C_7
REMARK    6  A    between atoms: C_5  and  C_9
REMARK    7  A    between atoms: C_7  and  C_8
REMARK    8  A    between atoms: C_9  and  N_10
REMARK    9  A    between atoms: C_14  and  C_28
REMARK   10  A    between atoms: C_21  and  C_23
REMARK   11  A    between atoms: C_23  and  C_24
REMARK   12  A    between atoms: C_24  and  C_26
REMARK   13  A    between atoms: C_24  and  N_27
REMARK   14  A    between atoms: C_28  and  C_29
REMARK   15  A    between atoms: C_29  and  C_31
REMARK   16  A    between atoms: C_29  and  N_32
REMARK                            x       y       z     vdW  Elec       q    Type
REMARK                         _______ _______ _______ _____ _____    ______ ____
ROOT
ATOM      1  N   UNL     1      -4.267  -4.501  -0.122  0.00  0.00    -0.340 N 
ATOM      2  C   UNL     1      -5.082  -4.765   0.964  0.00  0.00    +0.050 A 
ATOM      3  C   UNL     1      -4.878  -4.661   2.336  0.00  0.00    +0.027 A 
ATOM      4  C   UNL     1      -5.887  -4.998   3.212  0.00  0.00    +0.005 A 
ATOM      5  C   UNL     1      -7.112  -5.444   2.739  0.00  0.00    -0.048 A 
ATOM      6  C   UNL     1      -7.333  -5.554   1.383  0.00  0.00    +0.014 A 
ATOM      7  C   UNL     1      -6.322  -5.215   0.487  0.00  0.00    +0.008 A 
ATOM      8  C   UNL     1      -6.229  -5.216  -0.985  0.00  0.00    +0.008 A 
ATOM      9  C   UNL     1      -4.941  -4.761  -1.302  0.00  0.00    +0.050 A 
ATOM     10  C   UNL     1      -4.567  -4.652  -2.638  0.00  0.00    +0.027 A 
ATOM     11  C   UNL     1      -5.459  -4.987  -3.634  0.00  0.00    +0.005 A 
ATOM     12  C   UNL     1      -6.734  -5.432  -3.318  0.00  0.00    -0.048 A 
ATOM     13  C   UNL     1      -7.120  -5.555  -2.001  0.00  0.00    +0.014 A 
ENDROOT
BRANCH   1  14
ATOM     14  C   UNL     1      -2.889  -4.010  -0.035  0.00  0.00    +0.126 C 
BRANCH  14  15
ATOM     15  C   UNL     1      -2.892  -2.480  -0.029  0.00  0.00    +0.009 C 
BRANCH  15  16
ATOM     16  C   UNL     1      -3.582  -1.977   1.241  0.00  0.00    +0.002 C 
ATOM     17  C   UNL     1      -3.705  -0.453   1.184  0.00  0.00    +0.004 C 
ENDBRANCH  15  16
BRANCH  15  18
ATOM     18  C   UNL     1      -1.451  -1.967  -0.064  0.00  0.00    +0.005 C 
BRANCH  18  19
ATOM     19  C   UNL     1      -0.806  -2.351  -1.397  0.00  0.00    +0.000 C 
BRANCH  19  21
ATOM     20  C   UNL     1       1.234  -2.110  -2.820  0.00  0.00    +0.004 C 
ATOM     21  C   UNL     1       0.588  -1.726  -1.487  0.00  0.00    -0.003 C 
ENDBRANCH  19  21
ENDBRANCH  18  19
ENDBRANCH  15  18
ENDBRANCH  14  15
ENDBRANCH   1  14
BRANCH  12  22
ATOM     22  C   UNL     1      -7.697  -5.793  -4.420  0.00  0.00    +0.018 C 
BRANCH  22  23
ATOM     23  C   UNL     1      -7.542  -7.274  -4.769  0.00  0.00    -0.074 C 
ATOM     24  C   UNL     1      -8.429  -7.611  -5.969  0.00  0.00    -0.014 C 
BRANCH  23  25
ATOM     25  N   UNL     1      -7.943  -8.093  -3.617  0.00  0.00    +0.380 N 
ATOM     26  H   UNL     1      -7.841  -9.070  -3.848  0.00  0.00    -0.090 HD
ATOM     27  H   UNL     1      -7.358  -7.871  -2.826  0.00  0.00    -0.090 HD
ATOM     28  H   UNL     1      -8.907  -7.901  -3.388  0.00  0.00    -0.090 HD
ENDBRANCH  23  25
ENDBRANCH  22  23
ENDBRANCH  12  22
BRANCH   5  29
ATOM     29  C   UNL     1      -8.204  -5.809   3.710  0.00  0.00    +0.018 C 
BRANCH  29  30
ATOM     30  C   UNL     1      -9.056  -4.574   4.008  0.00  0.00    -0.074 C 
ATOM     31  C   UNL     1     -10.238  -4.971   4.895  0.00  0.00    -0.014 C 
BRANCH  30  32
ATOM     32  N   UNL     1      -8.238  -3.571   4.702  0.00  0.00    +0.380 N 
ATOM     33  H   UNL     1      -7.459  -3.309   4.118  0.00  0.00    -0.090 HD
ATOM     34  H   UNL     1      -8.800  -2.756   4.899  0.00  0.00    -0.090 HD
ATOM     35  H   UNL     1      -7.894  -3.958   5.568  0.00  0.00    -0.090 HD
ENDBRANCH  30  32
ENDBRANCH  29  30
ENDBRANCH   5  29
TORSDOF 12
