REMARK  Name = ZINC39707509
REMARK  5 active torsions:
REMARK  status: ('A' for Active; 'I' for Inactive)
REMARK    1  A    between atoms: C_1  and  C_2
REMARK    2  A    between atoms: C_7  and  N_8
REMARK    3  A    between atoms: C_9  and  C_11
REMARK    4  A    between atoms: C_11  and  S_12
REMARK    5  A    between atoms: S_12  and  C_13
REMARK                            x       y       z     vdW  Elec       q    Type
REMARK                         _______ _______ _______ _____ _____    ______ ____
ROOT
ATOM      1  S   UNL     1      -0.260  -1.132   6.252  0.00  0.00    -0.075 S 
ENDROOT
BRANCH   1   2
ATOM      2  C   UNL     1      -0.385  -0.117   7.687  0.00  0.00    +0.208 C 
ATOM      3  N   UNL     1      -0.396   1.184   7.524  0.00  0.00    -0.227 NA
ATOM      4  C   UNL     1      -0.580   2.016   8.710  0.00  0.00    +0.252 C 
ATOM      5  C   UNL     1      -0.020   1.222   9.882  0.00  0.00    +0.117 C 
ATOM      6  C   UNL     1       0.797   2.082  10.550  0.00  0.00    +0.025 A 
ATOM      7  C   UNL     1       1.510   1.965  11.769  0.00  0.00    +0.012 A 
ATOM      8  C   UNL     1       2.264   3.028  12.157  0.00  0.00    +0.001 A 
ATOM      9  C   UNL     1       2.378   4.218  11.432  0.00  0.00    +0.002 A 
ATOM     10  C   UNL     1       1.734   4.444  10.256  0.00  0.00    +0.026 A 
ATOM     11  C   UNL     1       0.886   3.348   9.758  0.00  0.00    +0.046 A 
ATOM     12  N   UNL     1       0.146   3.278   8.694  0.00  0.00    -0.358 N 
ATOM     13  N   UNL     1      -0.256  -0.088  10.006  0.00  0.00    -0.147 NA
ATOM     14  N   UNL     1      -0.472  -0.726   8.895  0.00  0.00    -0.122 NA
ATOM     15  H   UNL     1       0.088   3.954   8.001  0.00  0.00    +0.162 HD
ENDBRANCH   1   2
BRANCH   1  16
ATOM     16  C   UNL     1      -0.169   0.053   4.882  0.00  0.00    +0.173 C 
BRANCH  16  18
ATOM     17  N   UNL     1       0.025  -0.014   2.417  0.00  0.00    -0.285 N 
ATOM     18  C   UNL     1      -0.057  -0.694   3.578  0.00  0.00    +0.227 C 
ATOM     19  O   UNL     1      -0.040  -1.907   3.573  0.00  0.00    -0.275 OA
ATOM     20  H   UNL     1       0.077   0.954   2.425  0.00  0.00    +0.155 HD
BRANCH  17  27
ATOM     21  C   UNL     1      -1.265   1.183   0.181  0.00  0.00    +0.046 C 
ATOM     22  C   UNL     1      -0.584  -0.158   0.084  0.00  0.00    -0.028 A 
ATOM     23  C   UNL     1      -0.569  -0.841  -1.116  0.00  0.00    +0.019 A 
ATOM     24  C   UNL     1       0.056  -2.071  -1.206  0.00  0.00    +0.014 A 
ATOM     25  C   UNL     1       0.668  -2.622  -0.094  0.00  0.00    +0.016 A 
ATOM     26  C   UNL     1       0.656  -1.944   1.109  0.00  0.00    +0.024 A 
ATOM     27  C   UNL     1       0.034  -0.706   1.201  0.00  0.00    +0.036 A 
ATOM     28  I   UNL     1       0.076  -3.103  -3.029  0.00  0.00    -0.044 I 
ENDBRANCH  17  27
ENDBRANCH  16  18
ENDBRANCH   1  16
TORSDOF 4
