REMARK  Name = ZINC59267692
REMARK  4 active torsions:
REMARK  status: ('A' for Active; 'I' for Inactive)
REMARK    1  A    between atoms: C_12  and  S_15
REMARK    2  A    between atoms: S_15  and  C_16
REMARK    3  A    between atoms: C_16  and  C_17
REMARK    4  A    between atoms: N_19  and  C_20
REMARK                            x       y       z     vdW  Elec       q    Type
REMARK                         _______ _______ _______ _____ _____    ______ ____
ROOT
ATOM      1  C   UNL     1      -0.011   1.374   0.104  0.00  0.00    +0.001 A 
ATOM      2  C   UNL     1       1.178   2.088   0.100  0.00  0.00    +0.002 A 
ATOM      3  C   UNL     1       2.390   1.431   0.077  0.00  0.00    +0.026 A 
ATOM      4  C   UNL     1       2.429   0.041   0.058  0.00  0.00    +0.050 A 
ATOM      5  C   UNL     1       1.225  -0.680   0.062  0.00  0.00    +0.029 A 
ATOM      6  C   UNL     1       0.007  -0.004   0.085  0.00  0.00    +0.012 A 
ATOM      7  C   UNL     1       1.595  -2.106   0.037  0.00  0.00    +0.137 A 
ATOM      8  C   UNL     1       3.004  -2.149   0.020  0.00  0.00    +0.162 A 
ATOM      9  N   UNL     1       3.480  -0.862   0.033  0.00  0.00    -0.338 N 
ATOM     10  H   UNL     1       4.419  -0.618   0.025  0.00  0.00    +0.167 HD
ATOM     11  N   UNL     1       3.599  -3.338  -0.003  0.00  0.00    -0.201 NA
ATOM     12  C   UNL     1       2.854  -4.436  -0.009  0.00  0.00    +0.212 A 
ATOM     13  N   UNL     1       1.527  -4.370   0.007  0.00  0.00    -0.122 NA
ATOM     14  N   UNL     1       0.908  -3.239   0.029  0.00  0.00    -0.143 NA
ENDROOT
BRANCH  12  15
ATOM     15  S   UNL     1       3.640  -6.013  -0.040  0.00  0.00    -0.075 S 
BRANCH  15  16
ATOM     16  C   UNL     1       2.260  -7.191  -0.040  0.00  0.00    +0.173 C 
BRANCH  16  17
ATOM     17  C   UNL     1       2.800  -8.597  -0.066  0.00  0.00    +0.228 C 
ATOM     18  O   UNL     1       3.998  -8.787  -0.083  0.00  0.00    -0.275 OA
ATOM     19  N   UNL     1       1.952  -9.645  -0.070  0.00  0.00    -0.283 N 
ATOM     20  H   UNL     1       0.997  -9.496   0.008  0.00  0.00    +0.155 HD
BRANCH  19  21
ATOM     21  C   UNL     1       2.451 -10.949  -0.189  0.00  0.00    +0.069 A 
ATOM     22  C   UNL     1       3.668 -11.283   0.388  0.00  0.00    +0.027 A 
ATOM     23  C   UNL     1       4.158 -12.569   0.270  0.00  0.00    +0.017 A 
ATOM     24  C   UNL     1       3.436 -13.526  -0.422  0.00  0.00    +0.021 A 
ATOM     25  C   UNL     1       2.222 -13.197  -0.998  0.00  0.00    +0.055 A 
ATOM     26  C   UNL     1       1.724 -11.912  -0.879  0.00  0.00    +0.146 A 
ATOM     27  F   UNL     1       0.535 -11.593  -1.436  0.00  0.00    -0.204 F 
ATOM     28 BR   UNL     1       4.111 -15.285  -0.581  0.00  0.00    -0.050 Br
ENDBRANCH  19  21
ENDBRANCH  16  17
ENDBRANCH  15  16
ENDBRANCH  12  15
TORSDOF 4
