REMARK  Name = ZINC02456422
REMARK  5 active torsions:
REMARK  status: ('A' for Active; 'I' for Inactive)
REMARK    1  A    between atoms: C_1  and  C_2
REMARK    2  A    between atoms: C_2  and  C_3
REMARK    3  A    between atoms: C_3  and  C_4
REMARK    4  A    between atoms: C_4  and  C_5
REMARK    5  A    between atoms: C_18  and  C_20
REMARK                            x       y       z     vdW  Elec       q    Type
REMARK                         _______ _______ _______ _____ _____    ______ ____
ROOT
ATOM      1  C   UNL     1       1.442  -2.503  -2.520  0.00  0.00    +0.217 C 
ATOM      2  O   UNL     1       1.893  -1.710  -3.319  0.00  0.00    -0.276 OA
ATOM      3  N   UNL     1       1.577  -3.827  -2.734  0.00  0.00    -0.282 N 
ATOM      4  C   UNL     1       1.017  -4.743  -1.756  0.00  0.00    +0.204 C 
ATOM      5  C   UNL     1       2.112  -5.432  -1.008  0.00  0.00    +0.235 C 
ATOM      6  O   UNL     1       1.901  -5.683   0.160  0.00  0.00    -0.274 OA
ATOM      7  N   UNL     1       3.270  -5.791  -1.482  0.00  0.00    -0.284 N 
ATOM      8  C   UNL     1       4.057  -5.460  -2.562  0.00  0.00    +0.039 A 
ATOM      9  C   UNL     1       5.393  -5.889  -2.477  0.00  0.00    +0.026 A 
ATOM     10  C   UNL     1       6.295  -5.628  -3.479  0.00  0.00    +0.040 A 
ATOM     11  C   UNL     1       5.887  -4.925  -4.601  0.00  0.00    +0.124 A 
ATOM     12  C   UNL     1       4.579  -4.501  -4.695  0.00  0.00    +0.046 A 
ATOM     13  C   UNL     1       3.657  -4.766  -3.684  0.00  0.00    +0.001 A 
ATOM     14  C   UNL     1       2.263  -4.259  -3.922  0.00  0.00    +0.139 C 
ATOM     15  F   UNL     1       6.763  -4.658  -5.595  0.00  0.00    -0.205 F 
ATOM     16  H   UNL     1       3.689  -6.470  -0.930  0.00  0.00    +0.155 HD
ENDROOT
BRANCH  14  17
ATOM     17  C   UNL     1       1.456  -5.358  -4.564  0.00  0.00    -0.022 A 
ATOM     18  C   UNL     1       0.884  -5.159  -5.807  0.00  0.00    +0.008 A 
ATOM     19  C   UNL     1       0.145  -6.166  -6.398  0.00  0.00    +0.038 A 
ATOM     20  C   UNL     1      -0.023  -7.375  -5.744  0.00  0.00    +0.123 A 
ATOM     21  C   UNL     1       0.551  -7.574  -4.500  0.00  0.00    +0.038 A 
ATOM     22  C   UNL     1       1.294  -6.567  -3.913  0.00  0.00    +0.008 A 
ATOM     23  F   UNL     1      -0.746  -8.360  -6.320  0.00  0.00    -0.205 F 
ENDBRANCH  14  17
BRANCH   1  24
ATOM     24  C   UNL     1       0.730  -2.008  -1.287  0.00  0.00    +0.096 C 
BRANCH  24  25
ATOM     25  C   UNL     1       0.715  -0.478  -1.287  0.00  0.00    +0.009 C 
BRANCH  25  27
ATOM     26  C   UNL     1      -0.022   1.555  -0.035  0.00  0.00    +0.004 C 
ATOM     27  C   UNL     1      -0.008   0.025  -0.035  0.00  0.00    -0.003 C 
ENDBRANCH  25  27
ENDBRANCH  24  25
ENDBRANCH   1  24
TORSDOF 4
