REMARK  Name = ZINC39943466
REMARK  10 active torsions:
REMARK  status: ('A' for Active; 'I' for Inactive)
REMARK    1  A    between atoms: C_1  and  C_2
REMARK    2  A    between atoms: C_2  and  O_3
REMARK    3  A    between atoms: O_3  and  C_4
REMARK    4  A    between atoms: C_4  and  C_6
REMARK    5  A    between atoms: C_7  and  N_18
REMARK    6  A    between atoms: C_9  and  C_12
REMARK    7  A    between atoms: C_19  and  C_21
REMARK    8  A    between atoms: C_21  and  S_22
REMARK    9  A    between atoms: S_22  and  C_23
REMARK   10  A    between atoms: C_27  and  C_29
REMARK                            x       y       z     vdW  Elec       q    Type
REMARK                         _______ _______ _______ _____ _____    ______ ____
ROOT
ATOM      1  N   UNL     1       1.024  -4.648   2.022  0.00  0.00    -0.287 N 
ATOM      2  C   UNL     1       1.060  -5.936   2.416  0.00  0.00    +0.227 C 
ATOM      3  O   UNL     1       1.527  -6.227   3.497  0.00  0.00    -0.275 OA
ATOM      4  H   UNL     1       0.611  -4.411   1.177  0.00  0.00    +0.155 HD
ENDROOT
BRANCH   1   6
ATOM      5  C   UNL     1       1.667  -2.397   2.376  0.00  0.00    +0.110 C 
ATOM      6  C   UNL     1       1.575  -3.667   2.819  0.00  0.00    +0.032 C 
ATOM      7  C   UNL     1       2.079  -3.997   4.187  0.00  0.00    +0.071 C 
ATOM      8  C   UNL     1       2.209  -2.718   5.054  0.00  0.00    +0.087 C 
ATOM      9  S   UNL     1       2.407  -1.472   3.709  0.00  0.00    -0.108 S 
BRANCH   8  10
ATOM     10  C   UNL     1       3.429  -2.772   5.936  0.00  0.00    -0.034 A 
ATOM     11  C   UNL     1       4.686  -2.880   5.372  0.00  0.00    +0.005 A 
ATOM     12  C   UNL     1       5.806  -2.929   6.181  0.00  0.00    +0.000 A 
ATOM     13  C   UNL     1       5.668  -2.869   7.555  0.00  0.00    +0.000 A 
ATOM     14  C   UNL     1       4.411  -2.760   8.120  0.00  0.00    +0.000 A 
ATOM     15  C   UNL     1       3.292  -2.707   7.310  0.00  0.00    +0.005 A 
ENDBRANCH   8  10
BRANCH   5  16
ATOM     16  C   UNL     1       1.251  -1.885   1.070  0.00  0.00    +0.347 C 
ATOM     17  O   UNL     1       0.853  -2.652   0.214  0.00  0.00    -0.244 OA
BRANCH  16  18
ATOM     18  O   UNL     1       1.309  -0.561   0.815  0.00  0.00    -0.461 OA
BRANCH  18  20
ATOM     19  C   UNL     1       1.023   1.389  -0.583  0.00  0.00    +0.048 C 
ATOM     20  C   UNL     1       0.887  -0.131  -0.481  0.00  0.00    +0.229 C 
ENDBRANCH  18  20
ENDBRANCH  16  18
ENDBRANCH   5  16
ENDBRANCH   1   6
BRANCH   2  21
ATOM     21  C   UNL     1       0.518  -7.016   1.515  0.00  0.00    +0.173 C 
BRANCH  21  22
ATOM     22  S   UNL     1       0.707  -8.629   2.322  0.00  0.00    -0.077 S 
BRANCH  22  23
ATOM     23  C   UNL     1       0.037  -9.770   1.158  0.00  0.00    +0.185 A 
ATOM     24  N   UNL     1      -0.049 -11.109   1.317  0.00  0.00    -0.253 N 
ATOM     25  H   UNL     1       0.244 -11.622   2.087  0.00  0.00    +0.191 HD
ATOM     26  N   UNL     1      -0.645 -11.612   0.150  0.00  0.00    -0.152 NA
ATOM     27  C   UNL     1      -0.883 -10.584  -0.632  0.00  0.00    +0.182 A 
ATOM     28  N   UNL     1      -0.473  -9.466  -0.015  0.00  0.00    -0.201 NA
BRANCH  27  29
ATOM     29  C   UNL     1      -1.508 -10.649  -1.976  0.00  0.00    +0.021 A 
ATOM     30  C   UNL     1      -1.702  -9.482  -2.714  0.00  0.00    +0.013 A 
ATOM     31  C   UNL     1      -2.283  -9.547  -3.963  0.00  0.00    +0.021 A 
ATOM     32  C   UNL     1      -2.673 -10.769  -4.485  0.00  0.00    +0.041 A 
ATOM     33  C   UNL     1      -2.483 -11.931  -3.756  0.00  0.00    +0.021 A 
ATOM     34  C   UNL     1      -1.897 -11.876  -2.508  0.00  0.00    +0.013 A 
ATOM     35 CL   UNL     1      -3.404 -10.845  -6.058  0.00  0.00    -0.084 Cl
ENDBRANCH  27  29
ENDBRANCH  22  23
ENDBRANCH  21  22
ENDBRANCH   2  21
TORSDOF 9
