REMARK  Name = ZINC37138938
REMARK  9 active torsions:
REMARK  status: ('A' for Active; 'I' for Inactive)
REMARK    1  A    between atoms: C_1  and  C_2
REMARK    2  A    between atoms: C_2  and  C_3
REMARK    3  A    between atoms: C_3  and  C_4
REMARK    4  A    between atoms: C_4  and  C_5
REMARK    5  A    between atoms: C_5  and  C_6
REMARK    6  A    between atoms: C_6  and  C_7
REMARK    7  A    between atoms: C_7  and  C_9
REMARK    8  A    between atoms: C_7  and  N_10
REMARK    9  A    between atoms: N_10  and  C_11
REMARK                            x       y       z     vdW  Elec       q    Type
REMARK                         _______ _______ _______ _____ _____    ______ ____
ROOT
ATOM      1  C   UNL     1       2.162  -4.527  -6.190  0.00  0.00    +0.050 C 
ATOM      2  C   UNL     1       1.352  -4.210  -7.426  0.00  0.00    -0.018 A 
ATOM      3  C   UNL     1       2.088  -3.279  -8.148  0.00  0.00    +0.036 A 
ATOM      4  C   UNL     1       1.575  -2.800  -9.351  0.00  0.00    +0.023 A 
ATOM      5  C   UNL     1       0.354  -3.249  -9.812  0.00  0.00    +0.003 A 
ATOM      6  C   UNL     1      -0.369  -4.176  -9.085  0.00  0.00    +0.015 A 
ATOM      7  C   UNL     1       0.134  -4.657  -7.888  0.00  0.00    +0.022 A 
ATOM      8 BR   UNL     1      -0.851  -5.925  -6.888  0.00  0.00    -0.050 Br
ATOM      9  N   UNL     1       3.278  -2.984  -7.482  0.00  0.00    -0.286 N 
ATOM     10  C   UNL     1       3.402  -3.671  -6.330  0.00  0.00    +0.208 C 
ATOM     11  O   UNL     1       4.330  -3.614  -5.551  0.00  0.00    -0.277 OA
ATOM     12  H   UNL     1       3.941  -2.357  -7.811  0.00  0.00    +0.155 HD
ENDROOT
BRANCH   1  13
ATOM     13  N   UNL     1       1.417  -4.159  -4.978  0.00  0.00    +0.391 N 
ATOM     14  H   UNL     1       0.529  -4.639  -4.970  0.00  0.00    -0.084 HD
ATOM     15  H   UNL     1       1.260  -3.163  -4.969  0.00  0.00    -0.084 HD
BRANCH  13  16
ATOM     16  C   UNL     1       2.192  -4.544  -3.791  0.00  0.00    -0.074 C 
ATOM     17  C   UNL     1       2.323  -6.067  -3.739  0.00  0.00    -0.014 C 
BRANCH  16  18
ATOM     18  C   UNL     1       1.476  -4.051  -2.532  0.00  0.00    -0.016 C 
BRANCH  18  19
ATOM     19  C   UNL     1       1.455  -2.521  -2.524  0.00  0.00    -0.002 C 
BRANCH  19  20
ATOM     20  C   UNL     1       0.739  -2.027  -1.265  0.00  0.00    -0.000 C 
BRANCH  20  21
ATOM     21  C   UNL     1       0.718  -0.497  -1.257  0.00  0.00    -0.000 C 
BRANCH  21  23
ATOM     22  C   UNL     1      -0.019   1.526   0.010  0.00  0.00    +0.004 C 
ATOM     23  C   UNL     1       0.002  -0.004   0.002  0.00  0.00    -0.003 C 
ENDBRANCH  21  23
ENDBRANCH  20  21
ENDBRANCH  19  20
ENDBRANCH  18  19
ENDBRANCH  16  18
ENDBRANCH  13  16
ENDBRANCH   1  13
TORSDOF 7
