REMARK  Name = ZINC33141543
REMARK  7 active torsions:
REMARK  status: ('A' for Active; 'I' for Inactive)
REMARK    1  A    between atoms: N_7  and  C_8
REMARK    2  A    between atoms: C_8  and  C_9
REMARK    3  A    between atoms: N_11  and  C_12
REMARK    4  A    between atoms: C_12  and  C_13
REMARK    5  A    between atoms: C_13  and  C_14
REMARK    6  A    between atoms: C_27  and  C_30
REMARK    7  A    between atoms: N_32  and  C_33
REMARK                            x       y       z     vdW  Elec       q    Type
REMARK                         _______ _______ _______ _____ _____    ______ ____
ROOT
ATOM      1  C   UNL     1      -0.942   3.463   0.030  0.00  0.00    +0.204 A 
ATOM      2  N   UNL     1      -1.086   2.175   0.029  0.00  0.00    -0.217 NA
ATOM      3  C   UNL     1      -0.016   1.329   0.009  0.00  0.00    +0.176 A 
ATOM      4  C   UNL     1       1.252   1.939   0.001  0.00  0.00    +0.124 A 
ATOM      5  C   UNL     1       1.395   3.320   0.007  0.00  0.00    +0.270 A 
ATOM      6  O   UNL     1       2.500   3.837  -0.000  0.00  0.00    -0.266 OA
ATOM      7  N   UNL     1       0.270   4.076   0.022  0.00  0.00    -0.289 N 
ATOM      8  S   UNL     1       2.344   0.542  -0.017  0.00  0.00    -0.045 S 
ATOM      9  C   UNL     1       1.124  -0.695  -0.012  0.00  0.00    +0.164 A 
ATOM     10  N   UNL     1       0.002  -0.004   0.002  0.00  0.00    -0.205 NA
ATOM     11  N   UNL     1       1.289  -2.063  -0.021  0.00  0.00    -0.309 N 
ATOM     12  C   UNL     1       2.128  -2.499   1.103  0.00  0.00    +0.107 C 
ATOM     13  C   UNL     1       2.410  -3.998   0.979  0.00  0.00    +0.020 C 
ATOM     14  C   UNL     1       1.083  -4.763   0.980  0.00  0.00    +0.016 C 
ATOM     15  C   UNL     1       0.209  -4.256  -0.170  0.00  0.00    +0.092 C 
ATOM     16  C   UNL     1      -0.008  -2.750  -0.013  0.00  0.00    +0.119 C 
ENDROOT
BRANCH  15  17
ATOM     17  C   UNL     1      -1.121  -4.963  -0.141  0.00  0.00    +0.218 C 
ATOM     18  O   UNL     1      -1.349  -5.793   0.713  0.00  0.00    -0.275 OA
ATOM     19  N   UNL     1      -2.059  -4.672  -1.064  0.00  0.00    -0.312 N 
ATOM     20  H   UNL     1      -1.853  -3.919  -1.839  0.00  0.00    +0.149 HD
BRANCH  19  21
ATOM     21  C   UNL     1      -3.353  -5.359  -1.036  0.00  0.00    +0.073 C 
ATOM     22  C   UNL     1      -3.922  -5.848  -2.369  0.00  0.00    +0.024 C 
ATOM     23  C   UNL     1      -4.548  -4.641  -1.667  0.00  0.00    +0.024 C 
ENDBRANCH  19  21
ENDBRANCH  15  17
BRANCH   7  24
ATOM     24  C   UNL     1       0.360   5.538   0.030  0.00  0.00    +0.222 C 
BRANCH  24  25
ATOM     25  C   UNL     1       0.378   6.048  -1.388  0.00  0.00    +0.233 C 
ATOM     26  O   UNL     1       0.320   5.267  -2.314  0.00  0.00    -0.274 OA
ATOM     27  N   UNL     1       0.457   7.372  -1.627  0.00  0.00    -0.314 N 
ATOM     28  H   UNL     1       0.509   8.081  -0.787  0.00  0.00    +0.149 HD
BRANCH  27  29
ATOM     29  C   UNL     1       0.474   7.868  -3.006  0.00  0.00    +0.108 C 
BRANCH  29  30
ATOM     30  C   UNL     1       0.569   9.395  -2.997  0.00  0.00    +0.049 C 
BRANCH  30  31
ATOM     31  C   UNL     1       0.586   9.905  -4.415  0.00  0.00    -0.072 C 
ATOM     32  C   UNL     1      -0.537  10.274  -4.942  0.00  0.00    -0.028 C 
ATOM     33  C   UNL     1      -0.679  10.793  -6.343  0.00  0.00    +0.027 C 
ATOM     34  C   UNL     1       0.686  11.218  -6.888  0.00  0.00    +0.004 C 
ATOM     35  C   UNL     1       1.684  10.080  -6.638  0.00  0.00    +0.005 C 
ATOM     36  C   UNL     1       1.906   9.959  -5.128  0.00  0.00    +0.030 C 
ENDBRANCH  30  31
ENDBRANCH  29  30
ENDBRANCH  27  29
ENDBRANCH  24  25
ENDBRANCH   7  24
TORSDOF 7
