REMARK  Name = ZINC13496528
REMARK  4 active torsions:
REMARK  status: ('A' for Active; 'I' for Inactive)
REMARK    1  A    between atoms: C_1  and  C_2
REMARK    2  A    between atoms: N_13  and  C_16
REMARK    3  A    between atoms: C_16  and  C_17
REMARK    4  A    between atoms: N_19  and  N_20
REMARK                            x       y       z     vdW  Elec       q    Type
REMARK                         _______ _______ _______ _____ _____    ______ ____
ROOT
ATOM      1  C   UNL     1      -2.193  -7.375   0.399  0.00  0.00    +0.223 C 
ENDROOT
BRANCH   1  13
ATOM      2  C   UNL     1      -1.783   1.762  -0.550  0.00  0.00    +0.008 C 
ATOM      3  C   UNL     1      -1.484   0.262  -0.515  0.00  0.00    -0.009 C 
ATOM      4  C   UNL     1      -2.785  -0.517  -0.301  0.00  0.00    +0.008 C 
ATOM      5  C   UNL     1      -2.536  -2.010  -0.512  0.00  0.00    +0.037 C 
ATOM      6  C   UNL     1      -1.363  -2.445   0.363  0.00  0.00    -0.023 A 
ATOM      7  C   UNL     1      -0.497  -1.528   0.856  0.00  0.00    -0.004 A 
ATOM      8  S   UNL     1       0.682  -2.463   1.798  0.00  0.00    -0.073 S 
ATOM      9  C   UNL     1       0.013  -4.074   1.530  0.00  0.00    +0.116 A 
ATOM     10  C   UNL     1      -1.112  -3.831   0.712  0.00  0.00    +0.076 A 
ATOM     11  C   UNL     1      -1.886  -4.973   0.312  0.00  0.00    +0.263 A 
ATOM     12  O   UNL     1      -2.875  -4.871  -0.393  0.00  0.00    -0.267 OA
ATOM     13  N   UNL     1      -1.447  -6.169   0.769  0.00  0.00    -0.290 N 
ATOM     14  C   UNL     1      -0.351  -6.304   1.554  0.00  0.00    +0.203 A 
ATOM     15  N   UNL     1       0.383  -5.284   1.940  0.00  0.00    -0.230 NA
ATOM     16  C   UNL     1      -0.527  -0.045   0.646  0.00  0.00    +0.046 C 
ENDBRANCH   1  13
BRANCH   1  17
ATOM     17  C   UNL     1      -1.638  -7.933  -0.886  0.00  0.00    +0.252 C 
ATOM     18  O   UNL     1      -0.711  -7.379  -1.438  0.00  0.00    -0.272 OA
ATOM     19  N   UNL     1      -2.172  -9.048  -1.422  0.00  0.00    -0.205 N 
ATOM     20  H   UNL     1      -2.913  -9.492  -0.981  0.00  0.00    +0.177 HD
BRANCH  19  21
ATOM     21  N   UNL     1      -1.656  -9.568  -2.617  0.00  0.00    -0.174 NA
ATOM     22  C   UNL     1      -2.242 -10.588  -3.195  0.00  0.00    +0.152 C 
ATOM     23  C   UNL     1      -3.545 -11.199  -2.842  0.00  0.00    +0.028 A 
ATOM     24  C   UNL     1      -4.494 -10.919  -1.866  0.00  0.00    +0.012 A 
ATOM     25  C   UNL     1      -5.639 -11.687  -1.784  0.00  0.00    +0.001 A 
ATOM     26  C   UNL     1      -5.838 -12.732  -2.671  0.00  0.00    +0.002 A 
ATOM     27  C   UNL     1      -4.901 -13.017  -3.643  0.00  0.00    +0.024 A 
ATOM     28  C   UNL     1      -3.743 -12.255  -3.741  0.00  0.00    +0.043 A 
ATOM     29  N   UNL     1      -2.660 -12.328  -4.611  0.00  0.00    -0.280 N 
ATOM     30  C   UNL     1      -1.751 -11.374  -4.345  0.00  0.00    +0.269 C 
ATOM     31  O   UNL     1      -0.708 -11.192  -4.944  0.00  0.00    -0.268 OA
ATOM     32  H   UNL     1      -2.573 -12.982  -5.322  0.00  0.00    +0.155 HD
ENDBRANCH  19  21
ENDBRANCH   1  17
TORSDOF 3
