REMARK  Name = ZINC09616253
REMARK  11 active torsions:
REMARK  status: ('A' for Active; 'I' for Inactive)
REMARK    1  A    between atoms: C_1  and  O_2
REMARK    2  A    between atoms: O_2  and  C_3
REMARK    3  A    between atoms: C_6  and  C_11
REMARK    4  A    between atoms: C_8  and  O_9
REMARK    5  A    between atoms: O_9  and  C_10
REMARK    6  A    between atoms: C_11  and  C_12
REMARK    7  A    between atoms: C_12  and  N_13
REMARK    8  A    between atoms: C_14  and  C_16
REMARK    9  A    between atoms: C_16  and  N_17
REMARK   10  A    between atoms: N_26  and  C_29
REMARK   11  A    between atoms: C_29  and  C_30
REMARK                            x       y       z     vdW  Elec       q    Type
REMARK                         _______ _______ _______ _____ _____    ______ ____
ROOT
ATOM      1  N   UNL     1      -0.547   1.445  -6.082  0.00  0.00    -0.284 N 
ATOM      2  C   UNL     1      -0.196   2.667  -6.639  0.00  0.00    +0.059 A 
ATOM      3  C   UNL     1       0.815   3.448  -6.101  0.00  0.00    +0.028 A 
ATOM      4  C   UNL     1       1.133   4.657  -6.686  0.00  0.00    +0.022 A 
ATOM      5  C   UNL     1       0.450   5.100  -7.810  0.00  0.00    +0.042 A 
ATOM      6  C   UNL     1      -0.559   4.335  -8.360  0.00  0.00    +0.035 A 
ATOM      7  C   UNL     1      -0.889   3.114  -7.778  0.00  0.00    +0.065 A 
ATOM      8  C   UNL     1      -1.958   2.258  -8.325  0.00  0.00    +0.265 A 
ATOM      9  O   UNL     1      -2.587   2.599  -9.307  0.00  0.00    -0.267 OA
ATOM     10  N   UNL     1      -2.219   1.087  -7.705  0.00  0.00    -0.253 N 
ATOM     11  C   UNL     1      -1.526   0.701  -6.623  0.00  0.00    +0.333 A 
ATOM     12  O   UNL     1      -1.799  -0.366  -6.107  0.00  0.00    -0.246 OA
ATOM     13 CL   UNL     1       0.868   6.624  -8.529  0.00  0.00    -0.084 Cl
ENDROOT
BRANCH   1  14
ATOM     14  C   UNL     1       0.162   0.960  -4.895  0.00  0.00    +0.222 C 
BRANCH  14  16
ATOM     15  N   UNL     1      -0.067   1.120  -2.437  0.00  0.00    -0.314 N 
ATOM     16  C   UNL     1      -0.543   1.446  -3.655  0.00  0.00    +0.233 C 
ATOM     17  O   UNL     1      -1.540   2.130  -3.753  0.00  0.00    -0.274 OA
ATOM     18  H   UNL     1       0.730   0.573  -2.358  0.00  0.00    +0.149 HD
BRANCH  15  19
ATOM     19  C   UNL     1      -0.753   1.593  -1.232  0.00  0.00    +0.109 C 
BRANCH  19  20
ATOM     20  C   UNL     1      -0.013   1.086   0.008  0.00  0.00    +0.054 C 
BRANCH  20  24
ATOM     21  C   UNL     1      -2.011   2.470   3.526  0.00  0.00    +0.161 A 
ATOM     22  C   UNL     1      -1.006   3.232   2.952  0.00  0.00    +0.049 A 
ATOM     23  C   UNL     1      -0.359   2.779   1.817  0.00  0.00    +0.007 A 
ATOM     24  C   UNL     1      -0.718   1.572   1.248  0.00  0.00    -0.042 A 
ATOM     25  C   UNL     1      -1.719   0.807   1.817  0.00  0.00    +0.053 A 
ATOM     26  C   UNL     1      -2.369   1.252   2.957  0.00  0.00    +0.162 A 
BRANCH  21  28
ATOM     27  C   UNL     1      -2.226   4.171   5.175  0.00  0.00    +0.277 C 
ATOM     28  O   UNL     1      -2.646   2.912   4.645  0.00  0.00    -0.491 OA
ENDBRANCH  21  28
BRANCH  26  29
ATOM     29  O   UNL     1      -3.354   0.501   3.517  0.00  0.00    -0.491 OA
ATOM     30  C   UNL     1      -3.669  -0.738   2.877  0.00  0.00    +0.277 C 
ENDBRANCH  26  29
ENDBRANCH  20  24
ENDBRANCH  19  20
ENDBRANCH  15  19
ENDBRANCH  14  16
ENDBRANCH   1  14
BRANCH  10  31
ATOM     31  C   UNL     1      -3.277   0.218  -8.229  0.00  0.00    +0.204 C 
BRANCH  31  32
ATOM     32  C   UNL     1      -2.691  -0.732  -9.241  0.00  0.00    +0.125 A 
ATOM     33  C   UNL     1      -2.180  -1.948  -8.975  0.00  0.00    +0.046 A 
ATOM     34  C   UNL     1      -1.749  -2.489 -10.208  0.00  0.00    +0.041 A 
ATOM     35  C   UNL     1      -2.014  -1.569 -11.152  0.00  0.00    +0.195 A 
ATOM     36  O   UNL     1      -2.585  -0.506 -10.561  0.00  0.00    -0.466 OA
ENDBRANCH  31  32
ENDBRANCH  10  31
TORSDOF 9
