REMARK  Name = ZINC63579812
REMARK  5 active torsions:
REMARK  status: ('A' for Active; 'I' for Inactive)
REMARK    1  A    between atoms: C_1  and  C_2
REMARK    2  A    between atoms: C_7  and  O_8
REMARK    3  A    between atoms: O_8  and  C_9
REMARK    4  A    between atoms: C_9  and  C_10
REMARK    5  A    between atoms: C_16  and  C_21
REMARK                            x       y       z     vdW  Elec       q    Type
REMARK                         _______ _______ _______ _____ _____    ______ ____
ROOT
ATOM      1  C   UNL     1       0.131   0.633   4.715  0.00  0.00    +0.137 A 
ATOM      2  N   UNL     1       0.757   0.893   5.891  0.00  0.00    -0.308 N 
ATOM      3  H   UNL     1       1.716   0.764   5.958  0.00  0.00    +0.170 HD
ATOM      4  C   UNL     1       0.073   1.327   6.966  0.00  0.00    +0.261 A 
ATOM      5  O   UNL     1       0.650   1.556   8.015  0.00  0.00    -0.267 OA
ATOM      6  C   UNL     1      -1.341   1.514   6.859  0.00  0.00    +0.083 A 
ATOM      7  C   UNL     1      -2.291   1.970   7.869  0.00  0.00    +0.039 A 
ATOM      8  C   UNL     1      -3.601   2.071   7.532  0.00  0.00    +0.059 A 
ATOM      9  S   UNL     1      -3.629   1.556   5.825  0.00  0.00    -0.076 S 
ATOM     10  C   UNL     1      -1.901   1.219   5.606  0.00  0.00    +0.116 A 
ATOM     11  N   UNL     1      -1.158   0.799   4.585  0.00  0.00    -0.224 NA
ENDROOT
BRANCH   7  12
ATOM     12  C   UNL     1      -1.835   2.313   9.231  0.00  0.00    +0.136 A 
ATOM     13  C   UNL     1      -2.133   3.454   9.909  0.00  0.00    +0.050 A 
ATOM     14  C   UNL     1      -1.493   3.361  11.162  0.00  0.00    +0.042 A 
ATOM     15  C   UNL     1      -0.843   2.182  11.187  0.00  0.00    +0.196 A 
ATOM     16  O   UNL     1      -1.056   1.548  10.021  0.00  0.00    -0.463 OA
ENDBRANCH   7  12
BRANCH   1  17
ATOM     17  C   UNL     1       0.938   0.149   3.537  0.00  0.00    +0.234 C 
BRANCH  17  18
ATOM     18  O   UNL     1       0.073  -0.050   2.417  0.00  0.00    -0.369 OA
BRANCH  18  25
ATOM     19  C   UNL     1      -0.019   1.526   0.010  0.00  0.00    +0.010 C 
ATOM     20  C   UNL     1       0.002  -0.004   0.002  0.00  0.00    +0.015 C 
ATOM     21  C   UNL     1       0.718  -0.497  -1.257  0.00  0.00    +0.006 C 
ATOM     22  C   UNL     1       0.739  -2.027  -1.265  0.00  0.00    +0.000 C 
ATOM     23  C   UNL     1       1.479  -2.534  -0.026  0.00  0.00    +0.003 C 
ATOM     24  C   UNL     1       0.763  -2.041   1.233  0.00  0.00    +0.032 C 
ATOM     25  C   UNL     1       0.742  -0.511   1.242  0.00  0.00    +0.122 C 
ENDBRANCH  18  25
ENDBRANCH  17  18
ENDBRANCH   1  17
TORSDOF 4
