REMARK  Name = ZINC03131577
REMARK  3 active torsions:
REMARK  status: ('A' for Active; 'I' for Inactive)
REMARK    1  A    between atoms: C_4  and  S_7
REMARK    2  A    between atoms: S_7  and  O_10
REMARK    3  A    between atoms: O_10  and  C_11
REMARK                            x       y       z     vdW  Elec       q    Type
REMARK                         _______ _______ _______ _____ _____    ______ ____
ROOT
ATOM      1  C   UNL     1       0.002  -0.004   0.002  0.00  0.00    +0.172 A 
ATOM      2  C   UNL     1      -0.017   1.385   0.010  0.00  0.00    +0.068 A 
ATOM      3  C   UNL     1       1.167   2.078   0.002  0.00  0.00    +0.065 A 
ATOM      4  C   UNL     1       2.419   1.445  -0.013  0.00  0.00    +0.148 A 
ATOM      5  C   UNL     1       2.410   0.042  -0.021  0.00  0.00    +0.066 A 
ATOM      6  C   UNL     1       1.227  -0.659  -0.013  0.00  0.00    +0.066 A 
ATOM      7 BR   UNL     1       1.268  -2.550  -0.023  0.00  0.00    -0.046 Br
ATOM      8  O   UNL     1       3.497   2.256  -0.019  0.00  0.00    -0.416 OA
ATOM      9  C   UNL     1       3.372   3.596  -0.010  0.00  0.00    +0.379 A 
ATOM     10  O   UNL     1       4.241   4.446  -0.014  0.00  0.00    -0.237 OA
ATOM     11  S   UNL     1       1.597   3.803   0.008  0.00  0.00    -0.004 S 
ENDROOT
BRANCH   1  12
ATOM     12  O   UNL     1      -1.159  -0.711   0.010  0.00  0.00    -0.341 OA
BRANCH  12  13
ATOM     13  S   UNL     1      -1.702  -1.025  -1.377  0.00  0.00    +0.151 S 
ATOM     14  O   UNL     1      -3.001  -1.572  -1.191  0.00  0.00    -0.131 OA
ATOM     15  O   UNL     1      -1.468   0.127  -2.175  0.00  0.00    -0.131 OA
BRANCH  13  19
ATOM     16  C   UNL     1       0.861  -4.336  -3.099  0.00  0.00    +0.000 A 
ATOM     17  C   UNL     1      -0.268  -4.647  -2.362  0.00  0.00    +0.002 A 
ATOM     18  C   UNL     1      -1.050  -3.636  -1.837  0.00  0.00    +0.030 A 
ATOM     19  C   UNL     1      -0.705  -2.314  -2.047  0.00  0.00    +0.128 A 
ATOM     20  C   UNL     1       0.420  -2.003  -2.788  0.00  0.00    +0.030 A 
ATOM     21  C   UNL     1       1.206  -3.014  -3.309  0.00  0.00    +0.002 A 
ENDBRANCH  13  19
ENDBRANCH  12  13
ENDBRANCH   1  12
TORSDOF 3
