REMARK  Name = ZINC11790524
REMARK  6 active torsions:
REMARK  status: ('A' for Active; 'I' for Inactive)
REMARK    1  A    between atoms: C_5  and  C_7
REMARK    2  A    between atoms: C_7  and  N_8
REMARK    3  A    between atoms: C_19  and  N_53
REMARK    4  A    between atoms: C_23  and  C_24
REMARK    5  A    between atoms: C_23  and  N_53
REMARK    6  A    between atoms: C_26  and  C_31
REMARK                            x       y       z     vdW  Elec       q    Type
REMARK                         _______ _______ _______ _____ _____    ______ ____
ROOT
ATOM      1  N   UNL     1       5.203   3.494  -1.927  0.00  0.00    -0.293 N 
ATOM      2  C   UNL     1       5.689   2.753  -2.951  0.00  0.00    +0.203 A 
ATOM      3  N   UNL     1       5.103   1.659  -3.385  0.00  0.00    -0.230 NA
ATOM      4  C   UNL     1       3.983   1.283  -2.777  0.00  0.00    +0.116 A 
ATOM      5  C   UNL     1       3.397   1.988  -1.702  0.00  0.00    +0.076 A 
ATOM      6  C   UNL     1       4.069   3.176  -1.258  0.00  0.00    +0.263 A 
ATOM      7  O   UNL     1       3.646   3.856  -0.339  0.00  0.00    -0.267 OA
ATOM      8  C   UNL     1       2.172   1.428  -1.161  0.00  0.00    -0.023 A 
ATOM      9  C   UNL     1       1.716   0.292  -1.739  0.00  0.00    -0.006 A 
ATOM     10  S   UNL     1       2.889  -0.080  -3.019  0.00  0.00    -0.073 S 
ATOM     11  C   UNL     1       0.487  -0.481  -1.374  0.00  0.00    +0.027 C 
ATOM     12  C   UNL     1       0.002  -0.004   0.002  0.00  0.00    -0.066 C 
ATOM     13  C   UNL     1      -0.019   1.527   0.010  0.00  0.00    -0.011 C 
ATOM     14  C   UNL     1       1.412   2.066  -0.000  0.00  0.00    +0.035 C 
ENDROOT
BRANCH  12  15
ATOM     15  N   UNL     1      -1.361  -0.511   0.251  0.00  0.00    +0.384 N 
ATOM     16  H   UNL     1      -1.877  -0.543  -0.636  0.00  0.00    -0.085 HD
ATOM     17  H   UNL     1      -1.841   0.117   0.905  0.00  0.00    -0.085 HD
BRANCH  15  18
ATOM     18  C   UNL     1      -1.304  -1.867   0.830  0.00  0.00    -0.043 C 
BRANCH  18  19
ATOM     19  C   UNL     1      -2.708  -2.358   1.073  0.00  0.00    -0.029 A 
ATOM     20  C   UNL     1      -3.264  -3.305   0.233  0.00  0.00    +0.017 A 
ATOM     21  C   UNL     1      -4.552  -3.756   0.456  0.00  0.00    +0.055 A 
ATOM     22  C   UNL     1      -5.285  -3.261   1.519  0.00  0.00    +0.015 A 
ATOM     23  C   UNL     1      -4.731  -2.315   2.360  0.00  0.00    +0.039 A 
ATOM     24  C   UNL     1      -3.439  -1.866   2.141  0.00  0.00    +0.125 A 
ATOM     25  F   UNL     1      -2.894  -0.945   2.965  0.00  0.00    -0.205 F 
BRANCH  21  26
ATOM     26  C   UNL     1      -5.157  -4.789  -0.460  0.00  0.00    +0.417 C 
ATOM     27  F   UNL     1      -4.874  -6.069   0.028  0.00  0.00    -0.166 F 
ATOM     28  F   UNL     1      -6.543  -4.607  -0.516  0.00  0.00    -0.166 F 
ATOM     29  F   UNL     1      -4.616  -4.648  -1.743  0.00  0.00    -0.166 F 
ENDBRANCH  21  26
ENDBRANCH  18  19
ENDBRANCH  15  18
ENDBRANCH  12  15
BRANCH   1  30
ATOM     30  C   UNL     1       5.937   4.696  -1.524  0.00  0.00    +0.181 C 
BRANCH  30  35
ATOM     31  C   UNL     1       9.174   3.730   0.148  0.00  0.00    +0.003 A 
ATOM     32  C   UNL     1       8.749   3.690   1.467  0.00  0.00    +0.020 A 
ATOM     33  C   UNL     1       7.429   3.978   1.758  0.00  0.00    +0.111 A 
ATOM     34  N   UNL     1       6.580   4.293   0.799  0.00  0.00    -0.258 NA
ATOM     35  C   UNL     1       6.948   4.336  -0.466  0.00  0.00    +0.061 A 
ATOM     36  C   UNL     1       8.252   4.060  -0.833  0.00  0.00    +0.025 A 
ENDBRANCH  30  35
ENDBRANCH   1  30
TORSDOF 6
