REMARK  Name = ZINC52618868
REMARK  9 active torsions:
REMARK  status: ('A' for Active; 'I' for Inactive)
REMARK    1  A    between atoms: C_1  and  C_2
REMARK    2  A    between atoms: C_2  and  C_3
REMARK    3  A    between atoms: C_3  and  C_4
REMARK    4  A    between atoms: C_4  and  C_5
REMARK    5  A    between atoms: C_9  and  C_37
REMARK    6  A    between atoms: C_11  and  C_36
REMARK    7  A    between atoms: N_14  and  C_15
REMARK    8  A    between atoms: C_23  and  C_25
REMARK    9  A    between atoms: C_30  and  C_31
REMARK                            x       y       z     vdW  Elec       q    Type
REMARK                         _______ _______ _______ _____ _____    ______ ____
ROOT
ATOM      1  C   UNL     1       2.075  -4.877  -1.572  0.00  0.00    +0.107 C 
ATOM      2  C   UNL     1       0.989  -5.539  -0.699  0.00  0.00    +0.032 C 
ATOM      3  C   UNL     1       0.887  -4.570   0.497  0.00  0.00    +0.037 C 
ATOM      4  C   UNL     1       2.244  -3.903   0.584  0.00  0.00    -0.042 A 
ATOM      5  C   UNL     1       2.929  -4.080  -0.608  0.00  0.00    -0.024 A 
ATOM      6  C   UNL     1       4.202  -3.554  -0.764  0.00  0.00    +0.006 A 
ATOM      7  C   UNL     1       4.797  -2.852   0.263  0.00  0.00    +0.009 A 
ATOM      8  C   UNL     1       4.115  -2.670   1.464  0.00  0.00    -0.017 A 
ATOM      9  C   UNL     1       2.830  -3.201   1.620  0.00  0.00    +0.012 A 
ENDROOT
BRANCH   1  18
ATOM     10  C   UNL     1       1.546  -2.523  -2.583  0.00  0.00    +0.160 C 
ATOM     11  N   UNL     1       0.776  -2.094  -3.757  0.00  0.00    -0.323 N 
ATOM     12  C   UNL     1       0.279  -3.251  -4.369  0.00  0.00    +0.070 A 
ATOM     13  C   UNL     1      -0.506  -3.414  -5.504  0.00  0.00    -0.025 A 
ATOM     14  C   UNL     1      -0.857  -4.701  -5.889  0.00  0.00    +0.026 A 
ATOM     15  C   UNL     1      -0.418  -5.771  -5.136  0.00  0.00    +0.015 A 
ATOM     16  N   UNL     1       0.326  -5.589  -4.063  0.00  0.00    -0.346 N 
ATOM     17  C   UNL     1       0.687  -4.378  -3.656  0.00  0.00    +0.123 A 
ATOM     18  N   UNL     1       1.461  -3.988  -2.561  0.00  0.00    -0.290 N 
ATOM     19  C   UNL     1      -0.795  -7.171  -5.548  0.00  0.00    +0.063 C 
ATOM     20  C   UNL     1      -0.966  -2.220  -6.300  0.00  0.00    +0.046 C 
ATOM     21  H   UNL     1       0.637  -1.181  -4.052  0.00  0.00    +0.148 HD
ATOM     22  H   UNL     1       0.618  -6.362  -3.555  0.00  0.00    +0.167 HD
BRANCH  10  23
ATOM     23  C   UNL     1       0.934  -1.940  -1.308  0.00  0.00    +0.042 C 
BRANCH  23  24
ATOM     24  C   UNL     1       1.007  -0.412  -1.359  0.00  0.00    +0.003 C 
BRANCH  24  26
ATOM     25  C   UNL     1       0.467   1.698  -0.136  0.00  0.00    +0.004 C 
ATOM     26  C   UNL     1       0.395   0.171  -0.084  0.00  0.00    -0.003 C 
ENDBRANCH  24  26
ENDBRANCH  23  24
ENDBRANCH  10  23
ENDBRANCH   1  18
BRANCH   8  27
ATOM     27  C   UNL     1       4.747  -1.916   2.573  0.00  0.00    -0.007 A 
ATOM     28  C   UNL     1       4.051  -0.893   3.211  0.00  0.00    +0.009 A 
ATOM     29  C   UNL     1       4.643  -0.194   4.243  0.00  0.00    +0.001 A 
ATOM     30  C   UNL     1       5.930  -0.503   4.651  0.00  0.00    +0.001 A 
ATOM     31  C   UNL     1       6.635  -1.514   4.031  0.00  0.00    +0.012 A 
ATOM     32  C   UNL     1       6.050  -2.235   2.991  0.00  0.00    +0.030 A 
BRANCH  32  33
ATOM     33  C   UNL     1       6.799  -3.323   2.327  0.00  0.00    +0.207 A 
ATOM     34  N   UNL     1       6.373  -4.085   1.317  0.00  0.00    -0.106 NA
ATOM     35  N   UNL     1       7.320  -4.911   1.030  0.00  0.00    -0.021 NA
ATOM     36  N   UNL     1       8.320  -4.701   1.814  0.00  0.00    -0.021 NA
ATOM     37  N   UNL     1       8.036  -3.733   2.616  0.00  0.00    -0.106 NA
ENDBRANCH  32  33
ENDBRANCH   8  27
TORSDOF 6
