REMARK  Name = ZINC13572152
REMARK  7 active torsions:
REMARK  status: ('A' for Active; 'I' for Inactive)
REMARK    1  A    between atoms: C_1  and  C_2
REMARK    2  A    between atoms: C_2  and  C_3
REMARK    3  A    between atoms: C_3  and  C_4
REMARK    4  A    between atoms: C_4  and  N_5
REMARK    5  A    between atoms: C_10  and  C_28
REMARK    6  A    between atoms: C_28  and  C_29
REMARK    7  A    between atoms: C_32  and  O_35
REMARK                            x       y       z     vdW  Elec       q    Type
REMARK                         _______ _______ _______ _____ _____    ______ ____
ROOT
ATOM      1  N   UNL     1       1.425  -2.500  -2.470  0.00  0.00    -0.242 N 
ATOM      2  C   UNL     1       0.789  -2.748  -3.654  0.00  0.00    +0.227 C 
ATOM      3  O   UNL     1      -0.316  -2.376  -3.983  0.00  0.00    -0.275 OA
ATOM      4  C   UNL     1       1.745  -3.581  -4.464  0.00  0.00    +0.107 C 
ATOM      5  C   UNL     1       1.931  -3.270  -5.954  0.00  0.00    +0.072 C 
ATOM      6  N   UNL     1       3.384  -3.576  -6.176  0.00  0.00    -0.295 NA
ATOM      7  C   UNL     1       4.086  -3.372  -4.871  0.00  0.00    +0.136 C 
ATOM      8  C   UNL     1       3.059  -2.869  -3.944  0.00  0.00    +0.122 C 
ATOM      9  C   UNL     1       2.776  -2.735  -2.534  0.00  0.00    +0.228 C 
ATOM     10  O   UNL     1       3.558  -2.814  -1.611  0.00  0.00    -0.275 OA
ATOM     11  C   UNL     1       4.704  -4.672  -4.426  0.00  0.00    +0.006 A 
ATOM     12  C   UNL     1       4.178  -5.898  -4.085  0.00  0.00    +0.046 A 
ATOM     13  C   UNL     1       5.019  -6.931  -3.704  0.00  0.00    +0.124 A 
ATOM     14  C   UNL     1       6.389  -6.726  -3.670  0.00  0.00    +0.040 A 
ATOM     15  C   UNL     1       6.918  -5.500  -4.014  0.00  0.00    +0.026 A 
ATOM     16  C   UNL     1       6.078  -4.456  -4.397  0.00  0.00    +0.039 A 
ATOM     17  N   UNL     1       6.369  -3.146  -4.786  0.00  0.00    -0.283 N 
ATOM     18  C   UNL     1       5.259  -2.445  -5.080  0.00  0.00    +0.243 C 
ATOM     19  O   UNL     1       5.210  -1.289  -5.444  0.00  0.00    -0.273 OA
ATOM     20  F   UNL     1       4.506  -8.134  -3.367  0.00  0.00    -0.205 F 
ATOM     21  H   UNL     1       3.507  -4.520  -6.509  0.00  0.00    +0.124 HD
ATOM     22  H   UNL     1       7.267  -2.784  -4.838  0.00  0.00    +0.155 HD
ENDROOT
BRANCH   1  23
ATOM     23  C   UNL     1       0.739  -2.027  -1.265  0.00  0.00    +0.116 C 
BRANCH  23  24
ATOM     24  C   UNL     1       0.718  -0.497  -1.257  0.00  0.00    +0.019 C 
BRANCH  24  26
ATOM     25  C   UNL     1      -0.019   1.526   0.010  0.00  0.00    +0.004 C 
ATOM     26  C   UNL     1       0.002  -0.004   0.002  0.00  0.00    -0.002 C 
ENDBRANCH  24  26
ENDBRANCH  23  24
ENDBRANCH   1  23
BRANCH   5  27
ATOM     27  C   UNL     1       1.045  -4.175  -6.812  0.00  0.00    +0.054 C 
BRANCH  27  28
ATOM     28  C   UNL     1       1.157  -3.764  -8.258  0.00  0.00    -0.046 A 
ATOM     29  C   UNL     1       0.297  -2.812  -8.774  0.00  0.00    +0.007 A 
ATOM     30  C   UNL     1       0.398  -2.434 -10.099  0.00  0.00    +0.045 A 
ATOM     31  C   UNL     1       1.364  -3.010 -10.912  0.00  0.00    +0.117 A 
ATOM     32  C   UNL     1       2.226  -3.964 -10.391  0.00  0.00    +0.045 A 
ATOM     33  C   UNL     1       2.124  -4.335  -9.065  0.00  0.00    +0.007 A 
BRANCH  31  34
ATOM     34  O   UNL     1       1.464  -2.640 -12.215  0.00  0.00    -0.507 OA
ATOM     35  H   UNL     1       2.063  -1.896 -12.368  0.00  0.00    +0.292 HD
ENDBRANCH  31  34
ENDBRANCH  27  28
ENDBRANCH   5  27
TORSDOF 6
