REMARK  Name = ZINC39652740
REMARK  11 active torsions:
REMARK  status: ('A' for Active; 'I' for Inactive)
REMARK    1  A    between atoms: C_1  and  C_2
REMARK    2  A    between atoms: C_2  and  O_3
REMARK    3  A    between atoms: O_3  and  C_4
REMARK    4  A    between atoms: C_9  and  C_10
REMARK    5  A    between atoms: C_10  and  C_11
REMARK    6  A    between atoms: C_11  and  N_12
REMARK    7  A    between atoms: C_13  and  C_15
REMARK    8  A    between atoms: C_26  and  C_28
REMARK    9  A    between atoms: C_28  and  C_29
REMARK   10  A    between atoms: C_29  and  C_30
REMARK   11  A    between atoms: C_30  and  C_31
REMARK                            x       y       z     vdW  Elec       q    Type
REMARK                         _______ _______ _______ _____ _____    ______ ____
ROOT
ATOM      1  C   UNL     1       1.385   1.241   7.501  0.00  0.00    +0.100 C 
ATOM      2  C   UNL     1       2.406   0.478   8.374  0.00  0.00    +0.121 C 
ATOM      3  N   UNL     1       2.219   1.028   9.737  0.00  0.00    -0.300 N 
ATOM      4  C   UNL     1       0.752   1.202   9.866  0.00  0.00    +0.115 C 
ATOM      5  C   UNL     1       0.301   1.714   8.484  0.00  0.00    -0.004 C 
ATOM      6  C   UNL     1       0.219   3.238   8.486  0.00  0.00    -0.010 C 
ATOM      7  C   UNL     1      -0.904   3.682   9.428  0.00  0.00    -0.082 C 
ATOM      8  N   UNL     1      -2.177   3.104   8.981  0.00  0.00    +0.379 N 
ATOM      9  C   UNL     1      -2.121   1.640   9.069  0.00  0.00    -0.082 C 
ATOM     10  C   UNL     1      -1.050   1.109   8.112  0.00  0.00    -0.010 C 
ATOM     11  C   UNL     1       3.167   1.307  10.653  0.00  0.00    +0.216 C 
ATOM     12  O   UNL     1       2.852   1.757  11.734  0.00  0.00    -0.276 OA
ATOM     13  H   UNL     1      -2.925   3.446   9.566  0.00  0.00    -0.086 HD
ATOM     14  H   UNL     1      -2.351   3.375   8.025  0.00  0.00    -0.086 HD
ENDROOT
BRANCH   1  16
ATOM     15  N   UNL     1       0.358   0.822   5.290  0.00  0.00    -0.315 N 
ATOM     16  C   UNL     1       0.790   0.323   6.465  0.00  0.00    +0.218 C 
ATOM     17  O   UNL     1       0.700  -0.866   6.689  0.00  0.00    -0.275 OA
ATOM     18  H   UNL     1       0.430   1.772   5.111  0.00  0.00    +0.149 HD
BRANCH  15  19
ATOM     19  C   UNL     1      -0.221  -0.071   4.283  0.00  0.00    +0.109 C 
BRANCH  19  20
ATOM     20  C   UNL     1      -0.627   0.742   3.053  0.00  0.00    +0.057 C 
BRANCH  20  26
ATOM     21  C   UNL     1      -2.568  -0.510   2.076  0.00  0.00    +0.124 A 
ATOM     22  C   UNL     1      -3.114  -1.352   1.118  0.00  0.00    +0.046 A 
ATOM     23  C   UNL     1      -2.316  -1.860   0.112  0.00  0.00    +0.004 A 
ATOM     24  C   UNL     1      -0.974  -1.530   0.058  0.00  0.00    +0.000 A 
ATOM     25  C   UNL     1      -0.428  -0.692   1.012  0.00  0.00    +0.007 A 
ATOM     26  C   UNL     1      -1.223  -0.176   2.018  0.00  0.00    -0.004 A 
BRANCH  21  27
ATOM     27  O   UNL     1      -3.351  -0.009   3.068  0.00  0.00    -0.492 OA
BRANCH  27  29
ATOM     28  C   UNL     1      -5.442   0.263   4.247  0.00  0.00    +0.048 C 
ATOM     29  C   UNL     1      -4.726  -0.395   3.066  0.00  0.00    +0.225 C 
ENDBRANCH  27  29
ENDBRANCH  21  27
ENDBRANCH  20  26
ENDBRANCH  19  20
ENDBRANCH  15  19
ENDBRANCH   1  16
BRANCH  11  30
ATOM     30  C   UNL     1       4.619   1.061  10.334  0.00  0.00    +0.096 C 
BRANCH  30  31
ATOM     31  C   UNL     1       5.480   1.459  11.534  0.00  0.00    +0.014 C 
BRANCH  31  32
ATOM     32  C   UNL     1       6.954   1.208  11.209  0.00  0.00    +0.035 C 
BRANCH  32  33
ATOM     33  C   UNL     1       7.802   1.601  12.392  0.00  0.00    -0.047 A 
ATOM     34  C   UNL     1       8.280   2.893  12.502  0.00  0.00    +0.003 A 
ATOM     35  C   UNL     1       9.058   3.253  13.586  0.00  0.00    +0.000 A 
ATOM     36  C   UNL     1       9.358   2.320  14.561  0.00  0.00    +0.000 A 
ATOM     37  C   UNL     1       8.880   1.028  14.452  0.00  0.00    +0.000 A 
ATOM     38  C   UNL     1       8.098   0.669  13.369  0.00  0.00    +0.003 A 
ENDBRANCH  32  33
ENDBRANCH  31  32
ENDBRANCH  30  31
ENDBRANCH  11  30
TORSDOF 10
