REMARK  Name = ZINC57456420
REMARK  3 active torsions:
REMARK  status: ('A' for Active; 'I' for Inactive)
REMARK    1  A    between atoms: C_1  and  C_2
REMARK    2  A    between atoms: C_5  and  C_8
REMARK    3  A    between atoms: C_25  and  C_27
REMARK                            x       y       z     vdW  Elec       q    Type
REMARK                         _______ _______ _______ _____ _____    ______ ____
ROOT
ATOM      1  C   UNL     1       0.068  -4.300  -0.040  0.00  0.00    +0.215 C 
ATOM      2  C   UNL     1      -1.345  -4.820   0.225  0.00  0.00    +0.113 C 
ATOM      3  C   UNL     1      -1.729  -4.270   1.589  0.00  0.00    +0.065 C 
ATOM      4  C   UNL     1      -0.722  -4.377   2.651  0.00  0.00    +0.039 A 
ATOM      5  C   UNL     1      -1.062  -4.234   3.996  0.00  0.00    +0.013 A 
ATOM      6  C   UNL     1      -0.081  -4.334   4.960  0.00  0.00    +0.001 A 
ATOM      7  C   UNL     1       1.234  -4.574   4.594  0.00  0.00    +0.004 A 
ATOM      8  C   UNL     1       1.581  -4.720   3.265  0.00  0.00    +0.046 A 
ATOM      9  C   UNL     1       0.611  -4.628   2.278  0.00  0.00    +0.130 A 
ATOM     10  O   UNL     1       0.949  -4.786   0.976  0.00  0.00    -0.483 OA
ATOM     11  N   UNL     1      -2.869  -3.684   1.750  0.00  0.00    -0.215 NA
ATOM     12  C   UNL     1      -3.745  -3.417   0.750  0.00  0.00    +0.249 A 
ATOM     13  N   UNL     1      -4.949  -2.855   0.796  0.00  0.00    -0.198 NA
ATOM     14  C   UNL     1      -5.448  -2.752  -0.431  0.00  0.00    +0.247 A 
ATOM     15  N   UNL     1      -4.594  -3.247  -1.290  0.00  0.00    -0.156 NA
ATOM     16  N   UNL     1      -3.495  -3.703  -0.552  0.00  0.00    -0.221 N 
ATOM     17  C   UNL     1      -2.255  -4.392  -0.940  0.00  0.00    +0.155 C 
ENDROOT
BRANCH  17  18
ATOM     18  C   UNL     1      -1.468  -3.478  -1.844  0.00  0.00    -0.004 A 
ATOM     19  C   UNL     1      -0.425  -3.982  -2.598  0.00  0.00    +0.008 A 
ATOM     20  C   UNL     1       0.296  -3.144  -3.427  0.00  0.00    +0.020 A 
ATOM     21  C   UNL     1      -0.025  -1.800  -3.502  0.00  0.00    +0.042 A 
ATOM     22  C   UNL     1      -1.069  -1.295  -2.748  0.00  0.00    +0.040 A 
ATOM     23  C   UNL     1      -1.794  -2.135  -1.922  0.00  0.00    +0.048 A 
ATOM     24 CL   UNL     1      -3.108  -1.504  -0.980  0.00  0.00    -0.083 Cl
ATOM     25 CL   UNL     1       0.882  -0.748  -4.543  0.00  0.00    -0.083 Cl
ENDBRANCH  17  18
BRANCH   1  30
ATOM     26  C   UNL     1       0.038   1.478   0.030  0.00  0.00    +0.044 C 
ATOM     27  C   UNL     1       0.046  -0.029   0.012  0.00  0.00    -0.050 A 
ATOM     28  C   UNL     1       1.169  -0.709  -0.421  0.00  0.00    +0.004 A 
ATOM     29  C   UNL     1       1.176  -2.091  -0.438  0.00  0.00    +0.007 A 
ATOM     30  C   UNL     1       0.060  -2.793  -0.021  0.00  0.00    -0.007 A 
ATOM     31  C   UNL     1      -1.062  -2.113   0.413  0.00  0.00    +0.007 A 
ATOM     32  C   UNL     1      -1.067  -0.731   0.434  0.00  0.00    +0.004 A 
ENDBRANCH   1  30
TORSDOF 2
