REMARK  Name = ZINC56956091
REMARK  12 active torsions:
REMARK  status: ('A' for Active; 'I' for Inactive)
REMARK    1  A    between atoms: C_1  and  C_2
REMARK    2  A    between atoms: C_3  and  C_35
REMARK    3  A    between atoms: C_4  and  C_26
REMARK    4  A    between atoms: C_6  and  C_17
REMARK    5  A    between atoms: C_7  and  C_16
REMARK    6  A    between atoms: N_8  and  C_9
REMARK    7  A    between atoms: C_9  and  C_10
REMARK    8  A    between atoms: C_17  and  O_19
REMARK    9  A    between atoms: O_19  and  C_20
REMARK   10  A    between atoms: C_30  and  N_32
REMARK   11  A    between atoms: C_35  and  O_37
REMARK   12  A    between atoms: O_37  and  C_38
REMARK                            x       y       z     vdW  Elec       q    Type
REMARK                         _______ _______ _______ _____ _____    ______ ____
ROOT
ATOM      1  C   UNL     1      -0.215   1.461  -0.392  0.00  0.00    +0.061 C 
ATOM      2  C   UNL     1      -0.091  -0.028  -0.193  0.00  0.00    +0.019 C 
ATOM      3  C   UNL     1      -0.223  -0.851  -1.247  0.00  0.00    +0.065 C 
ATOM      4  C   UNL     1      -0.099  -2.341  -1.097  0.00  0.00    +0.096 C 
ATOM      5  C   UNL     1      -0.213  -2.742   0.346  0.00  0.00    +0.065 C 
ATOM      6  C   UNL     1      -0.081  -1.843   1.336  0.00  0.00    +0.019 C 
ATOM      7  N   UNL     1       0.161  -0.524   1.057  0.00  0.00    -0.302 N 
ATOM      8  C   UNL     1      -0.194  -2.292   2.770  0.00  0.00    +0.061 C 
ENDROOT
BRANCH   4   9
ATOM      9  C   UNL     1       1.240  -2.783  -1.629  0.00  0.00    -0.033 A 
ATOM     10  C   UNL     1       2.404  -2.294  -1.066  0.00  0.00    +0.005 A 
ATOM     11  C   UNL     1       3.632  -2.699  -1.554  0.00  0.00    +0.003 A 
ATOM     12  C   UNL     1       3.696  -3.595  -2.605  0.00  0.00    +0.033 A 
ATOM     13  C   UNL     1       2.533  -4.085  -3.168  0.00  0.00    +0.126 A 
ATOM     14  C   UNL     1       1.305  -3.683  -2.677  0.00  0.00    +0.037 A 
BRANCH  13  15
ATOM     15  N   UNL     1       2.602  -5.043  -4.294  0.00  0.00    +0.056 N 
ATOM     16  O   UNL     1       3.676  -5.397  -4.721  0.00  0.00    -0.126 OA
ATOM     17  O   UNL     1       1.584  -5.472  -4.786  0.00  0.00    -0.126 OA
ENDBRANCH  13  15
ENDBRANCH   4   9
BRANCH   5  18
ATOM     18  C   UNL     1      -0.466  -4.095   0.670  0.00  0.00    +0.338 C 
ATOM     19  O   UNL     1      -0.666  -4.417   1.827  0.00  0.00    -0.245 OA
BRANCH  18  20
ATOM     20  O   UNL     1      -0.486  -5.030  -0.303  0.00  0.00    -0.460 OA
BRANCH  20  21
ATOM     21  C   UNL     1      -0.747  -6.377   0.096  0.00  0.00    +0.158 C 
ATOM     22  C   UNL     1      -2.259  -6.701  -0.026  0.00  0.00    +0.024 C 
ATOM     23  C   UNL     1      -2.234  -8.237  -0.228  0.00  0.00    -0.079 C 
ATOM     24  N   UNL     1      -1.045  -8.488  -1.069  0.00  0.00    +0.381 N 
ATOM     25  C   UNL     1      -0.093  -7.373  -0.884  0.00  0.00    -0.037 C 
ATOM     26  H   UNL     1      -0.608  -9.354  -0.790  0.00  0.00    -0.086 HD
ATOM     27  H   UNL     1      -1.320  -8.545  -2.038  0.00  0.00    -0.086 HD
ENDBRANCH  20  21
ENDBRANCH  18  20
ENDBRANCH   5  18
BRANCH   3  28
ATOM     28  C   UNL     1      -0.485  -0.304  -2.524  0.00  0.00    +0.337 C 
ATOM     29  O   UNL     1      -0.482   0.903  -2.681  0.00  0.00    -0.245 OA
BRANCH  28  30
ATOM     30  O   UNL     1      -0.739  -1.120  -3.569  0.00  0.00    -0.465 OA
ATOM     31  C   UNL     1      -0.996  -0.498  -4.830  0.00  0.00    +0.280 C 
ENDBRANCH  28  30
ENDBRANCH   3  28
BRANCH   7  32
ATOM     32  C   UNL     1       0.686   0.360   2.100  0.00  0.00    +0.145 C 
BRANCH  32  33
ATOM     33  C   UNL     1       2.188   0.429   1.992  0.00  0.00    -0.030 A 
ATOM     34  C   UNL     1       2.969  -0.539   2.595  0.00  0.00    +0.005 A 
ATOM     35  C   UNL     1       4.346  -0.476   2.495  0.00  0.00    +0.000 A 
ATOM     36  C   UNL     1       4.942   0.555   1.793  0.00  0.00    +0.000 A 
ATOM     37  C   UNL     1       4.161   1.522   1.189  0.00  0.00    +0.000 A 
ATOM     38  C   UNL     1       2.783   1.457   1.285  0.00  0.00    +0.005 A 
ENDBRANCH  32  33
ENDBRANCH   7  32
TORSDOF 9
