REMARK  Name = ZINC33516843
REMARK  13 active torsions:
REMARK  status: ('A' for Active; 'I' for Inactive)
REMARK    1  A    between atoms: C_1  and  C_2
REMARK    2  A    between atoms: C_2  and  C_3
REMARK    3  A    between atoms: C_3  and  C_4
REMARK    4  A    between atoms: C_4  and  O_5
REMARK    5  A    between atoms: O_5  and  C_6
REMARK    6  A    between atoms: C_10  and  C_12
REMARK    7  A    between atoms: C_14  and  C_32
REMARK    8  A    between atoms: C_21  and  C_30
REMARK    9  A    between atoms: C_22  and  C_24
REMARK   10  A    between atoms: C_24  and  O_26
REMARK   11  A    between atoms: O_26  and  C_27
REMARK   12  A    between atoms: C_27  and  C_28
REMARK   13  A    between atoms: C_32  and  C_34
REMARK                            x       y       z     vdW  Elec       q    Type
REMARK                         _______ _______ _______ _____ _____    ______ ____
ROOT
ATOM      1  C   UNL     1       4.373   2.640   0.015  0.00  0.00    +0.152 C 
ATOM      2  C   UNL     1       3.316   3.719  -0.045  0.00  0.00    +0.080 C 
ATOM      3  C   UNL     1       3.959   4.903   0.078  0.00  0.00    +0.250 C 
ATOM      4  C   UNL     1       5.408   4.657   0.212  0.00  0.00    +0.293 C 
ATOM      5  O   UNL     1       6.253   5.521   0.339  0.00  0.00    -0.266 OA
ATOM      6  N   UNL     1       5.656   3.335   0.172  0.00  0.00    -0.232 N 
ATOM      7  C   UNL     1       6.898   2.737   0.268  0.00  0.00    +0.169 A 
ATOM      8  N   UNL     1       8.084   3.309   0.415  0.00  0.00    -0.229 NA
ATOM      9  C   UNL     1       9.180   2.602   0.492  0.00  0.00    +0.062 A 
ATOM     10  C   UNL     1       9.066   1.220   0.414  0.00  0.00    +0.120 A 
ATOM     11  S   UNL     1       7.296   1.048   0.233  0.00  0.00    -0.045 S 
ATOM     12  C   UNL     1      10.524   3.264   0.659  0.00  0.00    +0.067 C 
ATOM     13  O   UNL     1       3.367   6.120   0.078  0.00  0.00    -0.282 OA
ENDROOT
BRANCH   1  18
ATOM     14  C   UNL     1       3.830  -0.164  -2.459  0.00  0.00    +0.121 A 
ATOM     15  C   UNL     1       4.372   0.381  -3.614  0.00  0.00    +0.045 A 
ATOM     16  C   UNL     1       4.912   1.652  -3.590  0.00  0.00    +0.004 A 
ATOM     17  C   UNL     1       4.912   2.382  -2.415  0.00  0.00    +0.006 A 
ATOM     18  C   UNL     1       4.372   1.842  -1.263  0.00  0.00    -0.019 A 
ATOM     19  C   UNL     1       3.836   0.568  -1.281  0.00  0.00    +0.051 A 
BRANCH  14  20
ATOM     20  O   UNL     1       3.298  -1.414  -2.480  0.00  0.00    -0.492 OA
BRANCH  20  21
ATOM     21  C   UNL     1       3.330  -2.111  -3.727  0.00  0.00    +0.229 C 
BRANCH  21  22
ATOM     22  C   UNL     1       2.691  -3.491  -3.557  0.00  0.00    +0.041 C 
BRANCH  22  24
ATOM     23  C   UNL     1       2.087  -5.617  -4.721  0.00  0.00    +0.004 C 
ATOM     24  C   UNL     1       2.726  -4.238  -4.892  0.00  0.00    -0.000 C 
ENDBRANCH  22  24
ENDBRANCH  21  22
ENDBRANCH  20  21
ENDBRANCH  14  20
ENDBRANCH   1  18
BRANCH  10  25
ATOM     25  C   UNL     1      10.103   0.193   0.470  0.00  0.00    +0.348 C 
ATOM     26  O   UNL     1      11.270   0.513   0.604  0.00  0.00    -0.244 OA
BRANCH  25  27
ATOM     27  O   UNL     1       9.768  -1.111   0.373  0.00  0.00    -0.457 OA
BRANCH  27  28
ATOM     28  C   UNL     1      10.834  -2.061   0.435  0.00  0.00    +0.259 C 
BRANCH  28  29
ATOM     29  C   UNL     1      10.272  -3.454   0.311  0.00  0.00    +0.006 C 
ATOM     30  C   UNL     1      10.849  -4.325  -0.480  0.00  0.00    +0.007 C 
ENDBRANCH  28  29
ENDBRANCH  27  28
ENDBRANCH  25  27
ENDBRANCH  10  25
BRANCH   2  31
ATOM     31  C   UNL     1       1.870   3.520  -0.200  0.00  0.00    +0.230 C 
ATOM     32  O   UNL     1       1.309   3.897  -1.213  0.00  0.00    -0.283 OA
BRANCH  31  33
ATOM     33  C   UNL     1       1.102   2.868   0.865  0.00  0.00    +0.175 A 
ATOM     34  C   UNL     1      -0.267   2.704   0.895  0.00  0.00    +0.053 A 
ATOM     35  C   UNL     1      -0.562   2.033   2.090  0.00  0.00    +0.042 A 
ATOM     36  C   UNL     1       0.611   1.818   2.728  0.00  0.00    +0.196 A 
ATOM     37  O   UNL     1       1.608   2.320   1.989  0.00  0.00    -0.460 OA
ENDBRANCH  31  33
ENDBRANCH   2  31
TORSDOF 11
