REMARK  Name = ZINC15015366
REMARK  4 active torsions:
REMARK  status: ('A' for Active; 'I' for Inactive)
REMARK    1  A    between atoms: C_1  and  C_2
REMARK    2  A    between atoms: C_5  and  C_27
REMARK    3  A    between atoms: C_8  and  C_10
REMARK    4  A    between atoms: N_11  and  N_12
REMARK                            x       y       z     vdW  Elec       q    Type
REMARK                         _______ _______ _______ _____ _____    ______ ____
ROOT
ATOM      1  N   UNL     1      -0.011   0.966   0.007  0.00  0.00    -0.204 N 
ATOM      2  C   UNL     1      -1.220   1.642   0.017  0.00  0.00    +0.256 A 
ATOM      3  N   UNL     1      -2.352   0.951   0.018  0.00  0.00    -0.192 NA
ATOM      4  C   UNL     1      -3.511   1.601   0.028  0.00  0.00    +0.163 A 
ATOM      5  C   UNL     1      -3.487   3.011   0.036  0.00  0.00    +0.137 A 
ATOM      6  C   UNL     1      -4.894   3.449   0.045  0.00  0.00    +0.029 A 
ATOM      7  C   UNL     1      -5.512   4.697   0.056  0.00  0.00    +0.012 A 
ATOM      8  C   UNL     1      -6.887   4.781   0.064  0.00  0.00    +0.001 A 
ATOM      9  C   UNL     1      -7.657   3.628   0.060  0.00  0.00    +0.002 A 
ATOM     10  C   UNL     1      -7.059   2.386   0.050  0.00  0.00    +0.026 A 
ATOM     11  C   UNL     1      -5.672   2.281   0.042  0.00  0.00    +0.050 A 
ATOM     12  N   UNL     1      -4.820   1.188   0.032  0.00  0.00    -0.338 N 
ATOM     13  H   UNL     1      -5.108   0.262   0.028  0.00  0.00    +0.167 HD
ATOM     14  N   UNL     1      -2.323   3.643   0.033  0.00  0.00    -0.142 NA
ATOM     15  N   UNL     1      -1.223   2.971   0.029  0.00  0.00    -0.111 NA
ATOM     16  H   UNL     1       0.002  -0.004   0.002  0.00  0.00    +0.177 HD
ENDROOT
BRANCH   1  18
ATOM     17  C   UNL     1       2.310   1.058  -0.014  0.00  0.00    +0.107 C 
ATOM     18  N   UNL     1       1.193   1.683  -0.000  0.00  0.00    -0.192 NA
BRANCH  17  25
ATOM     19  C   UNL     1       4.873   0.015  -1.194  0.00  0.00    +0.008 C 
ATOM     20  C   UNL     1       4.410   1.471  -1.278  0.00  0.00    -0.001 C 
ATOM     21  C   UNL     1       5.628   2.395  -1.351  0.00  0.00    +0.034 C 
ATOM     22  C   UNL     1       6.345   2.410  -0.033  0.00  0.00    -0.076 C 
ATOM     23  C   UNL     1       5.824   2.005   1.081  0.00  0.00    -0.027 C 
ATOM     24  C   UNL     1       4.432   1.459   1.210  0.00  0.00    +0.036 C 
ATOM     25  C   UNL     1       3.604   1.829  -0.022  0.00  0.00    +0.039 C 
ATOM     26  C   UNL     1       7.760   2.929  -0.004  0.00  0.00    +0.039 C 
ENDBRANCH  17  25
ENDBRANCH   1  18
TORSDOF 2
