REMARK  Name = ZINC12881894
REMARK  16 active torsions:
REMARK  status: ('A' for Active; 'I' for Inactive)
REMARK    1  A    between atoms: C_1  and  C_2
REMARK    2  A    between atoms: C_2  and  C_3
REMARK    3  A    between atoms: C_3  and  C_4
REMARK    4  A    between atoms: C_4  and  N_5
REMARK    5  A    between atoms: C_6  and  N_39
REMARK    6  A    between atoms: C_7  and  N_14
REMARK    7  A    between atoms: N_14  and  C_15
REMARK    8  A    between atoms: C_15  and  C_16
REMARK    9  A    between atoms: C_16  and  O_17
REMARK   10  A    between atoms: O_17  and  C_18
REMARK   11  A    between atoms: C_19  and  C_21
REMARK   12  A    between atoms: N_26  and  C_28
REMARK   13  A    between atoms: C_33  and  C_34
REMARK   14  A    between atoms: C_34  and  C_36
REMARK   15  A    between atoms: C_34  and  C_37
REMARK   16  A    between atoms: C_37  and  C_38
REMARK                            x       y       z     vdW  Elec       q    Type
REMARK                         _______ _______ _______ _____ _____    ______ ____
ROOT
ATOM      1  N   UNL     1       0.204  -4.595  -1.206  0.00  0.00    -0.262 N 
ATOM      2  C   UNL     1       0.475  -3.315  -1.538  0.00  0.00    +0.225 C 
ATOM      3  O   UNL     1       1.293  -3.074  -2.401  0.00  0.00    -0.275 OA
ENDROOT
BRANCH   1   6
ATOM      4  N   UNL     1       1.549  -6.922  -3.711  0.00  0.00    -0.280 N 
ATOM      5  C   UNL     1       0.826  -5.891  -3.157  0.00  0.00    +0.127 A 
ATOM      6  C   UNL     1       0.928  -5.648  -1.802  0.00  0.00    +0.140 A 
ATOM      7  C   UNL     1       1.764  -6.472  -1.026  0.00  0.00    +0.277 A 
ATOM      8  O   UNL     1       1.870  -6.282   0.174  0.00  0.00    -0.266 OA
ATOM      9  N   UNL     1       2.447  -7.472  -1.617  0.00  0.00    -0.273 N 
ATOM     10  H   UNL     1       3.041  -8.058  -1.066  0.00  0.00    +0.173 HD
ATOM     11  C   UNL     1       2.338  -7.691  -2.939  0.00  0.00    +0.331 A 
ATOM     12  O   UNL     1       2.965  -8.601  -3.447  0.00  0.00    -0.246 OA
BRANCH   5  13
ATOM     13  N   UNL     1       0.014  -5.110  -3.944  0.00  0.00    -0.343 N 
ATOM     14  H   UNL     1      -0.438  -4.341  -3.562  0.00  0.00    +0.144 HD
ATOM     15  H   UNL     1      -0.106  -5.326  -4.882  0.00  0.00    +0.144 HD
ENDBRANCH   5  13
BRANCH   4  16
ATOM     16  C   UNL     1       1.454  -7.188  -5.148  0.00  0.00    +0.128 C 
BRANCH  16  17
ATOM     17  C   UNL     1       0.315  -8.175  -5.410  0.00  0.00    +0.021 C 
BRANCH  17  19
ATOM     18  C   UNL     1      -0.922  -9.441  -7.174  0.00  0.00    +0.004 C 
ATOM     19  C   UNL     1       0.216  -8.453  -6.912  0.00  0.00    -0.002 C 
ENDBRANCH  17  19
ENDBRANCH  16  17
ENDBRANCH   4  16
ENDBRANCH   1   6
BRANCH   2  20
ATOM     20  C   UNL     1      -0.237  -2.187  -0.838  0.00  0.00    +0.102 C 
ATOM     21  C   UNL     1       0.372  -1.931   0.560  0.00  0.00    +0.110 C 
ATOM     22  C   UNL     1       0.324  -0.427   0.718  0.00  0.00    +0.221 C 
ATOM     23  O   UNL     1       0.449   0.165   1.769  0.00  0.00    -0.275 OA
ATOM     24  N   UNL     1       0.119   0.156  -0.475  0.00  0.00    -0.270 N 
ATOM     25  C   UNL     1       0.028  -0.841  -1.548  0.00  0.00    +0.127 C 
BRANCH  24  26
ATOM     26  C   UNL     1       0.012   1.538  -0.670  0.00  0.00    +0.040 A 
ATOM     27  C   UNL     1      -1.231   2.155  -0.608  0.00  0.00    +0.024 A 
ATOM     28  C   UNL     1      -1.332   3.520  -0.796  0.00  0.00    +0.002 A 
ATOM     29  C   UNL     1      -0.200   4.269  -1.057  0.00  0.00    +0.000 A 
ATOM     30  C   UNL     1       1.038   3.657  -1.125  0.00  0.00    +0.006 A 
ATOM     31  C   UNL     1       1.147   2.293  -0.932  0.00  0.00    -0.023 A 
BRANCH  31  32
ATOM     32  C   UNL     1       2.496   1.627  -1.006  0.00  0.00    +0.017 C 
ATOM     33  C   UNL     1       3.419   2.225   0.058  0.00  0.00    +0.012 C 
BRANCH  32  34
ATOM     34  C   UNL     1       3.102   1.853  -2.392  0.00  0.00    +0.004 C 
ATOM     35  C   UNL     1       4.413   1.073  -2.509  0.00  0.00    +0.004 C 
ENDBRANCH  32  34
ENDBRANCH  31  32
ENDBRANCH  24  26
ENDBRANCH   2  20
BRANCH   1  36
ATOM     36  C   UNL     1      -0.843  -4.890  -0.225  0.00  0.00    +0.142 C 
BRANCH  36  37
ATOM     37  C   UNL     1      -2.163  -5.157  -0.952  0.00  0.00    +0.178 C 
BRANCH  37  38
ATOM     38  O   UNL     1      -2.039  -6.342  -1.742  0.00  0.00    -0.381 OA
ATOM     39  C   UNL     1      -3.223  -6.684  -2.466  0.00  0.00    +0.194 C 
ENDBRANCH  37  38
ENDBRANCH  36  37
ENDBRANCH   1  36
TORSDOF 12
