REMARK  Name = ZINC21466427
REMARK  7 active torsions:
REMARK  status: ('A' for Active; 'I' for Inactive)
REMARK    1  A    between atoms: C_4  and  N_7
REMARK    2  A    between atoms: N_7  and  C_8
REMARK    3  A    between atoms: C_16  and  C_18
REMARK    4  A    between atoms: C_18  and  O_19
REMARK    5  A    between atoms: O_19  and  C_20
REMARK    6  A    between atoms: C_20  and  C_22
REMARK    7  A    between atoms: C_27  and  N_28
REMARK                            x       y       z     vdW  Elec       q    Type
REMARK                         _______ _______ _______ _____ _____    ______ ____
ROOT
ATOM      1  N   UNL     1       0.006  -0.687   0.234  0.00  0.00    -0.264 N 
ATOM      2  C   UNL     1      -1.161  -0.020   0.334  0.00  0.00    +0.258 C 
ATOM      3  O   UNL     1      -1.167   1.192   0.359  0.00  0.00    -0.271 OA
ENDROOT
BRANCH   1   4
ATOM      4  C   UNL     1       0.008  -2.146   0.102  0.00  0.00    +0.104 C 
ATOM      5  C   UNL     1       0.630  -2.772   1.361  0.00  0.00    +0.047 C 
ATOM      6  C   UNL     1       0.906  -4.274   1.069  0.00  0.00    +0.168 C 
ATOM      7  S   UNL     1       1.541  -4.171  -0.658  0.00  0.00    -0.029 S 
ATOM      8  O   UNL     1       2.957  -4.062  -0.624  0.00  0.00    -0.174 OA
ATOM      9  O   UNL     1       0.935  -5.195  -1.435  0.00  0.00    -0.174 OA
ATOM     10  C   UNL     1       0.829  -2.548  -1.147  0.00  0.00    +0.188 C 
ENDBRANCH   1   4
BRANCH   1  14
ATOM     11  C   UNL     1       3.610   1.403   0.300  0.00  0.00    +0.000 A 
ATOM     12  C   UNL     1       2.413   2.093   0.252  0.00  0.00    +0.002 A 
ATOM     13  C   UNL     1       1.216   1.403   0.230  0.00  0.00    +0.023 A 
ATOM     14  C   UNL     1       1.217   0.015   0.256  0.00  0.00    +0.037 A 
ATOM     15  C   UNL     1       2.421  -0.676   0.304  0.00  0.00    +0.023 A 
ATOM     16  C   UNL     1       3.614   0.020   0.326  0.00  0.00    +0.002 A 
ENDBRANCH   1  14
BRANCH   2  17
ATOM     17  C   UNL     1      -2.459  -0.782   0.414  0.00  0.00    +0.328 C 
BRANCH  17  18
ATOM     18  O   UNL     1      -3.552   0.147   0.635  0.00  0.00    -0.452 OA
BRANCH  18  19
ATOM     19  C   UNL     1      -4.790  -0.376   0.732  0.00  0.00    +0.341 C 
ATOM     20  O   UNL     1      -4.952  -1.577   0.634  0.00  0.00    -0.245 OA
BRANCH  19  21
ATOM     21  C   UNL     1      -5.948   0.506   0.956  0.00  0.00    +0.081 A 
ATOM     22  C   UNL     1      -5.786   1.895   0.946  0.00  0.00    +0.036 A 
ATOM     23  C   UNL     1      -6.874   2.715   1.156  0.00  0.00    +0.042 A 
ATOM     24  C   UNL     1      -8.130   2.170   1.378  0.00  0.00    +0.022 A 
ATOM     25  C   UNL     1      -8.305   0.802   1.391  0.00  0.00    +0.025 A 
ATOM     26  C   UNL     1      -7.222  -0.041   1.176  0.00  0.00    +0.039 A 
ATOM     27 CL   UNL     1      -6.671   4.439   1.143  0.00  0.00    -0.084 Cl
BRANCH  26  28
ATOM     28  N   UNL     1      -7.397  -1.419   1.183  0.00  0.00    -0.357 N 
ATOM     29  H   UNL     1      -8.397  -1.845   1.355  0.00  0.00    +0.142 HD
ATOM     30  H   UNL     1      -6.537  -2.084   1.016  0.00  0.00    +0.142 HD
ENDBRANCH  26  28
ENDBRANCH  19  21
ENDBRANCH  18  19
ENDBRANCH  17  18
ENDBRANCH   2  17
TORSDOF 7
