REMARK  Name = ZINC38705320
REMARK  13 active torsions:
REMARK  status: ('A' for Active; 'I' for Inactive)
REMARK    1  A    between atoms: C_1  and  C_2
REMARK    2  A    between atoms: C_4  and  C_39
REMARK    3  A    between atoms: C_5  and  C_9
REMARK    4  A    between atoms: C_6  and  O_8
REMARK    5  A    between atoms: N_17  and  C_36
REMARK    6  A    between atoms: C_18  and  C_20
REMARK    7  A    between atoms: C_23  and  O_28
REMARK    8  A    between atoms: C_24  and  O_26
REMARK    9  A    between atoms: O_26  and  C_27
REMARK   10  A    between atoms: O_28  and  C_29
REMARK   11  A    between atoms: C_29  and  C_30
REMARK   12  A    between atoms: C_36  and  C_37
REMARK   13  A    between atoms: C_37  and  O_38
REMARK                            x       y       z     vdW  Elec       q    Type
REMARK                         _______ _______ _______ _____ _____    ______ ____
ROOT
ATOM      1  C   UNL     1       0.527  -4.234   0.040  0.00  0.00    +0.102 A 
ATOM      2  C   UNL     1       0.349  -5.101   1.123  0.00  0.00    +0.035 A 
ATOM      3  C   UNL     1       0.614  -6.368   0.639  0.00  0.00    +0.126 A 
ATOM      4  N   UNL     1       0.931  -6.212  -0.680  0.00  0.00    -0.272 N 
ATOM      5  H   UNL     1       1.165  -6.932  -1.286  0.00  0.00    +0.189 HD
ATOM      6  N   UNL     1       0.867  -4.968  -1.002  0.00  0.00    -0.173 NA
ATOM      7  C   UNL     1       0.444  -7.330   1.733  0.00  0.00    +0.266 C 
ATOM      8  O   UNL     1       0.604  -8.532   1.632  0.00  0.00    -0.268 OA
ATOM      9  N   UNL     1       0.086  -6.696   2.864  0.00  0.00    -0.283 N 
ATOM     10  C   UNL     1      -0.002  -5.258   2.577  0.00  0.00    +0.141 C 
ENDROOT
BRANCH   1  15
ATOM     11  C   UNL     1      -0.128   1.491   0.103  0.00  0.00    +0.044 C 
ATOM     12  C   UNL     1       0.041  -0.006   0.088  0.00  0.00    -0.047 A 
ATOM     13  C   UNL     1       1.190  -0.565  -0.443  0.00  0.00    +0.007 A 
ATOM     14  C   UNL     1       1.353  -1.935  -0.461  0.00  0.00    -0.037 A 
ATOM     15  C   UNL     1       0.357  -2.760   0.057  0.00  0.00    +0.047 A 
ATOM     16  C   UNL     1      -0.803  -2.193   0.593  0.00  0.00    +0.127 A 
ATOM     17  C   UNL     1      -0.951  -0.816   0.610  0.00  0.00    +0.049 A 
ATOM     18  C   UNL     1       2.606  -2.538  -1.041  0.00  0.00    +0.044 C 
BRANCH  16  19
ATOM     19  O   UNL     1      -1.779  -2.990   1.100  0.00  0.00    -0.506 OA
ATOM     20  H   UNL     1      -1.725  -3.117   2.057  0.00  0.00    +0.292 HD
ENDBRANCH  16  19
ENDBRANCH   1  15
BRANCH  10  21
ATOM     21  C   UNL     1       0.978  -4.497   3.433  0.00  0.00    -0.019 A 
ATOM     22  C   UNL     1       2.330  -4.773   3.344  0.00  0.00    +0.009 A 
ATOM     23  C   UNL     1       3.233  -4.077   4.126  0.00  0.00    +0.050 A 
ATOM     24  C   UNL     1       2.784  -3.102   5.002  0.00  0.00    +0.162 A 
ATOM     25  C   UNL     1       1.423  -2.824   5.090  0.00  0.00    +0.162 A 
ATOM     26  C   UNL     1       0.524  -3.521   4.300  0.00  0.00    +0.055 A 
BRANCH  25  27
ATOM     27  O   UNL     1       0.978  -1.867   5.948  0.00  0.00    -0.491 OA
ATOM     28  C   UNL     1      -0.432  -1.635   5.986  0.00  0.00    +0.277 C 
ENDBRANCH  25  27
BRANCH  24  29
ATOM     29  O   UNL     1       3.671  -2.417   5.772  0.00  0.00    -0.484 OA
BRANCH  29  30
ATOM     30  C   UNL     1       5.052  -2.756   5.628  0.00  0.00    +0.264 C 
BRANCH  30  31
ATOM     31  C   UNL     1       5.878  -1.900   6.555  0.00  0.00    -0.010 A 
ATOM     32  C   UNL     1       6.364  -0.682   6.120  0.00  0.00    +0.007 A 
ATOM     33  C   UNL     1       7.122   0.103   6.969  0.00  0.00    +0.000 A 
ATOM     34  C   UNL     1       7.393  -0.331   8.254  0.00  0.00    +0.000 A 
ATOM     35  C   UNL     1       6.905  -1.550   8.688  0.00  0.00    +0.000 A 
ATOM     36  C   UNL     1       6.144  -2.332   7.840  0.00  0.00    +0.007 A 
ENDBRANCH  30  31
ENDBRANCH  29  30
ENDBRANCH  24  29
ENDBRANCH  10  21
BRANCH   9  37
ATOM     37  C   UNL     1      -0.173  -7.330   4.159  0.00  0.00    +0.137 C 
BRANCH  37  38
ATOM     38  C   UNL     1       1.152  -7.562   4.887  0.00  0.00    +0.175 C 
BRANCH  38  39
ATOM     39  O   UNL     1       1.698  -6.305   5.295  0.00  0.00    -0.393 OA
ATOM     40  H   UNL     1       2.540  -6.376   5.764  0.00  0.00    +0.209 HD
ENDBRANCH  38  39
ENDBRANCH  37  38
ENDBRANCH   9  37
TORSDOF 10
