REMARK  Name = ZINC08790217
REMARK  11 active torsions:
REMARK  status: ('A' for Active; 'I' for Inactive)
REMARK    1  A    between atoms: C_1  and  C_2
REMARK    2  A    between atoms: C_4  and  C_39
REMARK    3  A    between atoms: C_13  and  C_15
REMARK    4  A    between atoms: C_15  and  C_16
REMARK    5  A    between atoms: N_21  and  C_24
REMARK    6  A    between atoms: C_24  and  C_25
REMARK    7  A    between atoms: C_25  and  C_26
REMARK    8  A    between atoms: C_29  and  O_34
REMARK    9  A    between atoms: C_30  and  O_32
REMARK   10  A    between atoms: O_32  and  C_33
REMARK   11  A    between atoms: O_34  and  C_35
REMARK                            x       y       z     vdW  Elec       q    Type
REMARK                         _______ _______ _______ _____ _____    ______ ____
ROOT
ATOM      1  C   UNL     1       3.970  -2.435   1.941  0.00  0.00    +0.044 C 
ATOM      2  C   UNL     1       3.542  -0.990   1.903  0.00  0.00    -0.050 A 
ATOM      3  C   UNL     1       4.026  -0.099   2.843  0.00  0.00    +0.008 A 
ATOM      4  C   UNL     1       3.637   1.224   2.813  0.00  0.00    -0.029 A 
ATOM      5  C   UNL     1       2.754   1.673   1.834  0.00  0.00    +0.039 A 
ATOM      6  C   UNL     1       2.272   0.767   0.894  0.00  0.00    -0.027 A 
ATOM      7  C   UNL     1       2.663  -0.553   0.928  0.00  0.00    +0.008 A 
ATOM      8  C   UNL     1       1.358   1.552  -0.003  0.00  0.00    +0.050 C 
ATOM      9  C   UNL     1       1.821   1.502  -1.463  0.00  0.00    +0.088 C 
ATOM     10  C   UNL     1       0.504   1.479  -2.290  0.00  0.00    +0.073 C 
ATOM     11  C   UNL     1      -0.624   1.536  -1.239  0.00  0.00    -0.049 C 
ATOM     12  C   UNL     1       0.545   2.787  -3.046  0.00  0.00    +0.224 C 
ATOM     13  O   UNL     1      -0.302   3.174  -3.822  0.00  0.00    -0.275 OA
ATOM     14  N   UNL     1       1.661   3.452  -2.726  0.00  0.00    -0.241 N 
ATOM     15  C   UNL     1       2.449   2.823  -1.847  0.00  0.00    +0.225 C 
ATOM     16  O   UNL     1       3.503   3.246  -1.423  0.00  0.00    -0.275 OA
ATOM     17  C   UNL     1       1.391   2.956   0.537  0.00  0.00    +0.211 C 
ATOM     18  O   UNL     1       0.789   3.914   0.101  0.00  0.00    -0.277 OA
ATOM     19  N   UNL     1       2.221   2.942   1.598  0.00  0.00    -0.286 N 
ATOM     20  C   UNL     1       4.170   2.187   3.842  0.00  0.00    +0.045 C 
ATOM     21  H   UNL     1       2.425   3.724   2.136  0.00  0.00    +0.155 HD
ATOM     22  N   UNL     1       0.004   1.027  -0.018  0.00  0.00    +0.394 N 
ATOM     23  H   UNL     1      -0.512   1.351   0.809  0.00  0.00    -0.083 HD
ATOM     24  H   UNL     1       0.021   0.000  -0.030  0.00  0.00    -0.083 HD
ENDROOT
BRANCH  11  25
ATOM     25  C   UNL     1      -1.800   0.657  -1.671  0.00  0.00    +0.080 C 
BRANCH  25  26
ATOM     26  C   UNL     1      -2.907   0.765  -0.654  0.00  0.00    +0.209 C 
ATOM     27  O   UNL     1      -2.770   1.474   0.320  0.00  0.00    -0.276 OA
ATOM     28  N   UNL     1      -4.051   0.072  -0.827  0.00  0.00    -0.329 N 
ATOM     29  H   UNL     1      -4.160  -0.495  -1.606  0.00  0.00    +0.145 HD
ATOM     30  H   UNL     1      -4.763   0.141  -0.173  0.00  0.00    +0.145 HD
ENDBRANCH  25  26
ENDBRANCH  11  25
BRANCH  14  31
ATOM     31  C   UNL     1       1.994   4.761  -3.293  0.00  0.00    +0.121 C 
BRANCH  31  32
ATOM     32  C   UNL     1       2.806   4.571  -4.575  0.00  0.00    +0.054 C 
BRANCH  32  33
ATOM     33  C   UNL     1       3.148   5.918  -5.158  0.00  0.00    -0.042 A 
ATOM     34  C   UNL     1       2.294   6.513  -6.068  0.00  0.00    +0.007 A 
ATOM     35  C   UNL     1       2.600   7.751  -6.601  0.00  0.00    +0.049 A 
ATOM     36  C   UNL     1       3.771   8.393  -6.232  0.00  0.00    +0.161 A 
ATOM     37  C   UNL     1       4.634   7.792  -5.321  0.00  0.00    +0.162 A 
ATOM     38  C   UNL     1       4.318   6.553  -4.786  0.00  0.00    +0.053 A 
BRANCH  37  39
ATOM     39  O   UNL     1       5.785   8.418  -4.957  0.00  0.00    -0.491 OA
ATOM     40  C   UNL     1       6.622   7.741  -4.017  0.00  0.00    +0.277 C 
ENDBRANCH  37  39
BRANCH  36  41
ATOM     41  O   UNL     1       4.077   9.608  -6.760  0.00  0.00    -0.491 OA
ATOM     42  C   UNL     1       3.145  10.165  -7.689  0.00  0.00    +0.277 C 
ENDBRANCH  36  41
ENDBRANCH  32  33
ENDBRANCH  31  32
ENDBRANCH  14  31
TORSDOF 7
