REMARK  Name = ZINC09378728
REMARK  10 active torsions:
REMARK  status: ('A' for Active; 'I' for Inactive)
REMARK    1  A    between atoms: C_1  and  N_2
REMARK    2  A    between atoms: N_2  and  C_3
REMARK    3  A    between atoms: N_2  and  S_4
REMARK    4  A    between atoms: S_4  and  C_7
REMARK    5  A    between atoms: C_10  and  N_28
REMARK    6  A    between atoms: C_11  and  C_13
REMARK    7  A    between atoms: N_15  and  C_16
REMARK    8  A    between atoms: C_16  and  C_17
REMARK    9  A    between atoms: C_17  and  C_19
REMARK   10  A    between atoms: C_17  and  N_67
REMARK                            x       y       z     vdW  Elec       q    Type
REMARK                         _______ _______ _______ _____ _____    ______ ____
ROOT
ATOM      1  C   UNL     1      -0.171   5.685  -0.320  0.00  0.00    +0.106 A 
ATOM      2  C   UNL     1       1.008   6.413  -0.290  0.00  0.00    +0.030 A 
ATOM      3  C   UNL     1       2.223   5.771  -0.163  0.00  0.00    +0.026 A 
ATOM      4  C   UNL     1       2.270   4.386  -0.060  0.00  0.00    +0.042 A 
ATOM      5  C   UNL     1       1.078   3.646  -0.097  0.00  0.00    +0.060 A 
ATOM      6  C   UNL     1      -0.144   4.311  -0.225  0.00  0.00    +0.043 A 
ENDROOT
BRANCH   4   7
ATOM      7  N   UNL     1       3.491   3.737   0.073  0.00  0.00    -0.329 N 
ATOM      8  C   UNL     1       4.145   4.101   1.336  0.00  0.00    +0.105 C 
ATOM      9  C   UNL     1       5.411   3.261   1.516  0.00  0.00    +0.019 C 
ATOM     10  C   UNL     1       6.357   3.513   0.339  0.00  0.00    +0.003 C 
ATOM     11  C   UNL     1       5.635   3.172  -0.968  0.00  0.00    +0.019 C 
ATOM     12  C   UNL     1       4.362   4.015  -1.076  0.00  0.00    +0.105 C 
ENDBRANCH   4   7
BRANCH   5  13
ATOM     13  C   UNL     1       1.114   2.175   0.006  0.00  0.00    +0.246 C 
ATOM     14  O   UNL     1       2.180   1.600   0.118  0.00  0.00    -0.270 OA
ATOM     15  N   UNL     1      -0.033   1.469  -0.023  0.00  0.00    -0.312 N 
ATOM     16  H   UNL     1      -0.883   1.928  -0.117  0.00  0.00    +0.149 HD
BRANCH  15  17
ATOM     17  C   UNL     1       0.003   0.008   0.079  0.00  0.00    +0.097 C 
BRANCH  17  18
ATOM     18  C   UNL     1      -1.427  -0.534   0.139  0.00  0.00    +0.016 C 
BRANCH  18  23
ATOM     19  C   UNL     1      -0.697  -2.303   1.645  0.00  0.00    -0.078 C 
ATOM     20  C   UNL     1      -1.203  -3.728   1.978  0.00  0.00    -0.020 C 
ATOM     21  C   UNL     1      -2.681  -3.684   1.528  0.00  0.00    -0.020 C 
ATOM     22  C   UNL     1      -2.757  -2.533   0.508  0.00  0.00    -0.078 C 
ATOM     23  N   UNL     1      -1.397  -2.007   0.385  0.00  0.00    +0.387 N 
ATOM     24  H   UNL     1      -0.916  -2.470  -0.396  0.00  0.00    -0.081 HD
ENDBRANCH  18  23
BRANCH  18  25
ATOM     25  C   UNL     1      -2.126  -0.252  -1.166  0.00  0.00    +0.093 A 
ATOM     26  C   UNL     1      -2.989   0.755  -1.394  0.00  0.00    +0.043 A 
ATOM     27  C   UNL     1      -3.401   0.644  -2.742  0.00  0.00    +0.041 A 
ATOM     28  C   UNL     1      -2.764  -0.423  -3.257  0.00  0.00    +0.195 A 
ATOM     29  O   UNL     1      -1.989  -0.958  -2.300  0.00  0.00    -0.469 OA
ENDBRANCH  18  25
ENDBRANCH  17  18
ENDBRANCH  15  17
ENDBRANCH   5  13
BRANCH   1  30
ATOM     30  S   UNL     1      -1.713   6.522  -0.483  0.00  0.00    +0.060 S 
ATOM     31  O   UNL     1      -1.434   7.771  -1.102  0.00  0.00    -0.153 OA
ATOM     32  O   UNL     1      -2.627   5.585  -1.035  0.00  0.00    -0.153 OA
BRANCH  30  34
ATOM     33  C   UNL     1      -1.879   8.125   1.689  0.00  0.00    +0.131 C 
ATOM     34  N   UNL     1      -2.249   6.862   1.046  0.00  0.00    -0.183 NA
ATOM     35  C   UNL     1      -3.094   5.899   1.757  0.00  0.00    +0.131 C 
ENDBRANCH  30  34
ENDBRANCH   1  30
TORSDOF 8
