REMARK  Name = ZINC64354495
REMARK  6 active torsions:
REMARK  status: ('A' for Active; 'I' for Inactive)
REMARK    1  A    between atoms: C_1  and  N_2
REMARK    2  A    between atoms: N_2  and  C_3
REMARK    3  A    between atoms: C_8  and  C_9
REMARK    4  A    between atoms: N_11  and  N_12
REMARK    5  A    between atoms: C_13  and  C_15
REMARK    6  A    between atoms: C_24  and  C_26
REMARK                            x       y       z     vdW  Elec       q    Type
REMARK                         _______ _______ _______ _____ _____    ______ ____
ROOT
ATOM      1  C   UNL     1       2.517  -0.661   1.159  0.00  0.00    +0.262 C 
ATOM      2  O   UNL     1       2.507  -0.048   0.109  0.00  0.00    -0.269 OA
ATOM      3  N   UNL     1       3.690  -0.989   1.736  0.00  0.00    -0.230 N 
ATOM      4  H   UNL     1       3.699  -1.478   2.574  0.00  0.00    +0.173 HD
ENDROOT
BRANCH   1  10
ATOM      5  C   UNL     1       0.023  -0.707   1.204  0.00  0.00    +0.048 A 
ATOM      6  C   UNL     1      -1.167  -1.080   1.815  0.00  0.00    +0.024 A 
ATOM      7  C   UNL     1      -1.144  -1.776   3.007  0.00  0.00    +0.002 A 
ATOM      8  C   UNL     1       0.063  -2.108   3.602  0.00  0.00    +0.001 A 
ATOM      9  C   UNL     1       1.254  -1.746   3.010  0.00  0.00    +0.015 A 
ATOM     10  C   UNL     1       1.246  -1.046   1.801  0.00  0.00    +0.059 A 
BRANCH   5  12
ATOM     11  C   UNL     1      -0.018   1.461   0.010  0.00  0.00    +0.138 C 
ATOM     12  N   UNL     1       0.002  -0.004   0.002  0.00  0.00    -0.273 N 
ATOM     13  C   UNL     1       0.000  -0.672  -1.169  0.00  0.00    +0.233 C 
ATOM     14  O   UNL     1       0.017  -1.884  -1.175  0.00  0.00    -0.274 OA
BRANCH  13  15
ATOM     15  C   UNL     1      -0.023   0.089  -2.470  0.00  0.00    +0.141 C 
ATOM     16  C   UNL     1       0.599  -0.741  -3.624  0.00  0.00    +0.051 C 
ATOM     17  C   UNL     1      -0.460  -1.494  -4.364  0.00  0.00    -0.019 C 
ATOM     18  C   UNL     1      -1.723  -1.135  -4.249  0.00  0.00    +0.037 C 
ATOM     19  S   UNL     1      -1.736   0.254  -3.126  0.00  0.00    -0.120 S 
ENDBRANCH  13  15
ENDBRANCH   5  12
ENDBRANCH   1  10
BRANCH   3  20
ATOM     20  N   UNL     1       4.897  -0.623   1.126  0.00  0.00    -0.230 N 
ATOM     21  C   UNL     1       6.070  -0.951   1.704  0.00  0.00    +0.258 C 
ATOM     22  O   UNL     1       6.081  -1.565   2.754  0.00  0.00    -0.269 OA
ATOM     23  H   UNL     1       4.889  -0.134   0.289  0.00  0.00    +0.173 HD
BRANCH  21  24
ATOM     24  C   UNL     1       7.334  -0.568   1.065  0.00  0.00    +0.044 C 
ATOM     25  C   UNL     1       8.608  -0.830   1.519  0.00  0.00    +0.008 A 
ATOM     26  C   UNL     1       9.104  -1.503   2.664  0.00  0.00    +0.010 A 
ATOM     27  C   UNL     1      10.435  -1.613   2.865  0.00  0.00    +0.001 A 
ATOM     28  C   UNL     1      11.379  -1.081   1.971  0.00  0.00    +0.002 A 
ATOM     29  C   UNL     1      11.012  -0.423   0.851  0.00  0.00    +0.026 A 
ATOM     30  C   UNL     1       9.580  -0.257   0.555  0.00  0.00    +0.043 A 
ATOM     31  N   UNL     1       8.956   0.323  -0.432  0.00  0.00    -0.380 N 
ATOM     32  C   UNL     1       7.510   0.190  -0.232  0.00  0.00    +0.154 C 
ATOM     33  H   UNL     1       9.382   0.767  -1.181  0.00  0.00    +0.160 HD
ENDBRANCH  21  24
ENDBRANCH   3  20
TORSDOF 5
