REMARK  Name = ZINC09542057
REMARK  7 active torsions:
REMARK  status: ('A' for Active; 'I' for Inactive)
REMARK    1  A    between atoms: C_1  and  C_2
REMARK    2  A    between atoms: C_2  and  O_3
REMARK    3  A    between atoms: O_3  and  C_4
REMARK    4  A    between atoms: C_7  and  C_10
REMARK    5  A    between atoms: C_12  and  C_24
REMARK    6  A    between atoms: C_14  and  C_17
REMARK    7  A    between atoms: C_22  and  O_23
REMARK                            x       y       z     vdW  Elec       q    Type
REMARK                         _______ _______ _______ _____ _____    ______ ____
ROOT
ATOM      1  C   UNL     1      -0.161   7.328   1.523  0.00  0.00    +0.040 C 
ATOM      2  N   UNL     1      -0.854   7.931   0.630  0.00  0.00    -0.299 NA
ATOM      3  C   UNL     1      -1.393   7.287  -0.561  0.00  0.00    +0.081 C 
ATOM      4  C   UNL     1      -0.082   5.350   0.031  0.00  0.00    -0.028 C 
ATOM      5  C   UNL     1       0.174   5.864   1.451  0.00  0.00    +0.044 C 
ATOM      6  N   UNL     1      -1.411   5.825  -0.400  0.00  0.00    +0.401 N 
ATOM      7  H   UNL     1      -1.655   5.387  -1.296  0.00  0.00    -0.081 HD
ATOM      8  H   UNL     1      -2.110   5.569   0.308  0.00  0.00    -0.081 HD
ENDROOT
BRANCH   3   9
ATOM      9  C   UNL     1      -0.537   7.645  -1.749  0.00  0.00    -0.039 A 
ATOM     10  C   UNL     1       0.122   8.860  -1.784  0.00  0.00    +0.004 A 
ATOM     11  C   UNL     1       0.908   9.188  -2.873  0.00  0.00    +0.001 A 
ATOM     12  C   UNL     1       1.034   8.303  -3.927  0.00  0.00    +0.015 A 
ATOM     13  C   UNL     1       0.374   7.088  -3.892  0.00  0.00    +0.018 A 
ATOM     14  C   UNL     1      -0.407   6.757  -2.799  0.00  0.00    +0.019 A 
ATOM     15 BR   UNL     1       0.547   5.876  -5.333  0.00  0.00    -0.050 Br
ENDBRANCH   3   9
BRANCH   1  19
ATOM     16  C   UNL     1       1.255   9.568   4.840  0.00  0.00    +0.121 A 
ATOM     17  C   UNL     1       0.501  10.192   3.853  0.00  0.00    +0.046 A 
ATOM     18  C   UNL     1       0.040   9.469   2.776  0.00  0.00    +0.013 A 
ATOM     19  C   UNL     1       0.331   8.106   2.675  0.00  0.00    -0.004 A 
ATOM     20  C   UNL     1       1.085   7.481   3.671  0.00  0.00    +0.013 A 
ATOM     21  C   UNL     1       1.547   8.212   4.743  0.00  0.00    +0.046 A 
BRANCH  16  22
ATOM     22  O   UNL     1       1.708  10.284   5.900  0.00  0.00    -0.492 OA
BRANCH  22  24
ATOM     23  C   UNL     1       2.896  10.544   7.989  0.00  0.00    +0.048 C 
ATOM     24  C   UNL     1       2.477   9.579   6.878  0.00  0.00    +0.225 C 
ENDBRANCH  22  24
ENDBRANCH  16  22
ENDBRANCH   1  19
BRANCH   4  25
ATOM     25  C   UNL     1      -0.057   3.844   0.023  0.00  0.00    -0.019 A 
ATOM     26  C   UNL     1      -1.242   3.132   0.031  0.00  0.00    +0.005 A 
ATOM     27  C   UNL     1      -1.220   1.750   0.017  0.00  0.00    +0.000 A 
ATOM     28  C   UNL     1      -0.013   1.076   0.008  0.00  0.00    +0.004 A 
ATOM     29  C   UNL     1       1.174   1.782   0.000  0.00  0.00    +0.045 A 
ATOM     30  C   UNL     1       1.155   3.169   0.008  0.00  0.00    +0.118 A 
BRANCH  30  31
ATOM     31  O   UNL     1       2.321   3.867   0.000  0.00  0.00    -0.507 OA
ATOM     32  H   UNL     1       2.650   4.073  -0.885  0.00  0.00    +0.292 HD
ENDBRANCH  30  31
ENDBRANCH   4  25
TORSDOF 6
