REMARK  Name = ZINC09292220
REMARK  7 active torsions:
REMARK  status: ('A' for Active; 'I' for Inactive)
REMARK    1  A    between atoms: C_1  and  C_2
REMARK    2  A    between atoms: C_10  and  C_18
REMARK    3  A    between atoms: C_25  and  C_28
REMARK    4  A    between atoms: C_30  and  O_36
REMARK    5  A    between atoms: C_33  and  O_34
REMARK    6  A    between atoms: O_34  and  C_35
REMARK    7  A    between atoms: O_36  and  C_37
REMARK                            x       y       z     vdW  Elec       q    Type
REMARK                         _______ _______ _______ _____ _____    ______ ____
ROOT
ATOM      1  C   UNL     1       0.348   1.587   0.182  0.00  0.00    +0.044 C 
ATOM      2  C   UNL     1       0.313   0.080   0.154  0.00  0.00    -0.050 A 
ATOM      3  C   UNL     1       0.327  -0.587  -1.059  0.00  0.00    +0.007 A 
ATOM      4  C   UNL     1       0.296  -1.968  -1.101  0.00  0.00    +0.046 A 
ATOM      5  C   UNL     1       0.250  -2.693   0.078  0.00  0.00    +0.131 A 
ATOM      6  C   UNL     1       0.235  -2.017   1.305  0.00  0.00    +0.043 A 
ATOM      7  C   UNL     1       0.273  -0.630   1.338  0.00  0.00    +0.017 A 
ATOM      8  C   UNL     1       0.181  -2.823   2.550  0.00  0.00    +0.083 C 
ATOM      9  C   UNL     1      -0.174  -4.120   2.438  0.00  0.00    +0.028 C 
ATOM     10  C   UNL     1      -0.225  -4.955   3.698  0.00  0.00    +0.166 C 
ATOM     11  N   UNL     1       0.124  -4.260   4.946  0.00  0.00    -0.182 N 
ATOM     12  C   UNL     1       0.458  -2.938   4.890  0.00  0.00    +0.209 C 
ATOM     13  N   UNL     1       0.479  -2.277   3.754  0.00  0.00    -0.216 NA
ATOM     14  N   UNL     1       0.730  -2.555   6.178  0.00  0.00    -0.275 N 
ATOM     15  C   UNL     1       0.559  -3.647   6.995  0.00  0.00    +0.208 C 
ATOM     16  N   UNL     1       0.200  -4.664   6.280  0.00  0.00    -0.169 NA
ATOM     17  C   UNL     1      -0.516  -4.706   1.099  0.00  0.00    +0.238 C 
ATOM     18  O   UNL     1       0.222  -4.050   0.066  0.00  0.00    -0.479 OA
ATOM     19  H   UNL     1       0.996  -1.667   6.463  0.00  0.00    +0.156 HD
ENDROOT
BRANCH  10  20
ATOM     20  C   UNL     1       0.721  -6.115   3.531  0.00  0.00    +0.014 A 
ATOM     21  C   UNL     1       2.028  -6.011   3.969  0.00  0.00    +0.009 A 
ATOM     22  C   UNL     1       2.896  -7.076   3.816  0.00  0.00    +0.001 A 
ATOM     23  C   UNL     1       2.459  -8.246   3.224  0.00  0.00    +0.003 A 
ATOM     24  C   UNL     1       1.153  -8.353   2.786  0.00  0.00    +0.039 A 
ATOM     25  C   UNL     1       0.281  -7.289   2.944  0.00  0.00    +0.129 A 
ATOM     26  F   UNL     1      -0.998  -7.394   2.520  0.00  0.00    -0.205 F 
ENDBRANCH  10  20
BRANCH  17  27
ATOM     27  C   UNL     1      -1.990  -4.532   0.840  0.00  0.00    +0.042 A 
ATOM     28  C   UNL     1      -2.843  -4.226   1.883  0.00  0.00    +0.056 A 
ATOM     29  C   UNL     1      -4.200  -4.065   1.645  0.00  0.00    +0.121 A 
ATOM     30  C   UNL     1      -4.701  -4.213   0.359  0.00  0.00    +0.049 A 
ATOM     31  C   UNL     1      -3.848  -4.519  -0.683  0.00  0.00    +0.049 A 
ATOM     32  C   UNL     1      -2.490  -4.674  -0.446  0.00  0.00    +0.127 A 
BRANCH  32  33
ATOM     33  O   UNL     1      -1.650  -4.970  -1.473  0.00  0.00    -0.495 OA
ATOM     34  C   UNL     1      -2.233  -5.102  -2.771  0.00  0.00    +0.277 C 
ENDBRANCH  32  33
BRANCH  29  35
ATOM     35  O   UNL     1      -5.039  -3.764   2.671  0.00  0.00    -0.495 OA
ATOM     36  C   UNL     1      -6.425  -3.613   2.354  0.00  0.00    +0.277 C 
ENDBRANCH  29  35
ENDBRANCH  17  27
TORSDOF 4
