REMARK  Name = ZINC21502923
REMARK  6 active torsions:
REMARK  status: ('A' for Active; 'I' for Inactive)
REMARK    1  A    between atoms: C_1  and  C_2
REMARK    2  A    between atoms: C_2  and  C_4
REMARK    3  A    between atoms: C_2  and  N_21
REMARK    4  A    between atoms: C_7  and  S_10
REMARK    5  A    between atoms: S_10  and  N_13
REMARK    6  A    between atoms: N_13  and  C_14
REMARK                            x       y       z     vdW  Elec       q    Type
REMARK                         _______ _______ _______ _____ _____    ______ ____
ROOT
ATOM      1  C   UNL     1       0.584   1.157   0.337  0.00  0.00    -0.062 A 
ATOM      2  C   UNL     1      -0.708   0.667   0.319  0.00  0.00    +0.004 A 
ATOM      3  C   UNL     1      -1.777   1.540   0.235  0.00  0.00    +0.029 A 
ATOM      4  C   UNL     1      -1.554   2.903   0.180  0.00  0.00    +0.109 A 
ATOM      5  C   UNL     1      -0.261   3.392   0.199  0.00  0.00    +0.029 A 
ATOM      6  C   UNL     1       0.808   2.519   0.278  0.00  0.00    +0.004 A 
ENDROOT
BRANCH   4   7
ATOM      7  S   UNL     1      -2.916   4.015   0.080  0.00  0.00    +0.072 S 
ATOM      8  O   UNL     1      -4.062   3.294   0.511  0.00  0.00    -0.150 OA
ATOM      9  O   UNL     1      -2.500   5.224   0.700  0.00  0.00    -0.150 OA
BRANCH   7  10
ATOM     10  N   UNL     1      -3.150   4.361  -1.522  0.00  0.00    -0.216 N 
ATOM     11  H   UNL     1      -3.019   5.390  -1.888  0.00  0.00    +0.174 HD
BRANCH  10  12
ATOM     12  C   UNL     1      -3.513   3.345  -2.410  0.00  0.00    +0.048 A 
ATOM     13  C   UNL     1      -2.583   2.844  -3.312  0.00  0.00    +0.025 A 
ATOM     14  C   UNL     1      -2.943   1.837  -4.186  0.00  0.00    +0.017 A 
ATOM     15  C   UNL     1      -4.231   1.334  -4.170  0.00  0.00    +0.018 A 
ATOM     16  C   UNL     1      -5.162   1.834  -3.276  0.00  0.00    +0.017 A 
ATOM     17  C   UNL     1      -4.806   2.838  -2.397  0.00  0.00    +0.025 A 
ATOM     18 BR   UNL     1      -4.722  -0.041  -5.372  0.00  0.00    -0.050 Br
ENDBRANCH  10  12
ENDBRANCH   7  10
ENDBRANCH   4   7
BRANCH   1  20
ATOM     19  C   UNL     1       2.256   0.147   1.865  0.00  0.00    -0.009 C 
ATOM     20  C   UNL     1       1.749   0.205   0.423  0.00  0.00    -0.047 C 
BRANCH  20  21
ATOM     21  N   UNL     1       2.829   0.673  -0.457  0.00  0.00    +0.382 N 
ATOM     22  H   UNL     1       2.465   0.715  -1.494  0.00  0.00    -0.089 HD
ATOM     23  H   UNL     1       3.680  -0.022  -0.394  0.00  0.00    -0.089 HD
ATOM     24  H   UNL     1       3.151   1.676  -0.140  0.00  0.00    -0.089 HD
ENDBRANCH  20  21
ENDBRANCH   1  20
TORSDOF 5
