REMARK  Name = ZINC39794168
REMARK  4 active torsions:
REMARK  status: ('A' for Active; 'I' for Inactive)
REMARK    1  A    between atoms: C_1  and  C_2
REMARK    2  A    between atoms: C_5  and  N_8
REMARK    3  A    between atoms: C_12  and  C_13
REMARK    4  A    between atoms: C_16  and  C_18
REMARK                            x       y       z     vdW  Elec       q    Type
REMARK                         _______ _______ _______ _____ _____    ______ ____
ROOT
ATOM      1  N   UNL     1       0.057  -4.172  -0.021  0.00  0.00    -0.223 N 
ATOM      2  C   UNL     1       0.167  -4.828   1.121  0.00  0.00    +0.100 C 
ATOM      3  S   UNL     1       0.287  -3.991   2.610  0.00  0.00    -0.033 S 
ATOM      4  C   UNL     1       0.182  -6.255   1.076  0.00  0.00    +0.049 C 
ATOM      5  C   UNL     1       0.284  -7.155   2.097  0.00  0.00    +0.064 C 
ATOM      6  S   UNL     1       0.031  -6.542  -0.682  0.00  0.00    -0.028 S 
ATOM      7  C   UNL     1      -0.043  -4.832  -1.196  0.00  0.00    +0.288 C 
ATOM      8  O   UNL     1      -0.154  -4.378  -2.319  0.00  0.00    -0.262 OA
ENDROOT
BRANCH   1  13
ATOM      9  C   UNL     1      -0.016   1.503   0.013  0.00  0.00    +0.044 C 
ATOM     10  C   UNL     1       0.004  -0.004   0.003  0.00  0.00    -0.050 A 
ATOM     11  C   UNL     1      -1.181  -0.710   0.106  0.00  0.00    +0.005 A 
ATOM     12  C   UNL     1      -1.167  -2.091   0.098  0.00  0.00    +0.024 A 
ATOM     13  C   UNL     1       0.039  -2.771  -0.013  0.00  0.00    +0.043 A 
ATOM     14  C   UNL     1       1.227  -2.059  -0.116  0.00  0.00    +0.024 A 
ATOM     15  C   UNL     1       1.205  -0.678  -0.113  0.00  0.00    +0.005 A 
ENDBRANCH   1  13
BRANCH   5  16
ATOM     16  C   UNL     1       0.278  -8.540   1.820  0.00  0.00    +0.130 A 
ATOM     17  C   UNL     1       0.368  -9.554   2.757  0.00  0.00    +0.050 A 
ATOM     18  C   UNL     1       0.324 -10.760   2.055  0.00  0.00    +0.052 A 
ATOM     19  C   UNL     1       0.209 -10.443   0.718  0.00  0.00    +0.161 A 
ATOM     20  O   UNL     1       0.177  -9.101   0.598  0.00  0.00    -0.453 OA
BRANCH  19  21
ATOM     21  C   UNL     1       0.129 -11.405  -0.388  0.00  0.00    +0.144 A 
ATOM     22  N   UNL     1       0.143 -12.723  -0.342  0.00  0.00    -0.236 NA
ATOM     23  C   UNL     1       0.062 -13.485  -1.442  0.00  0.00    +0.079 A 
ATOM     24  C   UNL     1       0.067 -14.899  -1.528  0.00  0.00    +0.029 A 
ATOM     25  C   UNL     1      -0.023 -15.524  -2.731  0.00  0.00    +0.002 A 
ATOM     26  C   UNL     1      -0.123 -14.810  -3.918  0.00  0.00    +0.001 A 
ATOM     27  C   UNL     1      -0.132 -13.428  -3.880  0.00  0.00    +0.017 A 
ATOM     28  C   UNL     1      -0.042 -12.786  -2.669  0.00  0.00    +0.040 A 
ATOM     29  S   UNL     1      -0.021 -11.090  -2.141  0.00  0.00    -0.064 S 
ENDBRANCH  19  21
ENDBRANCH   5  16
TORSDOF 3
