REMARK  Name = ZINC09284423
REMARK  7 active torsions:
REMARK  status: ('A' for Active; 'I' for Inactive)
REMARK    1  A    between atoms: C_4  and  S_7
REMARK    2  A    between atoms: S_7  and  N_10
REMARK    3  A    between atoms: C_16  and  C_18
REMARK    4  A    between atoms: C_18  and  O_19
REMARK    5  A    between atoms: O_19  and  C_20
REMARK    6  A    between atoms: C_20  and  C_22
REMARK    7  A    between atoms: C_22  and  C_23
REMARK                            x       y       z     vdW  Elec       q    Type
REMARK                         _______ _______ _______ _____ _____    ______ ____
ROOT
ATOM      1  N   UNL     1      -3.348   1.260  -8.953  0.00  0.00    -0.174 NA
ATOM      2  C   UNL     1      -2.109   0.520  -9.232  0.00  0.00    +0.128 C 
ATOM      3  C   UNL     1      -2.046  -0.697  -8.301  0.00  0.00    +0.125 C 
ATOM      4  N   UNL     1      -2.310  -0.251  -6.926  0.00  0.00    -0.296 N 
ATOM      5  C   UNL     1      -3.552   0.484  -6.646  0.00  0.00    +0.125 C 
ATOM      6  C   UNL     1      -3.612   1.706  -7.578  0.00  0.00    +0.128 C 
ATOM      7  C   UNL     1      -1.433  -0.517  -5.938  0.00  0.00    +0.253 C 
ATOM      8  O   UNL     1      -0.414  -1.129  -6.180  0.00  0.00    -0.272 OA
ENDROOT
BRANCH   1   9
ATOM      9  S   UNL     1      -4.427   1.585 -10.167  0.00  0.00    +0.061 S 
ATOM     10  O   UNL     1      -5.171   2.723  -9.755  0.00  0.00    -0.153 OA
ATOM     11  O   UNL     1      -3.691   1.555 -11.382  0.00  0.00    -0.153 OA
BRANCH   9  15
ATOM     12  C   UNL     1      -7.340  -1.875 -10.331  0.00  0.00    +0.000 A 
ATOM     13  C   UNL     1      -7.606  -0.785  -9.524  0.00  0.00    +0.002 A 
ATOM     14  C   UNL     1      -6.716   0.271  -9.473  0.00  0.00    +0.028 A 
ATOM     15  C   UNL     1      -5.561   0.238 -10.230  0.00  0.00    +0.105 A 
ATOM     16  C   UNL     1      -5.297  -0.849 -11.042  0.00  0.00    +0.028 A 
ATOM     17  C   UNL     1      -6.184  -1.909 -11.088  0.00  0.00    +0.002 A 
ENDBRANCH   9  15
ENDBRANCH   1   9
BRANCH   7  18
ATOM     18  C   UNL     1      -1.718  -0.053  -4.532  0.00  0.00    +0.327 C 
BRANCH  18  19
ATOM     19  O   UNL     1      -0.630  -0.458  -3.659  0.00  0.00    -0.455 OA
BRANCH  19  20
ATOM     20  C   UNL     1      -0.730  -0.120  -2.364  0.00  0.00    +0.309 C 
ATOM     21  O   UNL     1      -1.694   0.495  -1.973  0.00  0.00    -0.251 OA
BRANCH  20  22
ATOM     22  C   UNL     1       0.360  -0.507  -1.398  0.00  0.00    +0.144 C 
BRANCH  22  23
ATOM     23  C   UNL     1       0.002  -0.004   0.002  0.00  0.00    +0.148 C 
ATOM     24  C   UNL     1       1.040  -0.471   0.989  0.00  0.00    +0.231 C 
ATOM     25  O   UNL     1       0.802  -1.456   1.655  0.00  0.00    -0.274 OA
ATOM     26  N   UNL     1       2.204   0.145   1.165  0.00  0.00    -0.284 N 
ATOM     27  C   UNL     1       2.610   1.340   0.579  0.00  0.00    +0.047 A 
ATOM     28  C   UNL     1       3.957   1.684   0.591  0.00  0.00    +0.024 A 
ATOM     29  C   UNL     1       4.382   2.862   0.010  0.00  0.00    +0.002 A 
ATOM     30  C   UNL     1       3.473   3.719  -0.582  0.00  0.00    +0.001 A 
ATOM     31  C   UNL     1       2.127   3.400  -0.585  0.00  0.00    +0.016 A 
ATOM     32  C   UNL     1       1.696   2.220  -0.002  0.00  0.00    +0.030 A 
ATOM     33  S   UNL     1      -0.023   1.815   0.012  0.00  0.00    -0.110 S 
ATOM     34  H   UNL     1       2.837  -0.282   1.764  0.00  0.00    +0.155 HD
ENDBRANCH  22  23
ENDBRANCH  20  22
ENDBRANCH  19  20
ENDBRANCH  18  19
ENDBRANCH   7  18
TORSDOF 7
