REMARK  Name = ZINC64058603
REMARK  7 active torsions:
REMARK  status: ('A' for Active; 'I' for Inactive)
REMARK    1  A    between atoms: C_6  and  C_11
REMARK    2  A    between atoms: C_11  and  N_12
REMARK    3  A    between atoms: N_15  and  C_22
REMARK    4  A    between atoms: C_16  and  C_19
REMARK    5  A    between atoms: C_19  and  C_20
REMARK    6  A    between atoms: C_20  and  O_21
REMARK    7  A    between atoms: C_22  and  C_23
REMARK                            x       y       z     vdW  Elec       q    Type
REMARK                         _______ _______ _______ _____ _____    ______ ____
ROOT
ATOM      1  N   UNL     1       5.153  -2.706   1.143  0.00  0.00    -0.303 NA
ATOM      2  C   UNL     1       5.857  -3.466   0.101  0.00  0.00    +0.066 C 
ATOM      3  C   UNL     1       7.358  -3.183   0.193  0.00  0.00    -0.062 C 
ATOM      4  N   UNL     1       7.849  -3.571   1.522  0.00  0.00    +0.386 N 
ATOM      5  C   UNL     1       7.154  -2.786   2.550  0.00  0.00    -0.052 C 
ATOM      6  C   UNL     1       5.652  -3.065   2.478  0.00  0.00    +0.069 C 
ATOM      7  H   UNL     1       7.672  -4.553   1.672  0.00  0.00    -0.081 HD
ENDROOT
BRANCH   1   8
ATOM      8  C   UNL     1       3.701  -2.907   1.051  0.00  0.00    +0.113 C 
BRANCH   8  14
ATOM      9  C   UNL     1      -0.097   0.981  -0.506  0.00  0.00    +0.001 A 
ATOM     10  C   UNL     1       1.057   1.776  -0.544  0.00  0.00    +0.002 A 
ATOM     11  C   UNL     1       2.302   1.256  -0.494  0.00  0.00    +0.026 A 
ATOM     12  C   UNL     1       2.491  -0.150  -0.400  0.00  0.00    +0.043 A 
ATOM     13  N   UNL     1       3.576  -0.883  -0.339  0.00  0.00    -0.377 N 
ATOM     14  C   UNL     1       3.183  -2.294  -0.252  0.00  0.00    +0.117 C 
ATOM     15  C   UNL     1       1.671  -2.305  -0.269  0.00  0.00    +0.008 C 
ATOM     16  C   UNL     1       1.287  -1.011  -0.358  0.00  0.00    -0.004 A 
ATOM     17  C   UNL     1      -0.030  -0.366  -0.416  0.00  0.00    +0.010 A 
ATOM     18  H   UNL     1       4.486  -0.549  -0.350  0.00  0.00    +0.160 HD
ENDBRANCH   8  14
ENDBRANCH   1   8
BRANCH   5  19
ATOM     19  C   UNL     1       7.680  -3.178   3.933  0.00  0.00    +0.014 C 
BRANCH  19  20
ATOM     20  C   UNL     1       7.007  -2.311   4.999  0.00  0.00    +0.154 C 
BRANCH  20  21
ATOM     21  O   UNL     1       7.586  -2.589   6.275  0.00  0.00    -0.395 OA
ATOM     22  H   UNL     1       7.207  -2.074   7.000  0.00  0.00    +0.209 HD
ENDBRANCH  20  21
ENDBRANCH  19  20
ENDBRANCH   5  19
BRANCH   4  23
ATOM     23  C   UNL     1       9.293  -3.316   1.604  0.00  0.00    -0.040 C 
BRANCH  23  24
ATOM     24  C   UNL     1      10.018  -4.212   0.632  0.00  0.00    -0.029 A 
ATOM     25  C   UNL     1      10.625  -5.370   1.079  0.00  0.00    +0.004 A 
ATOM     26  C   UNL     1      11.289  -6.191   0.188  0.00  0.00    +0.000 A 
ATOM     27  C   UNL     1      11.347  -5.856  -1.152  0.00  0.00    +0.003 A 
ATOM     28  C   UNL     1      10.740  -4.699  -1.602  0.00  0.00    +0.038 A 
ATOM     29  C   UNL     1      10.070  -3.877  -0.711  0.00  0.00    +0.125 A 
ATOM     30  F   UNL     1       9.472  -2.748  -1.150  0.00  0.00    -0.205 F 
ENDBRANCH  23  24
ENDBRANCH   4  23
TORSDOF 7
