REMARK  Name = ZINC35870977
REMARK  6 active torsions:
REMARK  status: ('A' for Active; 'I' for Inactive)
REMARK    1  A    between atoms: C_3  and  C_8
REMARK    2  A    between atoms: C_8  and  N_9
REMARK    3  A    between atoms: C_10  and  C_12
REMARK    4  A    between atoms: C_17  and  N_36
REMARK    5  A    between atoms: N_25  and  C_28
REMARK    6  A    between atoms: C_28  and  C_29
REMARK                            x       y       z     vdW  Elec       q    Type
REMARK                         _______ _______ _______ _____ _____    ______ ____
ROOT
ATOM      1  C   UNL     1       5.688   3.358   3.014  0.00  0.00    +0.098 C 
ATOM      2  C   UNL     1       4.618   4.163   3.749  0.00  0.00    +0.051 C 
ATOM      3  C   UNL     1       4.509   5.533   3.131  0.00  0.00    -0.023 A 
ATOM      4  C   UNL     1       3.317   6.229   3.236  0.00  0.00    +0.038 A 
ATOM      5  C   UNL     1       3.195   7.484   2.671  0.00  0.00    +0.127 A 
ATOM      6  C   UNL     1       4.263   8.050   1.998  0.00  0.00    +0.034 A 
ATOM      7  C   UNL     1       5.455   7.361   1.893  0.00  0.00    +0.025 A 
ATOM      8  C   UNL     1       5.581   6.098   2.463  0.00  0.00    +0.033 A 
ATOM      9  N   UNL     1       6.809   5.427   2.349  0.00  0.00    -0.329 N 
ATOM     10  C   UNL     1       7.004   4.144   3.006  0.00  0.00    +0.069 C 
ATOM     11  C   UNL     1       8.084   3.291   2.361  0.00  0.00    -0.055 C 
ATOM     12  N   UNL     1       9.223   4.094   1.918  0.00  0.00    +0.385 N 
ATOM     13  C   UNL     1       8.763   5.053   0.902  0.00  0.00    -0.059 C 
ATOM     14  C   UNL     1       7.870   6.088   1.583  0.00  0.00    +0.087 C 
ATOM     15  H   UNL     1       9.610   4.595   2.704  0.00  0.00    -0.081 HD
ENDROOT
BRANCH   1  17
ATOM     16  N   UNL     1       4.104   2.429   1.357  0.00  0.00    -0.311 N 
ATOM     17  C   UNL     1       5.244   3.107   1.596  0.00  0.00    +0.218 C 
ATOM     18  O   UNL     1       5.911   3.517   0.670  0.00  0.00    -0.275 OA
ATOM     19  H   UNL     1       3.570   2.102   2.098  0.00  0.00    +0.149 HD
BRANCH  16  20
ATOM     20  C   UNL     1       3.672   2.186  -0.021  0.00  0.00    +0.139 C 
BRANCH  20  23
ATOM     21  C   UNL     1      -0.017   1.377   0.010  0.00  0.00    +0.003 A 
ATOM     22  C   UNL     1       1.171   2.086   0.002  0.00  0.00    +0.005 A 
ATOM     23  C   UNL     1       2.378   1.413  -0.013  0.00  0.00    -0.028 A 
ATOM     24  C   UNL     1       2.399   0.030  -0.021  0.00  0.00    +0.043 A 
ATOM     25  C   UNL     1       1.211  -0.679  -0.013  0.00  0.00    +0.124 A 
ATOM     26  C   UNL     1       0.002  -0.004   0.002  0.00  0.00    +0.038 A 
ATOM     27  F   UNL     1       1.230  -2.030  -0.022  0.00  0.00    -0.205 F 
ENDBRANCH  20  23
ENDBRANCH  16  20
ENDBRANCH   1  17
BRANCH   5  28
ATOM     28  N   UNL     1       1.919   8.225   2.785  0.00  0.00    +0.056 N 
ATOM     29  O   UNL     1       0.984   7.732   3.373  0.00  0.00    -0.126 OA
ATOM     30  O   UNL     1       1.811   9.323   2.292  0.00  0.00    -0.126 OA
ENDBRANCH   5  28
BRANCH  12  31
ATOM     31  C   UNL     1      10.248   3.217   1.337  0.00  0.00    -0.043 C 
BRANCH  31  32
ATOM     32  C   UNL     1      11.470   4.030   0.994  0.00  0.00    -0.064 A 
ATOM     33  C   UNL     1      11.584   4.612  -0.254  0.00  0.00    +0.003 A 
ATOM     34  C   UNL     1      12.704   5.358  -0.570  0.00  0.00    +0.020 A 
ATOM     35  C   UNL     1      13.711   5.522   0.365  0.00  0.00    +0.041 A 
ATOM     36  C   UNL     1      13.596   4.939   1.614  0.00  0.00    +0.020 A 
ATOM     37  C   UNL     1      12.473   4.198   1.930  0.00  0.00    +0.003 A 
ATOM     38 CL   UNL     1      15.118   6.458  -0.031  0.00  0.00    -0.084 Cl
ENDBRANCH  31  32
ENDBRANCH  12  31
TORSDOF 6
