REMARK  Name = ZINC07913682
REMARK  8 active torsions:
REMARK  status: ('A' for Active; 'I' for Inactive)
REMARK    1  A    between atoms: C_1  and  C_2
REMARK    2  A    between atoms: C_2  and  C_3
REMARK    3  A    between atoms: C_2  and  C_4
REMARK    4  A    between atoms: C_4  and  C_6
REMARK    5  A    between atoms: C_4  and  N_19
REMARK    6  A    between atoms: N_8  and  N_9
REMARK    7  A    between atoms: C_10  and  C_12
REMARK    8  A    between atoms: C_20  and  C_22
REMARK                            x       y       z     vdW  Elec       q    Type
REMARK                         _______ _______ _______ _____ _____    ______ ____
ROOT
ATOM      1  C   UNL     1       0.236   1.009   2.301  0.00  0.00    +0.163 C 
ENDROOT
BRANCH   1   2
ATOM      2  C   UNL     1      -0.134   1.533   3.665  0.00  0.00    +0.250 C 
ATOM      3  O   UNL     1      -0.702   0.812   4.457  0.00  0.00    -0.272 OA
ATOM      4  N   UNL     1       0.166   2.802   4.003  0.00  0.00    -0.233 N 
ATOM      5  H   UNL     1       0.684   3.356   3.398  0.00  0.00    +0.173 HD
BRANCH   4   6
ATOM      6  N   UNL     1      -0.270   3.322   5.229  0.00  0.00    -0.230 N 
ATOM      7  C   UNL     1       0.030   4.592   5.567  0.00  0.00    +0.260 C 
ATOM      8  O   UNL     1       0.679   5.286   4.809  0.00  0.00    -0.269 OA
ATOM      9  H   UNL     1      -0.788   2.768   5.834  0.00  0.00    +0.173 HD
BRANCH   7  10
ATOM     10  C   UNL     1      -0.430   5.140   6.860  0.00  0.00    +0.038 A 
ATOM     11  C   UNL     1      -1.180   4.346   7.730  0.00  0.00    +0.016 A 
ATOM     12  C   UNL     1      -1.601   4.861   8.938  0.00  0.00    +0.039 A 
ATOM     13  C   UNL     1      -1.292   6.167   9.284  0.00  0.00    +0.123 A 
ATOM     14  C   UNL     1      -0.552   6.961   8.421  0.00  0.00    +0.039 A 
ATOM     15  C   UNL     1      -0.120   6.455   7.213  0.00  0.00    +0.016 A 
ATOM     16  F   UNL     1      -1.712   6.668  10.466  0.00  0.00    -0.205 F 
ENDBRANCH   7  10
ENDBRANCH   4   6
ENDBRANCH   1   2
BRANCH   1  17
ATOM     17  N   UNL     1       0.417  -0.443   2.368  0.00  0.00    -0.303 N 
ATOM     18  C   UNL     1       1.208  -1.066   1.471  0.00  0.00    +0.220 C 
ATOM     19  O   UNL     1       1.769  -0.424   0.609  0.00  0.00    -0.275 OA
ATOM     20  H   UNL     1      -0.031  -0.957   3.058  0.00  0.00    +0.149 HD
BRANCH  18  21
ATOM     21  C   UNL     1       1.394  -2.560   1.540  0.00  0.00    +0.048 C 
ATOM     22  C   UNL     1       0.039  -3.251   1.381  0.00  0.00    +0.019 C 
ATOM     23  C   UNL     1       0.228  -4.767   1.451  0.00  0.00    -0.009 C 
ATOM     24  C   UNL     1       1.165  -5.217   0.328  0.00  0.00    +0.007 C 
ATOM     25  C   UNL     1       2.521  -4.526   0.487  0.00  0.00    -0.009 C 
ATOM     26  C   UNL     1       2.331  -3.009   0.417  0.00  0.00    +0.019 C 
ATOM     27  C   UNL     1       3.129  -4.902   1.840  0.00  0.00    +0.007 C 
ATOM     28  C   UNL     1       2.192  -4.452   2.963  0.00  0.00    -0.009 C 
ATOM     29  C   UNL     1       0.837  -5.143   2.804  0.00  0.00    +0.007 C 
ATOM     30  C   UNL     1       2.003  -2.936   2.893  0.00  0.00    +0.019 C 
ENDBRANCH  18  21
ENDBRANCH   1  17
BRANCH   1  32
ATOM     31  C   UNL     1      -0.482   0.852  -0.087  0.00  0.00    +0.009 C 
ATOM     32  C   UNL     1      -0.881   1.338   1.308  0.00  0.00    +0.012 C 
ATOM     33  C   UNL     1      -1.105   2.851   1.276  0.00  0.00    +0.009 C 
ENDBRANCH   1  32
TORSDOF 6
