REMARK  Name = ZINC63029375
REMARK  10 active torsions:
REMARK  status: ('A' for Active; 'I' for Inactive)
REMARK    1  A    between atoms: C_1  and  C_2
REMARK    2  A    between atoms: C_2  and  C_3
REMARK    3  A    between atoms: C_3  and  C_4
REMARK    4  A    between atoms: C_4  and  C_6
REMARK    5  A    between atoms: C_4  and  N_20
REMARK    6  A    between atoms: C_6  and  C_7
REMARK    7  A    between atoms: C_10  and  S_13
REMARK    8  A    between atoms: S_13  and  C_16
REMARK    9  A    between atoms: N_20  and  C_21
REMARK   10  A    between atoms: C_21  and  C_22
REMARK                            x       y       z     vdW  Elec       q    Type
REMARK                         _______ _______ _______ _____ _____    ______ ____
ROOT
ATOM      1  C   UNL     1      -2.858  -4.313  -0.142  0.00  0.00    -0.049 A 
ATOM      2  C   UNL     1      -2.629  -5.089  -1.263  0.00  0.00    +0.005 A 
ATOM      3  C   UNL     1      -2.616  -6.468  -1.158  0.00  0.00    +0.027 A 
ATOM      4  C   UNL     1      -2.832  -7.070   0.067  0.00  0.00    +0.098 A 
ATOM      5  C   UNL     1      -3.061  -6.294   1.188  0.00  0.00    +0.027 A 
ATOM      6  C   UNL     1      -3.069  -4.915   1.084  0.00  0.00    +0.005 A 
ENDROOT
BRANCH   4   7
ATOM      7  S   UNL     1      -2.817  -8.827   0.201  0.00  0.00    +0.091 S 
ATOM      8  O   UNL     1      -3.636  -9.112   1.327  0.00  0.00    -0.161 OA
ATOM      9  O   UNL     1      -3.177  -9.291  -1.093  0.00  0.00    -0.161 OA
BRANCH   7  10
ATOM     10  C   UNL     1      -1.091  -9.252   0.559  0.00  0.00    +0.526 C 
ATOM     11  F   UNL     1      -0.698  -8.639   1.754  0.00  0.00    -0.150 F 
ATOM     12  F   UNL     1      -0.969 -10.640   0.685  0.00  0.00    -0.150 F 
ATOM     13  F   UNL     1      -0.274  -8.805  -0.485  0.00  0.00    -0.150 F 
ENDBRANCH   7  10
ENDBRANCH   4   7
BRANCH   1  14
ATOM     14  C   UNL     1      -2.872  -2.811  -0.256  0.00  0.00    +0.019 C 
BRANCH  14  15
ATOM     15  C   UNL     1      -1.458  -2.269  -0.034  0.00  0.00    -0.068 C 
BRANCH  15  16
ATOM     16  N   UNL     1      -1.037  -2.550   1.345  0.00  0.00    +0.381 N 
ATOM     17  H   UNL     1      -1.621  -2.035   1.986  0.00  0.00    -0.086 HD
ATOM     18  H   UNL     1      -1.126  -3.538   1.529  0.00  0.00    -0.086 HD
BRANCH  16  19
ATOM     19  C   UNL     1       0.363  -2.144   1.521  0.00  0.00    -0.086 C 
ATOM     20  C   UNL     1       0.839  -2.545   2.919  0.00  0.00    -0.017 C 
ENDBRANCH  16  19
ENDBRANCH  15  16
BRANCH  15  21
ATOM     21  C   UNL     1      -1.448  -0.758  -0.273  0.00  0.00    -0.016 C 
BRANCH  21  23
ATOM     22  C   UNL     1      -1.630   1.029  -2.009  0.00  0.00    +0.004 C 
ATOM     23  C   UNL     1      -1.766  -0.471  -1.742  0.00  0.00    -0.005 C 
ENDBRANCH  21  23
ENDBRANCH  15  21
ENDBRANCH  14  15
ENDBRANCH   1  14
TORSDOF 8
