REMARK  Name = ZINC27249865
REMARK  10 active torsions:
REMARK  status: ('A' for Active; 'I' for Inactive)
REMARK    1  A    between atoms: C_1  and  C_2
REMARK    2  A    between atoms: C_2  and  C_3
REMARK    3  A    between atoms: C_3  and  C_4
REMARK    4  A    between atoms: C_3  and  C_12
REMARK    5  A    between atoms: C_3  and  O_28
REMARK    6  A    between atoms: C_7  and  O_10
REMARK    7  A    between atoms: O_10  and  C_11
REMARK    8  A    between atoms: C_12  and  C_14
REMARK    9  A    between atoms: C_12  and  C_21
REMARK   10  A    between atoms: C_14  and  N_15
REMARK                            x       y       z     vdW  Elec       q    Type
REMARK                         _______ _______ _______ _____ _____    ______ ____
ROOT
ATOM      1  C   UNL     1      -0.050   1.591  -1.054  0.00  0.00    +0.039 C 
ENDROOT
BRANCH   1   2
ATOM      2  C   UNL     1       0.149   3.084  -1.102  0.00  0.00    -0.043 A 
ATOM      3  C   UNL     1       1.360   3.606  -1.517  0.00  0.00    +0.005 A 
ATOM      4  C   UNL     1       1.542   4.976  -1.566  0.00  0.00    +0.020 A 
ATOM      5  C   UNL     1       0.515   5.823  -1.189  0.00  0.00    +0.041 A 
ATOM      6  C   UNL     1      -0.694   5.300  -0.768  0.00  0.00    +0.020 A 
ATOM      7  C   UNL     1      -0.877   3.930  -0.725  0.00  0.00    +0.005 A 
ATOM      8 CL   UNL     1       0.746   7.543  -1.243  0.00  0.00    -0.084 Cl
ENDBRANCH   1   2
BRANCH   1   9
ATOM      9  C   UNL     1      -0.016   1.026  -2.476  0.00  0.00    +0.096 C 
BRANCH   9  10
ATOM     10  C   UNL     1      -0.291  -0.455  -2.435  0.00  0.00    -0.015 A 
ATOM     11  C   UNL     1      -1.458  -0.924  -1.861  0.00  0.00    +0.010 A 
ATOM     12  C   UNL     1      -1.716  -2.280  -1.828  0.00  0.00    +0.046 A 
ATOM     13  C   UNL     1      -0.797  -3.173  -2.360  0.00  0.00    +0.120 A 
ATOM     14  C   UNL     1       0.376  -2.700  -2.930  0.00  0.00    +0.046 A 
ATOM     15  C   UNL     1       0.626  -1.342  -2.967  0.00  0.00    +0.010 A 
BRANCH  13  16
ATOM     16  O   UNL     1      -1.046  -4.509  -2.322  0.00  0.00    -0.495 OA
ATOM     17  C   UNL     1      -2.273  -4.924  -1.720  0.00  0.00    +0.277 C 
ENDBRANCH  13  16
ENDBRANCH   9  10
BRANCH   9  19
ATOM     18  C   UNL     1      -1.030   1.174  -4.755  0.00  0.00    +0.007 C 
ATOM     19  C   UNL     1      -1.081   1.720  -3.327  0.00  0.00    +0.037 C 
ENDBRANCH   9  19
BRANCH   9  20
ATOM     20  O   UNL     1       1.274   1.255  -3.048  0.00  0.00    -0.383 OA
ATOM     21  H   UNL     1       2.170   0.831  -2.571  0.00  0.00    +0.211 HD
ENDBRANCH   9  20
ENDBRANCH   1   9
BRANCH   1  22
ATOM     22  C   UNL     1       1.066   0.953  -0.225  0.00  0.00    -0.068 C 
BRANCH  22  23
ATOM     23  N   UNL     1       0.979   1.430   1.162  0.00  0.00    +0.380 N 
ATOM     24  C   UNL     1       2.249   1.223   1.870  0.00  0.00    -0.079 C 
ATOM     25  C   UNL     1       2.170   1.861   3.259  0.00  0.00    -0.019 C 
ATOM     26  C   UNL     1       1.018   1.225   4.042  0.00  0.00    -0.004 C 
ATOM     27  C   UNL     1      -0.285   1.413   3.260  0.00  0.00    -0.019 C 
ATOM     28  C   UNL     1      -0.135   0.788   1.871  0.00  0.00    -0.079 C 
ATOM     29  H   UNL     1       0.782   2.512   1.137  0.00  0.00    -0.082 HD
ENDBRANCH  22  23
ENDBRANCH   1  22
TORSDOF 8
