REMARK  Name = ZINC04390541
REMARK  11 active torsions:
REMARK  status: ('A' for Active; 'I' for Inactive)
REMARK    1  A    between atoms: C_1  and  C_2
REMARK    2  A    between atoms: C_5  and  C_8
REMARK    3  A    between atoms: N_9  and  O_10
REMARK    4  A    between atoms: O_10  and  C_11
REMARK    5  A    between atoms: C_11  and  C_13
REMARK    6  A    between atoms: C_13  and  C_15
REMARK    7  A    between atoms: C_13  and  C_16
REMARK    8  A    between atoms: C_19  and  C_22
REMARK    9  A    between atoms: C_22  and  C_23
REMARK   10  A    between atoms: C_23  and  C_24
REMARK   11  A    between atoms: C_23  and  C_25
REMARK                            x       y       z     vdW  Elec       q    Type
REMARK                         _______ _______ _______ _____ _____    ______ ____
ROOT
ATOM      1  C   UNL     1       0.105  -6.878   2.317  0.00  0.00    +0.343 C 
ATOM      2  O   UNL     1       0.101  -6.171   3.301  0.00  0.00    -0.248 OA
ENDROOT
BRANCH   1   3
ATOM      3  C   UNL     1       0.126  -8.377   2.466  0.00  0.00    +0.127 C 
ATOM      4  C   UNL     1      -1.119  -8.973   1.805  0.00  0.00    +0.024 C 
BRANCH   3   5
ATOM      5  C   UNL     1       0.138  -8.736   3.929  0.00  0.00    -0.034 A 
ATOM      6  C   UNL     1      -0.903  -8.338   4.747  0.00  0.00    +0.005 A 
ATOM      7  C   UNL     1      -0.892  -8.668   6.090  0.00  0.00    +0.004 A 
ATOM      8  C   UNL     1       0.160  -9.395   6.614  0.00  0.00    -0.047 A 
ATOM      9  C   UNL     1       1.200  -9.794   5.796  0.00  0.00    +0.004 A 
ATOM     10  C   UNL     1       1.187  -9.468   4.453  0.00  0.00    +0.005 A 
BRANCH   8  11
ATOM     11  C   UNL     1       0.172  -9.753   8.078  0.00  0.00    +0.038 C 
BRANCH  11  12
ATOM     12  C   UNL     1      -0.525 -11.100   8.280  0.00  0.00    -0.013 C 
ATOM     13  C   UNL     1      -0.404 -11.523   9.745  0.00  0.00    +0.007 C 
ATOM     14  C   UNL     1      -2.003 -10.970   7.907  0.00  0.00    +0.007 C 
ENDBRANCH  11  12
ENDBRANCH   8  11
ENDBRANCH   3   5
ENDBRANCH   1   3
BRANCH   1  15
ATOM     15  O   UNL     1       0.092  -6.326   1.095  0.00  0.00    -0.315 OA
BRANCH  15  17
ATOM     16  C   UNL     1       0.059  -4.253  -0.021  0.00  0.00    +0.163 C 
ATOM     17  N   UNL     1       0.073  -4.910   1.102  0.00  0.00    -0.059 NA
ATOM     18  N   UNL     1       0.062  -4.938  -1.223  0.00  0.00    -0.340 N 
ATOM     19  H   UNL     1       0.052  -4.448  -2.060  0.00  0.00    +0.144 HD
ATOM     20  H   UNL     1       0.075  -5.908  -1.228  0.00  0.00    +0.144 HD
BRANCH  16  25
ATOM     21  C   UNL     1      -0.018   1.503   0.010  0.00  0.00    +0.044 C 
ATOM     22  C   UNL     1       0.002  -0.004   0.002  0.00  0.00    -0.050 A 
ATOM     23  C   UNL     1       0.006  -0.686  -1.202  0.00  0.00    +0.004 A 
ATOM     24  C   UNL     1       0.024  -2.066  -1.216  0.00  0.00    +0.011 A 
ATOM     25  C   UNL     1       0.040  -2.773  -0.013  0.00  0.00    +0.018 A 
ATOM     26  C   UNL     1       0.036  -2.079   1.197  0.00  0.00    +0.011 A 
ATOM     27  C   UNL     1       0.023  -0.699   1.198  0.00  0.00    +0.004 A 
ENDBRANCH  16  25
ENDBRANCH  15  17
ENDBRANCH   1  15
TORSDOF 7
