REMARK  Name = ZINC64945245
REMARK  8 active torsions:
REMARK  status: ('A' for Active; 'I' for Inactive)
REMARK    1  A    between atoms: C_6  and  C_7
REMARK    2  A    between atoms: C_7  and  C_8
REMARK    3  A    between atoms: C_8  and  N_9
REMARK    4  A    between atoms: C_10  and  C_12
REMARK    5  A    between atoms: C_12  and  S_13
REMARK    6  A    between atoms: S_13  and  C_14
REMARK    7  A    between atoms: N_20  and  C_21
REMARK    8  A    between atoms: C_21  and  C_22
REMARK                            x       y       z     vdW  Elec       q    Type
REMARK                         _______ _______ _______ _____ _____    ______ ____
ROOT
ATOM      1  C   UNL     1      -6.931  -4.085  -4.104  0.00  0.00    +0.120 A 
ATOM      2  C   UNL     1      -7.637  -4.499  -5.235  0.00  0.00    +0.040 A 
ATOM      3  C   UNL     1      -8.814  -5.201  -5.044  0.00  0.00    +0.048 A 
ATOM      4  C   UNL     1      -9.222  -5.452  -3.733  0.00  0.00    +0.142 A 
ATOM      5  N   UNL     1      -8.488  -5.020  -2.721  0.00  0.00    -0.133 NA
ATOM      6  N   UNL     1      -7.393  -4.373  -2.897  0.00  0.00    -0.141 NA
ATOM      7  N   UNL     1     -10.400  -6.155  -3.490  0.00  0.00    -0.324 N 
ATOM      8  H   UNL     1     -10.683  -6.329  -2.579  0.00  0.00    +0.148 HD
ENDROOT
BRANCH   1   9
ATOM      9  S   UNL     1      -5.426  -3.187  -4.282  0.00  0.00    -0.095 S 
BRANCH   9  10
ATOM     10  C   UNL     1      -4.889  -2.887  -2.575  0.00  0.00    +0.171 C 
BRANCH  10  12
ATOM     11  N   UNL     1      -3.004  -1.778  -1.420  0.00  0.00    -0.314 N 
ATOM     12  C   UNL     1      -3.595  -2.116  -2.584  0.00  0.00    +0.223 C 
ATOM     13  O   UNL     1      -3.084  -1.800  -3.637  0.00  0.00    -0.275 OA
ATOM     14  H   UNL     1      -3.413  -2.030  -0.578  0.00  0.00    +0.149 HD
BRANCH  11  15
ATOM     15  C   UNL     1      -1.745  -1.028  -1.429  0.00  0.00    +0.109 C 
BRANCH  15  16
ATOM     16  C   UNL     1      -1.293  -0.775   0.011  0.00  0.00    +0.054 C 
BRANCH  16  22
ATOM     17  C   UNL     1      -0.017   1.378   0.010  0.00  0.00    +0.005 A 
ATOM     18  C   UNL     1       1.171   2.086   0.002  0.00  0.00    +0.020 A 
ATOM     19  C   UNL     1       2.378   1.410  -0.013  0.00  0.00    +0.041 A 
ATOM     20  C   UNL     1       2.396   0.027  -0.021  0.00  0.00    +0.020 A 
ATOM     21  C   UNL     1       1.208  -0.679  -0.013  0.00  0.00    +0.005 A 
ATOM     22  C   UNL     1       0.002  -0.004   0.002  0.00  0.00    -0.046 A 
ATOM     23 CL   UNL     1       3.870   2.298  -0.023  0.00  0.00    -0.084 Cl
ENDBRANCH  16  22
ENDBRANCH  15  16
ENDBRANCH  11  15
ENDBRANCH  10  12
ENDBRANCH   9  10
ENDBRANCH   1   9
BRANCH   7  24
ATOM     24  C   UNL     1     -11.213  -6.632  -4.612  0.00  0.00    +0.138 C 
BRANCH  24  25
ATOM     25  C   UNL     1     -12.424  -7.356  -4.084  0.00  0.00    -0.027 A 
ATOM     26  C   UNL     1     -12.364  -8.716  -3.842  0.00  0.00    +0.009 A 
ATOM     27  C   UNL     1     -13.472  -9.385  -3.357  0.00  0.00    +0.050 A 
ATOM     28  C   UNL     1     -14.646  -8.693  -3.111  0.00  0.00    +0.166 A 
ATOM     29  C   UNL     1     -14.707  -7.323  -3.354  0.00  0.00    +0.167 A 
ATOM     30  C   UNL     1     -13.591  -6.658  -3.836  0.00  0.00    +0.054 A 
ATOM     31  O   UNL     1     -15.958  -6.879  -3.037  0.00  0.00    -0.453 OA
ATOM     32  C   UNL     1     -16.783  -8.058  -2.985  0.00  0.00    +0.466 C 
ATOM     33  O   UNL     1     -15.859  -9.107  -2.641  0.00  0.00    -0.453 OA
ENDBRANCH  24  25
ENDBRANCH   7  24
TORSDOF 8
