REMARK  Name = ZINC20476956
REMARK  8 active torsions:
REMARK  status: ('A' for Active; 'I' for Inactive)
REMARK    1  A    between atoms: C_1  and  O_2
REMARK    2  A    between atoms: O_2  and  C_3
REMARK    3  A    between atoms: C_5  and  C_20
REMARK    4  A    between atoms: C_8  and  O_9
REMARK    5  A    between atoms: O_9  and  C_10
REMARK    6  A    between atoms: C_10  and  C_11
REMARK    7  A    between atoms: C_20  and  N_21
REMARK    8  A    between atoms: N_21  and  C_22
REMARK                            x       y       z     vdW  Elec       q    Type
REMARK                         _______ _______ _______ _____ _____    ______ ____
ROOT
ATOM      1  C   UNL     1      -0.561   0.005   2.998  0.00  0.00    +0.163 A 
ATOM      2  C   UNL     1      -0.011  -0.365   4.215  0.00  0.00    +0.054 A 
ATOM      3  C   UNL     1       0.938   0.440   4.819  0.00  0.00    -0.029 A 
ATOM      4  C   UNL     1       1.344   1.612   4.208  0.00  0.00    +0.024 A 
ATOM      5  C   UNL     1       0.803   1.984   2.991  0.00  0.00    +0.063 A 
ATOM      6  C   UNL     1      -0.148   1.182   2.381  0.00  0.00    +0.176 A 
ATOM      7 BR   UNL     1       1.363   3.588   2.159  0.00  0.00    -0.046 Br
ENDROOT
BRANCH   1   9
ATOM      8  C   UNL     1      -1.873  -1.975   3.098  0.00  0.00    +0.277 C 
ATOM      9  O   UNL     1      -1.498  -0.782   2.406  0.00  0.00    -0.491 OA
ENDBRANCH   1   9
BRANCH   6  10
ATOM     10  O   UNL     1      -0.682   1.547   1.184  0.00  0.00    -0.483 OA
BRANCH  10  11
ATOM     11  C   UNL     1      -0.013   1.086   0.008  0.00  0.00    +0.266 C 
BRANCH  11  12
ATOM     12  C   UNL     1      -0.742   1.585  -1.213  0.00  0.00    +0.008 A 
ATOM     13  C   UNL     1      -1.875   2.364  -1.071  0.00  0.00    +0.010 A 
ATOM     14  C   UNL     1      -2.544   2.822  -2.190  0.00  0.00    +0.020 A 
ATOM     15  C   UNL     1      -2.079   2.502  -3.454  0.00  0.00    +0.042 A 
ATOM     16  C   UNL     1      -0.945   1.723  -3.596  0.00  0.00    +0.040 A 
ATOM     17  C   UNL     1      -0.273   1.269  -2.475  0.00  0.00    +0.049 A 
ATOM     18 CL   UNL     1       1.154   0.296  -2.654  0.00  0.00    -0.083 Cl
ATOM     19 CL   UNL     1      -2.919   3.078  -4.859  0.00  0.00    -0.083 Cl
ENDBRANCH  11  12
ENDBRANCH  10  11
ENDBRANCH   6  10
BRANCH   3  20
ATOM     20  C   UNL     1       1.531   0.038   6.144  0.00  0.00    +0.116 C 
BRANCH  20  21
ATOM     21  N   UNL     1       0.719   0.598   7.234  0.00  0.00    -0.311 NA
ATOM     22  H   UNL     1       0.707   1.695   7.155  0.00  0.00    +0.122 HD
BRANCH  21  23
ATOM     23  C   UNL     1       1.269   0.226   8.544  0.00  0.00    +0.040 C 
ATOM     24  C   UNL     1       0.740  -1.153   8.949  0.00  0.00    -0.060 C 
ATOM     25  N   UNL     1      -0.010  -1.037  10.207  0.00  0.00    +0.381 N 
ATOM     26  C   UNL     1      -1.176  -0.157  10.047  0.00  0.00    -0.078 C 
ATOM     27  C   UNL     1      -0.702   1.250   9.673  0.00  0.00    -0.014 C 
ATOM     28  C   UNL     1       0.830   1.253   9.596  0.00  0.00    +0.001 C 
ATOM     29  C   UNL     1       1.389   0.826  10.959  0.00  0.00    -0.014 C 
ATOM     30  C   UNL     1       0.857  -0.569  11.297  0.00  0.00    -0.078 C 
ATOM     31  H   UNL     1      -0.376  -2.039  10.473  0.00  0.00    -0.082 HD
ENDBRANCH  21  23
ENDBRANCH  20  21
ENDBRANCH   3  20
TORSDOF 7
