REMARK  Name = ZINC09872032
REMARK  3 active torsions:
REMARK  status: ('A' for Active; 'I' for Inactive)
REMARK    1  A    between atoms: C_6  and  C_7
REMARK    2  A    between atoms: C_7  and  C_8
REMARK    3  A    between atoms: N_10  and  C_11
REMARK                            x       y       z     vdW  Elec       q    Type
REMARK                         _______ _______ _______ _____ _____    ______ ____
ROOT
ATOM      1  C   UNL     1      -2.939   0.715   1.440  0.00  0.00    +0.222 C 
ATOM      2  O   UNL     1      -2.252   1.105   2.361  0.00  0.00    -0.275 OA
ATOM      3  N   UNL     1      -4.078   0.038   1.687  0.00  0.00    -0.285 N 
ATOM      4  H   UNL     1      -4.660  -0.215   0.954  0.00  0.00    +0.155 HD
ENDROOT
BRANCH   3   5
ATOM      5  C   UNL     1      -4.420  -0.299   3.003  0.00  0.00    +0.037 A 
ATOM      6  C   UNL     1      -5.075  -1.495   3.265  0.00  0.00    +0.027 A 
ATOM      7  C   UNL     1      -5.409  -1.833   4.564  0.00  0.00    +0.051 A 
ATOM      8  C   UNL     1      -5.102  -0.974   5.604  0.00  0.00    +0.167 A 
ATOM      9  C   UNL     1      -4.449   0.231   5.343  0.00  0.00    +0.169 A 
ATOM     10  C   UNL     1      -4.109   0.565   4.045  0.00  0.00    +0.072 A 
ATOM     11  O   UNL     1      -4.266   0.888   6.532  0.00  0.00    -0.447 OA
ATOM     12  C   UNL     1      -4.367  -0.149   7.518  0.00  0.00    +0.254 C 
ATOM     13  O   UNL     1      -5.322  -1.060   6.955  0.00  0.00    -0.448 OA
ATOM     14  C   UNL     1      -4.857   0.407   8.860  0.00  0.00    +0.093 C 
ATOM     15  C   UNL     1      -4.108  -0.450   9.915  0.00  0.00    +0.008 C 
ATOM     16  C   UNL     1      -2.716  -0.657   9.266  0.00  0.00    +0.008 C 
ATOM     17  C   UNL     1      -3.020  -0.828   7.761  0.00  0.00    +0.093 C 
ENDBRANCH   3   5
BRANCH   1  18
ATOM     18  C   UNL     1      -2.518   0.987   0.018  0.00  0.00    +0.131 C 
BRANCH  18  24
ATOM     19  C   UNL     1      -0.016   1.075  -0.001  0.00  0.00    +0.004 A 
ATOM     20  C   UNL     1       1.172   1.779  -0.009  0.00  0.00    +0.004 A 
ATOM     21  C   UNL     1       1.162   3.164   0.007  0.00  0.00    -0.044 A 
ATOM     22  C   UNL     1      -0.043   3.842   0.031  0.00  0.00    -0.044 A 
ATOM     23  C   UNL     1      -1.232   3.135   0.039  0.00  0.00    +0.008 A 
ATOM     24  C   UNL     1      -1.220   1.753   0.017  0.00  0.00    -0.038 A 
ATOM     25  C   UNL     1       0.211   5.335   0.045  0.00  0.00    +0.036 C 
ATOM     26  C   UNL     1       1.676   5.499  -0.413  0.00  0.00    +0.009 C 
ATOM     27  C   UNL     1       2.307   4.154   0.003  0.00  0.00    +0.036 C 
ENDBRANCH  18  24
ENDBRANCH   1  18
TORSDOF 3
