REMARK  Name = ZINC32261955
REMARK  3 active torsions:
REMARK  status: ('A' for Active; 'I' for Inactive)
REMARK    1  A    between atoms: C_3  and  C_9
REMARK    2  A    between atoms: N_11  and  N_12
REMARK    3  A    between atoms: C_13  and  C_15
REMARK                            x       y       z     vdW  Elec       q    Type
REMARK                         _______ _______ _______ _____ _____    ______ ____
ROOT
ATOM      1  C   UNL     1      -0.014   1.212   0.009  0.00  0.00    +0.261 C 
ATOM      2  O   UNL     1       0.002  -0.004   0.002  0.00  0.00    -0.269 OA
ATOM      3  N   UNL     1       1.143   1.901   0.001  0.00  0.00    -0.230 N 
ATOM      4  H   UNL     1       1.129   3.001   0.007  0.00  0.00    +0.173 HD
ENDROOT
BRANCH   1   7
ATOM      5  C   UNL     1      -2.533   3.996   0.035  0.00  0.00    +0.021 A 
ATOM      6  C   UNL     1      -1.326   3.329   0.026  0.00  0.00    +0.015 A 
ATOM      7  C   UNL     1      -1.304   1.933   0.019  0.00  0.00    +0.051 A 
ATOM      8  C   UNL     1      -2.506   1.221   0.015  0.00  0.00    +0.027 A 
ATOM      9  C   UNL     1      -3.706   1.900   0.029  0.00  0.00    +0.035 A 
ATOM     10  C   UNL     1      -3.721   3.285   0.037  0.00  0.00    +0.042 A 
ATOM     11 CL   UNL     1      -5.236   4.133   0.048  0.00  0.00    -0.084 Cl
ATOM     12  I   UNL     1      -2.485  -0.874  -0.005  0.00  0.00    -0.043 I 
ENDBRANCH   1   7
BRANCH   3  13
ATOM     13  N   UNL     1       2.366   1.217  -0.014  0.00  0.00    -0.232 N 
ATOM     14  C   UNL     1       3.524   1.907  -0.021  0.00  0.00    +0.258 C 
ATOM     15  O   UNL     1       3.508   3.120  -0.015  0.00  0.00    -0.271 OA
ATOM     16  H   UNL     1       2.381   0.117  -0.020  0.00  0.00    +0.173 HD
BRANCH  14  17
ATOM     17  C   UNL     1       4.839   1.171  -0.038  0.00  0.00    +0.205 C 
ATOM     18  C   UNL     1       5.022   0.368   1.269  0.00  0.00    +0.043 C 
ATOM     19  C   UNL     1       6.530   0.496   1.580  0.00  0.00    +0.031 C 
ATOM     20  C   UNL     1       7.080   1.362   0.425  0.00  0.00    +0.161 C 
ATOM     21  O   UNL     1       5.939   2.107  -0.052  0.00  0.00    -0.367 OA
ENDBRANCH  14  17
ENDBRANCH   3  13
TORSDOF 3
