REMARK  Name = ZINC32684136
REMARK  6 active torsions:
REMARK  status: ('A' for Active; 'I' for Inactive)
REMARK    1  A    between atoms: C_4  and  C_7
REMARK    2  A    between atoms: C_7  and  S_8
REMARK    3  A    between atoms: S_8  and  C_9
REMARK    4  A    between atoms: N_17  and  C_18
REMARK    5  A    between atoms: C_18  and  C_19
REMARK    6  A    between atoms: N_24  and  C_28
REMARK                            x       y       z     vdW  Elec       q    Type
REMARK                         _______ _______ _______ _____ _____    ______ ____
ROOT
ATOM      1  C   UNL     1       5.740  -1.842  -1.483  0.00  0.00    +0.171 A 
ATOM      2  N   UNL     1       6.249  -2.120  -0.308  0.00  0.00    -0.222 NA
ATOM      3  C   UNL     1       7.425  -2.783  -0.465  0.00  0.00    +0.090 A 
ATOM      4  C   UNL     1       8.359  -3.306   0.432  0.00  0.00    +0.030 A 
ATOM      5  C   UNL     1       9.486  -3.937  -0.044  0.00  0.00    +0.002 A 
ATOM      6  C   UNL     1       9.702  -4.057  -1.409  0.00  0.00    +0.002 A 
ATOM      7  C   UNL     1       8.788  -3.547  -2.308  0.00  0.00    +0.028 A 
ATOM      8  C   UNL     1       7.647  -2.908  -1.846  0.00  0.00    +0.070 A 
ATOM      9  N   UNL     1       6.567  -2.304  -2.468  0.00  0.00    -0.310 N 
ENDROOT
BRANCH   1  10
ATOM     10  S   UNL     1       4.220  -0.992  -1.753  0.00  0.00    -0.083 S 
BRANCH  10  11
ATOM     11  C   UNL     1       3.711  -0.707  -0.039  0.00  0.00    +0.112 C 
BRANCH  11  15
ATOM     12  C   UNL     1      -0.017   1.378   0.010  0.00  0.00    +0.000 A 
ATOM     13  C   UNL     1       1.171   2.086   0.002  0.00  0.00    +0.000 A 
ATOM     14  C   UNL     1       2.377   1.411  -0.014  0.00  0.00    +0.004 A 
ATOM     15  C   UNL     1       2.396   0.029  -0.022  0.00  0.00    -0.037 A 
ATOM     16  C   UNL     1       1.208  -0.679  -0.014  0.00  0.00    +0.004 A 
ATOM     17  C   UNL     1       0.002  -0.004   0.002  0.00  0.00    +0.000 A 
ENDBRANCH  11  15
ENDBRANCH  10  11
ENDBRANCH   1  10
BRANCH   9  18
ATOM     18  C   UNL     1       6.350  -2.183  -3.912  0.00  0.00    +0.220 C 
BRANCH  18  19
ATOM     19  C   UNL     1       6.969  -0.902  -4.407  0.00  0.00    +0.238 C 
ATOM     20  O   UNL     1       7.535  -0.162  -3.630  0.00  0.00    -0.273 OA
ATOM     21  N   UNL     1       6.894  -0.577  -5.713  0.00  0.00    -0.271 N 
ATOM     22  C   UNL     1       7.463   0.601  -6.168  0.00  0.00    +0.129 C 
ATOM     23  N   UNL     1       8.086   1.478  -5.455  0.00  0.00    -0.161 NA
ATOM     24  N   UNL     1       8.547   2.555  -6.205  0.00  0.00    -0.159 N 
ATOM     25  C   UNL     1       8.217   2.422  -7.506  0.00  0.00    +0.247 C 
ATOM     26  O   UNL     1       8.468   3.189  -8.412  0.00  0.00    -0.273 OA
ATOM     27  C   UNL     1       7.466   1.108  -7.595  0.00  0.00    +0.171 C 
ATOM     28  H   UNL     1       6.380  -1.248  -6.417  0.00  0.00    +0.156 HD
BRANCH  24  29
ATOM     29  C   UNL     1       9.257   3.639  -5.678  0.00  0.00    +0.060 A 
ATOM     30  C   UNL     1       9.676   4.669  -6.510  0.00  0.00    +0.025 A 
ATOM     31  C   UNL     1      10.371   5.740  -5.985  0.00  0.00    +0.002 A 
ATOM     32  C   UNL     1      10.661   5.783  -4.634  0.00  0.00    +0.000 A 
ATOM     33  C   UNL     1      10.250   4.756  -3.803  0.00  0.00    +0.002 A 
ATOM     34  C   UNL     1       9.550   3.685  -4.320  0.00  0.00    +0.025 A 
ENDBRANCH  24  29
ENDBRANCH  18  19
ENDBRANCH   9  18
TORSDOF 6
