REMARK  Name = ZINC40899085
REMARK  10 active torsions:
REMARK  status: ('A' for Active; 'I' for Inactive)
REMARK    1  A    between atoms: C_1  and  C_2
REMARK    2  A    between atoms: C_5  and  C_25
REMARK    3  A    between atoms: C_6  and  O_8
REMARK    4  A    between atoms: O_8  and  C_9
REMARK    5  A    between atoms: C_9  and  C_10
REMARK    6  A    between atoms: N_12  and  C_13
REMARK    7  A    between atoms: C_13  and  N_15
REMARK    8  A    between atoms: N_15  and  C_16
REMARK    9  A    between atoms: C_17  and  C_24
REMARK   10  A    between atoms: C_19  and  C_23
REMARK                            x       y       z     vdW  Elec       q    Type
REMARK                         _______ _______ _______ _____ _____    ______ ____
ROOT
ATOM      1  C   UNL     1       1.589  -2.425   5.168  0.00  0.00    +0.256 C 
ATOM      2  O   UNL     1       2.364  -3.357   5.221  0.00  0.00    -0.272 OA
ATOM      3  N   UNL     1       0.758  -2.180   6.199  0.00  0.00    -0.265 N 
ATOM      4  H   UNL     1       0.138  -1.435   6.157  0.00  0.00    +0.157 HD
ENDROOT
BRANCH   3   5
ATOM      5  C   UNL     1       0.787  -2.970   7.291  0.00  0.00    +0.141 C 
ATOM      6  S   UNL     1       1.881  -4.285   7.367  0.00  0.00    -0.018 S 
BRANCH   5   7
ATOM      7  N   UNL     1      -0.044  -2.725   8.323  0.00  0.00    -0.295 N 
ATOM      8  H   UNL     1      -0.623  -1.947   8.305  0.00  0.00    +0.154 HD
BRANCH   7   9
ATOM      9  C   UNL     1      -0.073  -3.593   9.420  0.00  0.00    +0.054 A 
ATOM     10  C   UNL     1      -0.302  -4.949   9.229  0.00  0.00    -0.028 A 
ATOM     11  C   UNL     1      -0.329  -5.804  10.313  0.00  0.00    +0.008 A 
ATOM     12  C   UNL     1      -0.130  -5.310  11.590  0.00  0.00    -0.049 A 
ATOM     13  C   UNL     1       0.099  -3.961  11.785  0.00  0.00    +0.025 A 
ATOM     14  C   UNL     1       0.134  -3.101  10.703  0.00  0.00    +0.063 A 
ATOM     15 CL   UNL     1       0.428  -1.408  10.947  0.00  0.00    -0.082 Cl
ATOM     16  C   UNL     1      -0.161  -6.246  12.771  0.00  0.00    +0.044 C 
ATOM     17  C   UNL     1      -0.521  -5.489   7.838  0.00  0.00    +0.046 C 
ENDBRANCH   7   9
ENDBRANCH   5   7
ENDBRANCH   3   5
BRANCH   1  18
ATOM     18  C   UNL     1       1.557  -1.542   3.947  0.00  0.00    +0.325 C 
BRANCH  18  19
ATOM     19  O   UNL     1       2.523  -2.002   3.000  0.00  0.00    -0.482 OA
BRANCH  19  25
ATOM     20  C   UNL     1       1.025   1.685   0.175  0.00  0.00    +0.044 C 
ATOM     21  C   UNL     1       1.911   0.492   0.422  0.00  0.00    -0.047 A 
ATOM     22  C   UNL     1       2.826   0.100  -0.537  0.00  0.00    +0.004 A 
ATOM     23  C   UNL     1       3.640  -0.995  -0.313  0.00  0.00    +0.007 A 
ATOM     24  C   UNL     1       3.541  -1.700   0.871  0.00  0.00    -0.009 A 
ATOM     25  C   UNL     1       2.623  -1.309   1.835  0.00  0.00    +0.124 A 
ATOM     26  C   UNL     1       1.812  -0.207   1.610  0.00  0.00    +0.049 A 
ATOM     27  C   UNL     1       4.427  -2.894   1.114  0.00  0.00    +0.047 C 
ENDBRANCH  19  25
ENDBRANCH  18  19
ENDBRANCH   1  18
TORSDOF 6
