REMARK  Name = ZINC09866860
REMARK  6 active torsions:
REMARK  status: ('A' for Active; 'I' for Inactive)
REMARK    1  A    between atoms: C_1  and  C_2
REMARK    2  A    between atoms: C_15  and  C_17
REMARK    3  A    between atoms: C_17  and  S_18
REMARK    4  A    between atoms: S_18  and  C_19
REMARK    5  A    between atoms: C_22  and  C_30
REMARK    6  A    between atoms: N_23  and  C_24
REMARK                            x       y       z     vdW  Elec       q    Type
REMARK                         _______ _______ _______ _____ _____    ______ ____
ROOT
ATOM      1  C   UNL     1       3.684   3.100  -0.017  0.00  0.00    +0.173 C 
ENDROOT
BRANCH   1  15
ATOM      2  C   UNL     1       7.018   5.973  -1.451  0.00  0.00    +0.029 C 
ATOM      3  C   UNL     1       6.509   5.689  -0.036  0.00  0.00    +0.087 C 
ATOM      4  C   UNL     1       7.696   5.601   0.929  0.00  0.00    +0.118 C 
ATOM      5  C   UNL     1       7.276   4.937   2.213  0.00  0.00    +0.219 C 
ATOM      6  O   UNL     1       7.104   5.607   3.210  0.00  0.00    -0.275 OA
ATOM      7  N   UNL     1       7.089   3.600   2.264  0.00  0.00    -0.284 N 
ATOM      8  C   UNL     1       7.189   2.825   1.103  0.00  0.00    +0.055 A 
ATOM      9  C   UNL     1       7.935   1.658   1.090  0.00  0.00    +0.025 A 
ATOM     10  C   UNL     1       7.975   0.879  -0.052  0.00  0.00    +0.002 A 
ATOM     11  C   UNL     1       7.274   1.263  -1.181  0.00  0.00    +0.002 A 
ATOM     12  C   UNL     1       6.536   2.432  -1.180  0.00  0.00    +0.025 A 
ATOM     13  C   UNL     1       6.498   3.222  -0.043  0.00  0.00    +0.058 A 
ATOM     14  N   UNL     1       5.774   4.422  -0.030  0.00  0.00    -0.266 N 
ATOM     15  C   UNL     1       4.427   4.411  -0.017  0.00  0.00    +0.230 C 
ATOM     16  O   UNL     1       3.811   5.456  -0.006  0.00  0.00    -0.274 OA
ATOM     17  H   UNL     1       6.883   3.174   3.111  0.00  0.00    +0.155 HD
ENDBRANCH   1  15
BRANCH   1  18
ATOM     18  S   UNL     1       1.902   3.415   0.002  0.00  0.00    -0.076 S 
BRANCH  18  19
ATOM     19  C   UNL     1       1.298   1.760  -0.001  0.00  0.00    +0.197 A 
ATOM     20  N   UNL     1       2.024   0.666  -0.014  0.00  0.00    -0.122 NA
ATOM     21  N   UNL     1       1.265  -0.371  -0.012  0.00  0.00    -0.127 NA
ATOM     22  C   UNL     1       0.002  -0.004   0.002  0.00  0.00    +0.176 A 
ATOM     23  N   UNL     1      -0.017   1.375   0.010  0.00  0.00    -0.270 N 
BRANCH  23  24
ATOM     24  C   UNL     1      -1.144   2.208   0.020  0.00  0.00    +0.051 A 
ATOM     25  C   UNL     1      -2.008   2.223  -1.067  0.00  0.00    +0.026 A 
ATOM     26  C   UNL     1      -3.121   3.040  -1.052  0.00  0.00    +0.002 A 
ATOM     27  C   UNL     1      -3.369   3.852   0.040  0.00  0.00    +0.000 A 
ATOM     28  C   UNL     1      -2.508   3.843   1.121  0.00  0.00    +0.002 A 
ATOM     29  C   UNL     1      -1.397   3.023   1.114  0.00  0.00    +0.026 A 
ENDBRANCH  23  24
BRANCH  22  30
ATOM     30  C   UNL     1      -1.169  -0.895   0.008  0.00  0.00    +0.057 A 
ATOM     31  C   UNL     1      -1.236  -2.237  -0.274  0.00  0.00    +0.019 A 
ATOM     32  C   UNL     1      -2.458  -2.867  -0.201  0.00  0.00    +0.008 A 
ATOM     33  C   UNL     1      -3.555  -2.146   0.147  0.00  0.00    +0.046 A 
ATOM     34  S   UNL     1      -2.870  -0.516   0.393  0.00  0.00    -0.094 S 
ENDBRANCH  22  30
ENDBRANCH  18  19
ENDBRANCH   1  18
TORSDOF 5
