REMARK  Name = ZINC03229982
REMARK  6 active torsions:
REMARK  status: ('A' for Active; 'I' for Inactive)
REMARK    1  A    between atoms: C_1  and  C_2
REMARK    2  A    between atoms: C_3  and  C_4
REMARK    3  A    between atoms: C_3  and  N_11
REMARK    4  A    between atoms: C_7  and  O_10
REMARK    5  A    between atoms: N_11  and  N_12
REMARK    6  A    between atoms: C_17  and  N_57
REMARK                            x       y       z     vdW  Elec       q    Type
REMARK                         _______ _______ _______ _____ _____    ______ ____
ROOT
ATOM      1  N   UNL     1      -1.812   5.986   3.661  0.00  0.00    -0.233 NA
ATOM      2  C   UNL     1      -2.269   6.624   2.419  0.00  0.00    +0.087 C 
ATOM      3  C   UNL     1      -1.680   5.878   1.219  0.00  0.00    -0.060 C 
ATOM      4  C   UNL     1       0.243   5.255   2.550  0.00  0.00    -0.060 C 
ATOM      5  C   UNL     1      -0.345   6.002   3.750  0.00  0.00    +0.087 C 
ATOM      6  N   UNL     1      -0.205   5.920   1.309  0.00  0.00    +0.389 N 
ATOM      7  H   UNL     1       0.100   6.900   1.326  0.00  0.00    -0.080 HD
ENDROOT
BRANCH   6   8
ATOM      8  C   UNL     1       0.392   5.252   0.133  0.00  0.00    -0.005 C 
ATOM      9  C   UNL     1       0.105   3.770   0.145  0.00  0.00    -0.049 A 
ATOM     10  C   UNL     1      -1.073   3.055   0.114  0.00  0.00    +0.003 A 
ATOM     11  C   UNL     1      -1.045   1.672   0.131  0.00  0.00    +0.000 A 
ATOM     12  C   UNL     1       0.165   1.004   0.189  0.00  0.00    +0.001 A 
ATOM     13  C   UNL     1       1.349   1.711   0.220  0.00  0.00    +0.009 A 
ATOM     14  C   UNL     1       1.328   3.107   0.198  0.00  0.00    -0.016 A 
ATOM     15  C   UNL     1       2.429   4.101   0.222  0.00  0.00    -0.016 A 
ATOM     16  C   UNL     1       1.894   5.386   0.184  0.00  0.00    -0.049 A 
ATOM     17  C   UNL     1       2.725   6.486   0.196  0.00  0.00    +0.003 A 
ATOM     18  C   UNL     1       4.098   6.317   0.246  0.00  0.00    +0.000 A 
ATOM     19  C   UNL     1       4.638   5.044   0.284  0.00  0.00    +0.001 A 
ATOM     20  C   UNL     1       3.814   3.938   0.273  0.00  0.00    +0.009 A 
ENDBRANCH   6   8
BRANCH   1  21
ATOM     21  N   UNL     1      -2.375   6.583   4.754  0.00  0.00    -0.278 N 
ATOM     22  H   UNL     1      -2.295   7.542   4.877  0.00  0.00    +0.166 HD
BRANCH  21  25
ATOM     23  C   UNL     1      -3.838   3.655   6.586  0.00  0.00    +0.037 C 
ATOM     24  C   UNL     1      -3.087   4.485   5.577  0.00  0.00    -0.006 C 
ATOM     25  C   UNL     1      -3.064   5.814   5.691  0.00  0.00    +0.044 C 
BRANCH  25  26
ATOM     26  C   UNL     1      -3.771   6.472   6.814  0.00  0.00    -0.003 A 
ATOM     27  C   UNL     1      -5.115   6.191   7.055  0.00  0.00    +0.013 A 
ATOM     28  C   UNL     1      -5.768   6.802   8.105  0.00  0.00    +0.046 A 
ATOM     29  C   UNL     1      -5.092   7.705   8.914  0.00  0.00    +0.117 A 
ATOM     30  C   UNL     1      -3.755   7.991   8.674  0.00  0.00    +0.046 A 
ATOM     31  C   UNL     1      -3.094   7.380   7.629  0.00  0.00    +0.013 A 
BRANCH  29  32
ATOM     32  O   UNL     1      -5.740   8.308   9.944  0.00  0.00    -0.507 OA
ATOM     33  H   UNL     1      -6.166   9.143   9.706  0.00  0.00    +0.292 HD
ENDBRANCH  29  32
ENDBRANCH  25  26
ENDBRANCH  21  25
ENDBRANCH   1  21
TORSDOF 5
