REMARK  Name = ZINC41527427
REMARK  6 active torsions:
REMARK  status: ('A' for Active; 'I' for Inactive)
REMARK    1  A    between atoms: C_1  and  C_2
REMARK    2  A    between atoms: C_2  and  C_3
REMARK    3  A    between atoms: C_3  and  N_4
REMARK    4  A    between atoms: N_14  and  C_15
REMARK    5  A    between atoms: C_15  and  C_16
REMARK    6  A    between atoms: C_16  and  C_17
REMARK                            x       y       z     vdW  Elec       q    Type
REMARK                         _______ _______ _______ _____ _____    ______ ____
ROOT
ATOM      1  N   UNL     1       0.738  -1.962  -1.265  0.00  0.00    -0.280 N 
ATOM      2  C   UNL     1       1.766  -2.611  -0.687  0.00  0.00    +0.264 A 
ATOM      3  O   UNL     1       2.672  -1.989  -0.160  0.00  0.00    -0.267 OA
ATOM      4  C   UNL     1       1.779  -4.042  -0.699  0.00  0.00    +0.076 A 
ATOM      5  C   UNL     1       2.785  -4.945  -0.137  0.00  0.00    -0.023 A 
ATOM      6  C   UNL     1       2.567  -6.268  -0.279  0.00  0.00    -0.004 A 
ATOM      7  S   UNL     1       1.031  -6.391  -1.155  0.00  0.00    -0.073 S 
ATOM      8  C   UNL     1       0.686  -4.659  -1.330  0.00  0.00    +0.117 A 
ATOM      9  N   UNL     1      -0.298  -3.958  -1.883  0.00  0.00    -0.208 NA
ATOM     10  C   UNL     1      -0.288  -2.642  -1.853  0.00  0.00    +0.199 A 
ATOM     11  N   UNL     1      -1.321  -1.944  -2.427  0.00  0.00    -0.314 N 
ATOM     12  C   UNL     1       3.439  -7.389   0.202  0.00  0.00    +0.043 C 
ATOM     13  C   UNL     1       4.816  -6.811   0.559  0.00  0.00    +0.005 C 
ATOM     14  C   UNL     1       4.615  -5.564   1.425  0.00  0.00    +0.005 C 
ATOM     15  C   UNL     1       4.032  -4.433   0.579  0.00  0.00    +0.037 C 
ATOM     16  H   UNL     1      -1.318  -0.974  -2.412  0.00  0.00    +0.149 HD
ENDROOT
BRANCH   1  17
ATOM     17  C   UNL     1       0.718  -0.497  -1.257  0.00  0.00    +0.128 C 
BRANCH  17  19
ATOM     18  C   UNL     1      -0.019   1.526   0.010  0.00  0.00    +0.005 C 
ATOM     19  C   UNL     1       0.002  -0.004   0.002  0.00  0.00    +0.018 C 
ENDBRANCH  17  19
ENDBRANCH   1  17
BRANCH  11  20
ATOM     20  C   UNL     1      -2.428  -2.663  -3.062  0.00  0.00    +0.109 C 
BRANCH  20  21
ATOM     21  C   UNL     1      -3.438  -1.657  -3.618  0.00  0.00    +0.054 C 
BRANCH  21  22
ATOM     22  C   UNL     1      -4.576  -2.398  -4.271  0.00  0.00    -0.046 A 
ATOM     23  C   UNL     1      -4.508  -2.728  -5.611  0.00  0.00    +0.005 A 
ATOM     24  C   UNL     1      -5.552  -3.407  -6.211  0.00  0.00    +0.020 A 
ATOM     25  C   UNL     1      -6.666  -3.756  -5.469  0.00  0.00    +0.041 A 
ATOM     26  C   UNL     1      -6.734  -3.425  -4.127  0.00  0.00    +0.020 A 
ATOM     27  C   UNL     1      -5.687  -2.751  -3.527  0.00  0.00    +0.005 A 
ATOM     28 CL   UNL     1      -7.978  -4.609  -6.221  0.00  0.00    -0.084 Cl
ENDBRANCH  21  22
ENDBRANCH  20  21
ENDBRANCH  11  20
TORSDOF 5
