REMARK  Name = ZINC39326590
REMARK  6 active torsions:
REMARK  status: ('A' for Active; 'I' for Inactive)
REMARK    1  A    between atoms: C_1  and  C_2
REMARK    2  A    between atoms: C_9  and  C_20
REMARK    3  A    between atoms: C_10  and  S_12
REMARK    4  A    between atoms: S_12  and  C_13
REMARK    5  A    between atoms: C_13  and  C_14
REMARK    6  A    between atoms: C_14  and  N_15
REMARK                            x       y       z     vdW  Elec       q    Type
REMARK                         _______ _______ _______ _____ _____    ______ ____
ROOT
ATOM      1  C   UNL     1      -0.019   1.526   0.010  0.00  0.00    +0.008 C 
ATOM      2  C   UNL     1       0.002  -0.004   0.002  0.00  0.00    -0.009 C 
ATOM      3  C   UNL     1      -1.434  -0.540   0.026  0.00  0.00    +0.010 C 
ATOM      4  C   UNL     1      -1.391  -2.046  -0.225  0.00  0.00    +0.056 C 
ATOM      5  C   UNL     1      -0.414  -2.712   0.710  0.00  0.00    +0.046 A 
ATOM      6  C   UNL     1       0.564  -2.007   1.377  0.00  0.00    -0.025 A 
ATOM      7  C   UNL     1       1.440  -2.681   2.219  0.00  0.00    +0.027 A 
ATOM      8  C   UNL     1       1.302  -4.063   2.370  0.00  0.00    +0.084 A 
ATOM      9  C   UNL     1       0.277  -4.715   1.662  0.00  0.00    +0.115 A 
ATOM     10  N   UNL     1      -0.526  -4.025   0.873  0.00  0.00    -0.244 NA
ATOM     11  C   UNL     1       0.728  -0.516   1.245  0.00  0.00    +0.040 C 
ENDROOT
BRANCH   8  12
ATOM     12  C   UNL     1       2.184  -4.798   3.226  0.00  0.00    +0.102 C 
ATOM     13  N   UNL     1       2.884  -5.381   3.905  0.00  0.00    -0.191 NA
ENDBRANCH   8  12
BRANCH   9  14
ATOM     14  S   UNL     1       0.064  -6.456   1.828  0.00  0.00    -0.107 S 
BRANCH  14  15
ATOM     15  C   UNL     1      -1.347  -6.830   0.751  0.00  0.00    +0.057 C 
BRANCH  15  16
ATOM     16  C   UNL     1      -1.644  -8.330   0.802  0.00  0.00    -0.068 C 
BRANCH  16  17
ATOM     17  N   UNL     1      -2.786  -8.633  -0.070  0.00  0.00    +0.380 N 
ATOM     18  C   UNL     1      -2.409  -8.441  -1.494  0.00  0.00    -0.079 C 
ATOM     19  C   UNL     1      -3.447  -9.303  -2.255  0.00  0.00    -0.020 C 
ATOM     20  C   UNL     1      -3.619 -10.532  -1.334  0.00  0.00    -0.020 C 
ATOM     21  C   UNL     1      -3.163 -10.058   0.059  0.00  0.00    -0.079 C 
ATOM     22  H   UNL     1      -3.570  -8.043   0.165  0.00  0.00    -0.082 HD
ENDBRANCH  16  17
ENDBRANCH  15  16
ENDBRANCH  14  15
ENDBRANCH   9  14
TORSDOF 5
