REMARK  Name = ZINC04006755
REMARK  7 active torsions:
REMARK  status: ('A' for Active; 'I' for Inactive)
REMARK    1  A    between atoms: C_1  and  C_2
REMARK    2  A    between atoms: C_11  and  C_25
REMARK    3  A    between atoms: C_17  and  C_22
REMARK    4  A    between atoms: C_22  and  C_24
REMARK    5  A    between atoms: C_26  and  C_35
REMARK    6  A    between atoms: C_27  and  O_34
REMARK    7  A    between atoms: C_29  and  O_33
REMARK                            x       y       z     vdW  Elec       q    Type
REMARK                         _______ _______ _______ _____ _____    ______ ____
ROOT
ATOM      1  C   UNL     1       1.671   4.264  -2.637  0.00  0.00    +0.010 C 
ATOM      2  C   UNL     1       1.307   2.893  -2.127  0.00  0.00    +0.019 C 
ATOM      3  C   UNL     1       1.886   2.701  -0.707  0.00  0.00    +0.010 C 
ATOM      4  C   UNL     1       1.555   1.345  -0.114  0.00  0.00    -0.003 C 
ATOM      5  C   UNL     1       0.017   0.980  -0.226  0.00  0.00    +0.001 C 
ATOM      6  C   UNL     1      -0.900   1.372   0.904  0.00  0.00    +0.005 C 
ATOM      7  C   UNL     1      -0.333   1.030   2.224  0.00  0.00    +0.008 C 
ATOM      8  C   UNL     1       1.046   1.632   2.358  0.00  0.00    -0.016 C 
ATOM      9  C   UNL     1       1.972   1.093   1.232  0.00  0.00    -0.000 C 
ATOM     10  C   UNL     1       3.356   1.611   1.732  0.00  0.00    +0.009 C 
ATOM     11  C   UNL     1       3.253   1.211   3.198  0.00  0.00    +0.003 C 
ATOM     12  C   UNL     1       1.885   1.640   3.577  0.00  0.00    +0.037 C 
ATOM     13  C   UNL     1       1.469   1.006   4.875  0.00  0.00    +0.015 C 
ATOM     14  C   UNL     1       2.545   1.324   6.019  0.00  0.00    +0.001 C 
ATOM     15  C   UNL     1       4.014   1.084   5.520  0.00  0.00    +0.000 C 
ATOM     16  C   UNL     1       4.274   1.707   4.155  0.00  0.00    +0.004 C 
ATOM     17  C   UNL     1       0.893   3.120   2.179  0.00  0.00    +0.012 C 
ATOM     18  C   UNL     1      -0.484   1.219  -1.652  0.00  0.00    +0.000 C 
ATOM     19  C   UNL     1      -0.233   2.682  -2.049  0.00  0.00    +0.077 C 
ATOM     20  C   UNL     1      -0.786   2.933  -3.418  0.00  0.00    +0.067 C 
ATOM     21  C   UNL     1      -2.299   2.737  -3.373  0.00  0.00    +0.117 C 
ATOM     22  C   UNL     1      -2.727   1.393  -2.906  0.00  0.00    +0.032 C 
ATOM     23  C   UNL     1      -2.037   1.112  -1.558  0.00  0.00    +0.012 C 
ATOM     24  C   UNL     1      -0.015   0.280  -2.620  0.00  0.00    +0.014 C 
ENDROOT
BRANCH  12  25
ATOM     25  C   UNL     1       1.995   3.140   3.920  0.00  0.00    +0.137 C 
ATOM     26  O   UNL     1       2.883   3.805   3.442  0.00  0.00    -0.297 OA
ATOM     27  C   UNL     1       0.996   3.776   4.851  0.00  0.00    +0.086 C 
ENDBRANCH  12  25
BRANCH  21  28
ATOM     28  O   UNL     1      -2.929   3.795  -2.534  0.00  0.00    -0.392 OA
ATOM     29  H   UNL     1      -3.891   3.723  -2.467  0.00  0.00    +0.210 HD
ENDBRANCH  21  28
BRANCH  19  30
ATOM     30  O   UNL     1      -0.710   3.599  -1.068  0.00  0.00    -0.388 OA
ATOM     31  H   UNL     1      -0.529   4.527  -1.276  0.00  0.00    +0.210 HD
ENDBRANCH  19  30
TORSDOF 3
