REMARK  Name = ZINC61988219
REMARK  11 active torsions:
REMARK  status: ('A' for Active; 'I' for Inactive)
REMARK    1  A    between atoms: C_1  and  C_2
REMARK    2  A    between atoms: C_2  and  C_3
REMARK    3  A    between atoms: C_2  and  O_4
REMARK    4  A    between atoms: O_4  and  C_5
REMARK    5  A    between atoms: C_5  and  C_6
REMARK    6  A    between atoms: C_11  and  C_12
REMARK    7  A    between atoms: C_12  and  N_13
REMARK    8  A    between atoms: N_16  and  C_17
REMARK    9  A    between atoms: N_20  and  C_23
REMARK   10  A    between atoms: C_23  and  C_24
REMARK   11  A    between atoms: N_26  and  C_27
REMARK                            x       y       z     vdW  Elec       q    Type
REMARK                         _______ _______ _______ _____ _____    ______ ____
ROOT
ATOM      1  N   UNL     1      -2.588  -2.373  -4.010  0.00  0.00    -0.295 N 
ATOM      2  C   UNL     1      -1.944  -2.384  -5.194  0.00  0.00    +0.300 C 
ATOM      3  O   UNL     1      -2.084  -1.458  -5.970  0.00  0.00    -0.253 OA
ATOM      4  N   UNL     1      -1.146  -3.420  -5.518  0.00  0.00    -0.297 N 
ATOM      5  H   UNL     1      -2.476  -3.112  -3.391  0.00  0.00    +0.151 HD
ATOM      6  H   UNL     1      -1.034  -4.159  -4.899  0.00  0.00    +0.151 HD
ENDROOT
BRANCH   4   7
ATOM      7  C   UNL     1      -0.446  -3.432  -6.805  0.00  0.00    +0.071 C 
ATOM      8  C   UNL     1      -1.368  -4.007  -7.884  0.00  0.00    +0.004 C 
ATOM      9  C   UNL     1      -0.606  -4.090  -9.208  0.00  0.00    -0.076 C 
ATOM     10  N   UNL     1       0.566  -4.960  -9.048  0.00  0.00    +0.385 N 
ATOM     11  C   UNL     1       1.489  -4.378  -8.067  0.00  0.00    -0.076 C 
ATOM     12  C   UNL     1       0.807  -4.306  -6.699  0.00  0.00    +0.004 C 
ATOM     13  H   UNL     1       0.267  -5.870  -8.729  0.00  0.00    -0.081 HD
BRANCH  10  14
ATOM     14  C   UNL     1       1.250  -5.099 -10.340  0.00  0.00    +0.019 C 
BRANCH  14  15
ATOM     15  C   UNL     1       2.380  -6.088 -10.207  0.00  0.00    +0.196 C 
ATOM     16  O   UNL     1       2.593  -6.624  -9.140  0.00  0.00    -0.278 OA
ATOM     17  N   UNL     1       3.153  -6.376 -11.272  0.00  0.00    -0.320 N 
ATOM     18  C   UNL     1       4.251  -7.337 -11.143  0.00  0.00    +0.128 C 
ATOM     19  H   UNL     1       2.982  -5.947 -12.126  0.00  0.00    +0.148 HD
ENDBRANCH  14  15
ENDBRANCH  10  14
ENDBRANCH   4   7
BRANCH   1  20
ATOM     20  C   UNL     1      -3.455  -1.247  -3.658  0.00  0.00    +0.141 C 
BRANCH  20  26
ATOM     21  C   UNL     1      -3.305  -1.214  -1.159  0.00  0.00    -0.017 A 
ATOM     22  C   UNL     1      -3.852  -1.421   0.093  0.00  0.00    +0.006 A 
ATOM     23  C   UNL     1      -5.144  -1.898   0.212  0.00  0.00    +0.000 A 
ATOM     24  C   UNL     1      -5.888  -2.168  -0.922  0.00  0.00    +0.000 A 
ATOM     25  C   UNL     1      -5.341  -1.960  -2.174  0.00  0.00    +0.005 A 
ATOM     26  C   UNL     1      -4.050  -1.478  -2.292  0.00  0.00    -0.025 A 
BRANCH  21  27
ATOM     27  C   UNL     1      -1.896  -0.693  -1.289  0.00  0.00    +0.195 C 
BRANCH  27  28
ATOM     28  O   UNL     1      -1.339  -0.499   0.012  0.00  0.00    -0.373 OA
BRANCH  28  30
ATOM     29  C   UNL     1      -0.019   1.526   0.010  0.00  0.00    +0.037 C 
ATOM     30  C   UNL     1       0.002  -0.004   0.002  0.00  0.00    +0.113 C 
ATOM     31  C   UNL     1       0.742  -0.511   1.242  0.00  0.00    +0.037 C 
ENDBRANCH  28  30
ENDBRANCH  27  28
ENDBRANCH  21  27
ENDBRANCH  20  26
ENDBRANCH   1  20
TORSDOF 8
