REMARK  Name = ZINC19125350
REMARK  9 active torsions:
REMARK  status: ('A' for Active; 'I' for Inactive)
REMARK    1  A    between atoms: C_1  and  C_2
REMARK    2  A    between atoms: C_7  and  C_8
REMARK    3  A    between atoms: C_10  and  C_13
REMARK    4  A    between atoms: C_18  and  C_20
REMARK    5  A    between atoms: C_20  and  C_21
REMARK    6  A    between atoms: C_21  and  N_22
REMARK    7  A    between atoms: C_26  and  C_27
REMARK    8  A    between atoms: C_27  and  C_28
REMARK    9  A    between atoms: C_27  and  C_29
REMARK                            x       y       z     vdW  Elec       q    Type
REMARK                         _______ _______ _______ _____ _____    ______ ____
ROOT
ATOM      1  C   UNL     1       0.066  -5.569  -2.307  0.00  0.00    +0.142 C 
ATOM      2  C   UNL     1      -1.379  -6.016  -2.613  0.00  0.00    +0.032 C 
ATOM      3  C   UNL     1      -1.327  -7.548  -2.372  0.00  0.00    +0.021 C 
ATOM      4  C   UNL     1      -0.338  -7.643  -1.184  0.00  0.00    +0.108 C 
ATOM      5  N   UNL     1       0.668  -6.597  -1.446  0.00  0.00    -0.291 N 
ATOM      6  C   UNL     1       1.931  -6.586  -0.975  0.00  0.00    +0.218 C 
ATOM      7  O   UNL     1       2.675  -5.671  -1.256  0.00  0.00    -0.276 OA
ENDROOT
BRANCH   1  17
ATOM      8  C   UNL     1      -0.018   1.503   0.010  0.00  0.00    +0.044 C 
ATOM      9  C   UNL     1       0.002  -0.004   0.002  0.00  0.00    -0.045 A 
ATOM     10  C   UNL     1       0.006  -0.682  -1.199  0.00  0.00    +0.031 A 
ATOM     11  C   UNL     1       0.024  -2.070  -1.204  0.00  0.00    +0.067 A 
ATOM     12  C   UNL     1       0.040  -2.774   0.012  0.00  0.00    +0.089 A 
ATOM     13  C   UNL     1       0.035  -2.066   1.216  0.00  0.00    +0.033 A 
ATOM     14  C   UNL     1       0.023  -0.699   1.202  0.00  0.00    -0.045 A 
ATOM     15  C   UNL     1       0.025   0.060   2.504  0.00  0.00    +0.044 C 
ATOM     16  N   UNL     1       0.056  -4.096  -0.297  0.00  0.00    -0.231 NA
ATOM     17  C   UNL     1       0.051  -4.244  -1.589  0.00  0.00    +0.129 A 
ATOM     18  N   UNL     1       0.032  -3.028  -2.199  0.00  0.00    -0.340 N 
ATOM     19  H   UNL     1       0.025  -2.864  -3.155  0.00  0.00    +0.167 HD
ENDBRANCH   1  17
BRANCH   6  20
ATOM     20  C   UNL     1       2.418  -7.711  -0.098  0.00  0.00    +0.117 C 
BRANCH  20  21
ATOM     21  C   UNL     1       3.874  -7.457   0.297  0.00  0.00    +0.132 C 
BRANCH  21  22
ATOM     22  N   UNL     1       4.347  -8.550   1.149  0.00  0.00    -0.335 N 
ATOM     23  C   UNL     1       4.353  -8.569   2.518  0.00  0.00    +0.104 A 
ATOM     24  C   UNL     1       4.867  -9.757   2.889  0.00  0.00    +0.101 A 
ATOM     25  N   UNL     1       5.167 -10.445   1.777  0.00  0.00    -0.349 N 
ATOM     26  C   UNL     1       4.853  -9.730   0.731  0.00  0.00    +0.090 A 
ATOM     27  H   UNL     1       5.552 -11.335   1.754  0.00  0.00    +0.166 HD
BRANCH  26  28
ATOM     28  C   UNL     1       5.030 -10.151  -0.705  0.00  0.00    +0.047 C 
ATOM     29  C   UNL     1       6.296 -11.001  -0.836  0.00  0.00    +0.015 C 
ATOM     30  C   UNL     1       3.817 -10.971  -1.150  0.00  0.00    +0.015 C 
ENDBRANCH  26  28
ENDBRANCH  21  22
ENDBRANCH  20  21
ENDBRANCH   6  20
TORSDOF 5
