REMARK  Name = ZINC09953082
REMARK  11 active torsions:
REMARK  status: ('A' for Active; 'I' for Inactive)
REMARK    1  A    between atoms: C_1  and  C_2
REMARK    2  A    between atoms: C_2  and  C_4
REMARK    3  A    between atoms: C_2  and  N_70
REMARK    4  A    between atoms: C_7  and  S_16
REMARK    5  A    between atoms: N_8  and  C_9
REMARK    6  A    between atoms: S_16  and  C_17
REMARK    7  A    between atoms: C_17  and  C_19
REMARK    8  A    between atoms: C_17  and  C_20
REMARK    9  A    between atoms: N_22  and  C_23
REMARK   10  A    between atoms: C_23  and  C_24
REMARK   11  A    between atoms: C_24  and  C_25
REMARK                            x       y       z     vdW  Elec       q    Type
REMARK                         _______ _______ _______ _____ _____    ______ ____
ROOT
ATOM      1  C   UNL     1       3.615   2.644   3.087  0.00  0.00    +0.125 A 
ATOM      2  N   UNL     1       2.963   3.114   2.062  0.00  0.00    -0.135 NA
ATOM      3  N   UNL     1       1.739   2.722   2.098  0.00  0.00    -0.122 NA
ATOM      4  C   UNL     1       1.538   1.982   3.163  0.00  0.00    +0.197 A 
ATOM      5  N   UNL     1       2.731   1.905   3.828  0.00  0.00    -0.275 N 
ENDROOT
BRANCH   5   6
ATOM      6  C   UNL     1       2.994   1.213   5.020  0.00  0.00    +0.050 A 
ATOM      7  C   UNL     1       3.351   1.912   6.165  0.00  0.00    +0.029 A 
ATOM      8  C   UNL     1       3.605   1.229   7.338  0.00  0.00    +0.040 A 
ATOM      9  C   UNL     1       3.514  -0.152   7.371  0.00  0.00    +0.124 A 
ATOM     10  C   UNL     1       3.163  -0.851   6.228  0.00  0.00    +0.040 A 
ATOM     11  C   UNL     1       2.904  -0.172   5.054  0.00  0.00    +0.029 A 
ATOM     12  F   UNL     1       3.768  -0.818   8.518  0.00  0.00    -0.205 F 
ENDBRANCH   5   6
BRANCH   1  14
ATOM     13  C   UNL     1       5.934   2.048   2.442  0.00  0.00    -0.005 C 
ATOM     14  C   UNL     1       5.071   2.871   3.401  0.00  0.00    -0.002 C 
BRANCH  14  20
ATOM     15  C   UNL     1       6.796   4.561   3.570  0.00  0.00    -0.078 C 
ATOM     16  C   UNL     1       7.128   6.022   3.257  0.00  0.00    -0.019 C 
ATOM     17  C   UNL     1       6.214   6.936   4.078  0.00  0.00    -0.004 C 
ATOM     18  C   UNL     1       4.754   6.607   3.756  0.00  0.00    -0.019 C 
ATOM     19  C   UNL     1       4.491   5.129   4.054  0.00  0.00    -0.078 C 
ATOM     20  N   UNL     1       5.385   4.303   3.215  0.00  0.00    +0.386 N 
ATOM     21  H   UNL     1       5.239   4.551   2.229  0.00  0.00    -0.081 HD
ENDBRANCH  14  20
ENDBRANCH   1  14
BRANCH   4  22
ATOM     22  S   UNL     1       0.021   1.225   3.642  0.00  0.00    -0.073 S 
BRANCH  22  23
ATOM     23  C   UNL     1      -1.048   1.782   2.291  0.00  0.00    +0.137 C 
ATOM     24  C   UNL     1      -0.565   1.171   0.974  0.00  0.00    +0.029 C 
BRANCH  23  25
ATOM     25  C   UNL     1      -2.465   1.343   2.558  0.00  0.00    +0.226 C 
ATOM     26  O   UNL     1      -2.683   0.436   3.333  0.00  0.00    -0.275 OA
ATOM     27  N   UNL     1      -3.490   1.959   1.936  0.00  0.00    -0.314 N 
ATOM     28  H   UNL     1      -3.315   2.684   1.317  0.00  0.00    +0.149 HD
BRANCH  27  29
ATOM     29  C   UNL     1      -4.867   1.532   2.196  0.00  0.00    +0.108 C 
BRANCH  29  30
ATOM     30  C   UNL     1      -5.830   2.387   1.370  0.00  0.00    +0.049 C 
BRANCH  30  31
ATOM     31  C   UNL     1      -7.247   1.948   1.637  0.00  0.00    -0.072 C 
ATOM     32  C   UNL     1      -7.921   2.589   2.537  0.00  0.00    -0.028 C 
ATOM     33  C   UNL     1      -9.335   2.263   2.920  0.00  0.00    +0.027 C 
ATOM     34  C   UNL     1      -9.985   1.393   1.841  0.00  0.00    +0.004 C 
ATOM     35  C   UNL     1      -9.038   0.230   1.520  0.00  0.00    +0.005 C 
ATOM     36  C   UNL     1      -7.790   0.800   0.839  0.00  0.00    +0.030 C 
ENDBRANCH  30  31
ENDBRANCH  29  30
ENDBRANCH  27  29
ENDBRANCH  23  25
ENDBRANCH  22  23
ENDBRANCH   4  22
TORSDOF 9
