REMARK  Name = ZINC58701544
REMARK  5 active torsions:
REMARK  status: ('A' for Active; 'I' for Inactive)
REMARK    1  A    between atoms: C_1  and  C_2
REMARK    2  A    between atoms: C_5  and  C_7
REMARK    3  A    between atoms: N_9  and  C_10
REMARK    4  A    between atoms: N_9  and  C_17
REMARK    5  A    between atoms: C_13  and  C_16
REMARK                            x       y       z     vdW  Elec       q    Type
REMARK                         _______ _______ _______ _____ _____    ______ ____
ROOT
ATOM      1  C   UNL     1       1.678  -3.152  -0.184  0.00  0.00    +0.282 C 
ATOM      2  O   UNL     1       0.940  -2.185  -0.145  0.00  0.00    -0.267 OA
ATOM      3  N   UNL     1       2.983  -3.016   0.125  0.00  0.00    -0.289 N 
ENDROOT
BRANCH   3   4
ATOM      4  C   UNL     1       3.890  -4.158  -0.009  0.00  0.00    +0.077 C 
ATOM      5  C   UNL     1       3.584  -4.902  -1.310  0.00  0.00    +0.023 C 
ATOM      6  C   UNL     1       4.532  -6.095  -1.451  0.00  0.00    +0.005 C 
ATOM      7  C   UNL     1       4.340  -7.042  -0.264  0.00  0.00    -0.014 C 
ATOM      8  C   UNL     1       4.646  -6.297   1.037  0.00  0.00    +0.005 C 
ATOM      9  C   UNL     1       3.698  -5.104   1.177  0.00  0.00    +0.023 C 
ATOM     10  C   UNL     1       5.287  -8.235  -0.404  0.00  0.00    +0.007 C 
ENDBRANCH   3   4
BRANCH   1  15
ATOM     11  C   UNL     1       0.944  -8.103  -0.323  0.00  0.00    +0.086 C 
ATOM     12  C   UNL     1       0.823  -6.633  -0.633  0.00  0.00    +0.103 A 
ATOM     13  C   UNL     1      -0.003  -6.088  -1.554  0.00  0.00    +0.045 A 
ATOM     14  C   UNL     1       0.198  -4.700  -1.519  0.00  0.00    +0.055 A 
ATOM     15  C   UNL     1       1.148  -4.465  -0.567  0.00  0.00    +0.190 A 
ATOM     16  O   UNL     1       1.511  -5.651  -0.037  0.00  0.00    -0.455 OA
ENDBRANCH   1  15
BRANCH   3  17
ATOM     17  C   UNL     1       3.494  -1.726   0.595  0.00  0.00    +0.077 C 
ATOM     18  C   UNL     1       2.471  -0.690   1.067  0.00  0.00    +0.024 C 
ATOM     19  C   UNL     1       3.199  -0.494  -0.264  0.00  0.00    +0.024 C 
ENDBRANCH   3  17
TORSDOF 3
