REMARK  Name = ZINC20888988
REMARK  15 active torsions:
REMARK  status: ('A' for Active; 'I' for Inactive)
REMARK    1  A    between atoms: C_1  and  C_2
REMARK    2  A    between atoms: C_2  and  C_3
REMARK    3  A    between atoms: C_4  and  C_32
REMARK    4  A    between atoms: C_6  and  N_13
REMARK    5  A    between atoms: C_7  and  C_8
REMARK    6  A    between atoms: C_8  and  O_10
REMARK    7  A    between atoms: O_10  and  C_11
REMARK    8  A    between atoms: C_11  and  C_12
REMARK    9  A    between atoms: C_14  and  C_16
REMARK   10  A    between atoms: C_16  and  S_17
REMARK   11  A    between atoms: S_17  and  C_18
REMARK   12  A    between atoms: C_21  and  C_24
REMARK   13  A    between atoms: N_22  and  N_23
REMARK   14  A    between atoms: C_27  and  O_30
REMARK   15  A    between atoms: O_30  and  C_31
REMARK                            x       y       z     vdW  Elec       q    Type
REMARK                         _______ _______ _______ _____ _____    ______ ____
ROOT
ATOM      1  C   UNL     1      -1.343   2.359  -0.622  0.00  0.00    +0.173 C 
ENDROOT
BRANCH   1   3
ATOM      2  N   UNL     1       1.079   2.594  -1.070  0.00  0.00    -0.279 N 
ATOM      3  C   UNL     1       0.025   1.778  -0.874  0.00  0.00    +0.228 C 
ATOM      4  O   UNL     1       0.175   0.575  -0.905  0.00  0.00    -0.275 OA
ATOM      5  H   UNL     1       0.942   3.685  -1.041  0.00  0.00    +0.155 HD
BRANCH   2   9
ATOM      6  C   UNL     1       4.702   1.915  -1.753  0.00  0.00    -0.022 A 
ATOM      7  C   UNL     1       4.535   0.581  -1.726  0.00  0.00    -0.008 A 
ATOM      8  S   UNL     1       2.796   0.393  -1.391  0.00  0.00    -0.078 S 
ATOM      9  C   UNL     1       2.335   2.059  -1.308  0.00  0.00    +0.086 A 
ATOM     10  C   UNL     1       3.532   2.732  -1.531  0.00  0.00    +0.091 A 
ATOM     11  C   UNL     1       5.571  -0.495  -1.924  0.00  0.00    +0.052 C 
BRANCH   6  13
ATOM     12  C   UNL     1       6.778   2.738  -0.674  0.00  0.00    +0.009 C 
ATOM     13  C   UNL     1       6.054   2.532  -2.006  0.00  0.00    +0.033 C 
ENDBRANCH   6  13
BRANCH  10  14
ATOM     14  C   UNL     1       3.602   4.194  -1.541  0.00  0.00    +0.342 C 
ATOM     15  O   UNL     1       3.826   4.799  -0.510  0.00  0.00    -0.245 OA
BRANCH  14  16
ATOM     16  O   UNL     1       3.418   4.870  -2.693  0.00  0.00    -0.461 OA
BRANCH  16  17
ATOM     17  C   UNL     1       3.502   6.319  -2.628  0.00  0.00    +0.229 C 
ATOM     18  C   UNL     1       3.268   6.906  -4.022  0.00  0.00    +0.048 C 
ENDBRANCH  16  17
ENDBRANCH  14  16
ENDBRANCH  10  14
ENDBRANCH   2   9
ENDBRANCH   1   3
BRANCH   1  19
ATOM     19  S   UNL     1      -2.538   1.018  -0.407  0.00  0.00    -0.075 S 
BRANCH  19  20
ATOM     20  C   UNL     1      -4.005   1.956  -0.135  0.00  0.00    +0.209 A 
ATOM     21  N   UNL     1      -4.098   3.266  -0.108  0.00  0.00    -0.121 NA
ATOM     22  N   UNL     1      -5.314   3.618   0.111  0.00  0.00    -0.127 NA
ATOM     23  C   UNL     1      -6.072   2.554   0.246  0.00  0.00    +0.182 A 
ATOM     24  N   UNL     1      -5.256   1.456   0.092  0.00  0.00    -0.224 N 
BRANCH  23  25
ATOM     25  C   UNL     1      -7.525   2.538   0.513  0.00  0.00    +0.021 A 
ATOM     26  C   UNL     1      -8.288   3.688   0.302  0.00  0.00    +0.015 A 
ATOM     27  C   UNL     1      -9.645   3.667   0.548  0.00  0.00    +0.046 A 
ATOM     28  C   UNL     1     -10.250   2.508   1.014  0.00  0.00    +0.120 A 
ATOM     29  C   UNL     1      -9.494   1.364   1.231  0.00  0.00    +0.046 A 
ATOM     30  C   UNL     1      -8.138   1.375   0.983  0.00  0.00    +0.015 A 
BRANCH  28  31
ATOM     31  O   UNL     1     -11.586   2.494   1.261  0.00  0.00    -0.495 OA
ATOM     32  C   UNL     1     -12.304   3.705   1.017  0.00  0.00    +0.277 C 
ENDBRANCH  28  31
ENDBRANCH  23  25
BRANCH  24  33
ATOM     33  N   UNL     1      -5.621   0.142   0.154  0.00  0.00    -0.295 N 
ATOM     34  H   UNL     1      -6.670  -0.130   0.345  0.00  0.00    +0.163 HD
ATOM     35  H   UNL     1      -4.867  -0.646   0.013  0.00  0.00    +0.163 HD
ENDBRANCH  24  33
ENDBRANCH  19  20
ENDBRANCH   1  19
TORSDOF 11
