REMARK  Name = ZINC10784740
REMARK  8 active torsions:
REMARK  status: ('A' for Active; 'I' for Inactive)
REMARK    1  A    between atoms: C_1  and  C_2
REMARK    2  A    between atoms: C_5  and  C_8
REMARK    3  A    between atoms: C_11  and  S_14
REMARK    4  A    between atoms: N_12  and  N_13
REMARK    5  A    between atoms: S_14  and  C_15
REMARK    6  A    between atoms: C_15  and  C_17
REMARK    7  A    between atoms: C_15  and  C_18
REMARK    8  A    between atoms: C_23  and  C_26
REMARK                            x       y       z     vdW  Elec       q    Type
REMARK                         _______ _______ _______ _____ _____    ______ ____
ROOT
ATOM      1  C   UNL     1       1.680   1.733  -0.521  0.00  0.00    +0.137 C 
ATOM      2  C   UNL     1       2.182   1.654   0.922  0.00  0.00    +0.029 C 
ENDROOT
BRANCH   1   3
ATOM      3  C   UNL     1       0.517   0.792  -0.701  0.00  0.00    +0.232 C 
ATOM      4  O   UNL     1      -0.618   1.221  -0.685  0.00  0.00    -0.274 OA
ATOM      5  N   UNL     1       0.737  -0.524  -0.885  0.00  0.00    -0.264 N 
ATOM      6  C   UNL     1      -0.336  -1.392  -1.051  0.00  0.00    +0.165 A 
ATOM      7  N   UNL     1      -0.332  -2.698  -1.242  0.00  0.00    -0.225 NA
ATOM      8  C   UNL     1      -1.461  -3.376  -1.382  0.00  0.00    +0.080 A 
ATOM      9  C   UNL     1      -2.654  -2.710  -1.328  0.00  0.00    +0.076 A 
ATOM     10  S   UNL     1      -2.087  -1.036  -1.055  0.00  0.00    -0.060 S 
ATOM     11  H   UNL     1       1.766  -0.912  -0.904  0.00  0.00    +0.157 HD
BRANCH   8  12
ATOM     12  C   UNL     1      -1.432  -4.843  -1.595  0.00  0.00    +0.004 A 
ATOM     13  C   UNL     1      -0.213  -5.517  -1.649  0.00  0.00    +0.013 A 
ATOM     14  C   UNL     1      -0.189  -6.883  -1.848  0.00  0.00    +0.042 A 
ATOM     15  C   UNL     1      -1.374  -7.585  -1.995  0.00  0.00    +0.158 A 
ATOM     16  C   UNL     1      -2.590  -6.919  -1.943  0.00  0.00    +0.159 A 
ATOM     17  C   UNL     1      -2.623  -5.553  -1.737  0.00  0.00    +0.051 A 
ATOM     18  F   UNL     1      -3.743  -7.608  -2.087  0.00  0.00    -0.202 F 
ATOM     19  F   UNL     1      -1.346  -8.921  -2.190  0.00  0.00    -0.202 F 
ENDBRANCH   8  12
ENDBRANCH   1   3
BRANCH   1  20
ATOM     20  S   UNL     1       1.150   3.425  -0.884  0.00  0.00    -0.072 S 
BRANCH  20  24
ATOM     21  C   UNL     1       4.252   5.795  -0.721  0.00  0.00    +0.182 A 
ATOM     22  N   UNL     1       4.771   4.622  -0.443  0.00  0.00    -0.127 NA
ATOM     23  N   UNL     1       3.853   3.722  -0.454  0.00  0.00    -0.121 NA
ATOM     24  C   UNL     1       2.693   4.265  -0.749  0.00  0.00    +0.209 A 
ATOM     25  N   UNL     1       2.905   5.603  -0.926  0.00  0.00    -0.224 N 
BRANCH  21  30
ATOM     26  C   UNL     1       7.077  10.799  -1.025  0.00  0.00    +0.044 C 
ATOM     27  C   UNL     1       6.338   9.489  -0.946  0.00  0.00    -0.050 A 
ATOM     28  C   UNL     1       4.959   9.482  -0.823  0.00  0.00    +0.004 A 
ATOM     29  C   UNL     1       4.276   8.286  -0.750  0.00  0.00    +0.012 A 
ATOM     30  C   UNL     1       4.978   7.081  -0.799  0.00  0.00    +0.021 A 
ATOM     31  C   UNL     1       6.369   7.094  -0.917  0.00  0.00    +0.012 A 
ATOM     32  C   UNL     1       7.039   8.297  -0.995  0.00  0.00    +0.004 A 
ENDBRANCH  21  30
BRANCH  25  33
ATOM     33  N   UNL     1       1.974   6.552  -1.240  0.00  0.00    -0.295 N 
ATOM     34  H   UNL     1       0.921   6.265  -1.378  0.00  0.00    +0.163 HD
ATOM     35  H   UNL     1       2.278   7.603  -1.355  0.00  0.00    +0.163 HD
ENDBRANCH  25  33
ENDBRANCH  20  24
ENDBRANCH   1  20
TORSDOF 6
