REMARK  Name = ZINC04729535
REMARK  8 active torsions:
REMARK  status: ('A' for Active; 'I' for Inactive)
REMARK    1  A    between atoms: C_1  and  C_2
REMARK    2  A    between atoms: C_2  and  C_3
REMARK    3  A    between atoms: C_6  and  C_9
REMARK    4  A    between atoms: C_11  and  C_24
REMARK    5  A    between atoms: C_13  and  C_16
REMARK    6  A    between atoms: C_21  and  O_22
REMARK    7  A    between atoms: C_24  and  C_25
REMARK    8  A    between atoms: C_24  and  C_26
REMARK                            x       y       z     vdW  Elec       q    Type
REMARK                         _______ _______ _______ _____ _____    ______ ____
ROOT
ATOM      1  C   UNL     1      -2.217   1.330   1.114  0.00  0.00    +0.040 C 
ATOM      2  N   UNL     1      -2.772   1.052  -0.005  0.00  0.00    -0.303 NA
ATOM      3  C   UNL     1      -2.054   0.938  -1.269  0.00  0.00    +0.053 C 
ATOM      4  C   UNL     1      -0.013   1.086   0.008  0.00  0.00    -0.029 C 
ATOM      5  C   UNL     1      -0.742   1.586   1.259  0.00  0.00    +0.044 C 
ATOM      6  N   UNL     1      -0.735   1.583  -1.179  0.00  0.00    +0.399 N 
ATOM      7  H   UNL     1      -0.858   2.599  -1.102  0.00  0.00    -0.082 HD
ATOM      8  H   UNL     1      -0.192   1.367  -2.023  0.00  0.00    -0.082 HD
ENDROOT
BRANCH   4   9
ATOM      9  C   UNL     1       1.399   1.613  -0.003  0.00  0.00    -0.018 A 
ATOM     10  C   UNL     1       1.698   2.774  -0.690  0.00  0.00    +0.020 A 
ATOM     11  C   UNL     1       2.993   3.261  -0.697  0.00  0.00    +0.018 A 
ATOM     12  C   UNL     1       3.993   2.582  -0.023  0.00  0.00    +0.019 A 
ATOM     13  C   UNL     1       3.699   1.419   0.661  0.00  0.00    +0.047 A 
ATOM     14  C   UNL     1       2.400   0.931   0.673  0.00  0.00    +0.119 A 
ATOM     15 BR   UNL     1       3.398   4.853  -1.634  0.00  0.00    -0.050 Br
BRANCH  14  16
ATOM     16  O   UNL     1       2.109  -0.213   1.345  0.00  0.00    -0.507 OA
ATOM     17  H   UNL     1       2.195  -1.016   0.812  0.00  0.00    +0.292 HD
ENDBRANCH  14  16
ENDBRANCH   4   9
BRANCH   1  21
ATOM     18  C   UNL     1      -4.656   1.539   4.583  0.00  0.00    -0.048 A 
ATOM     19  C   UNL     1      -5.226   1.241   3.357  0.00  0.00    +0.004 A 
ATOM     20  C   UNL     1      -4.439   1.171   2.226  0.00  0.00    +0.010 A 
ATOM     21  C   UNL     1      -3.065   1.403   2.320  0.00  0.00    -0.004 A 
ATOM     22  C   UNL     1      -2.497   1.698   3.560  0.00  0.00    +0.010 A 
ATOM     23  C   UNL     1      -3.296   1.770   4.682  0.00  0.00    +0.004 A 
BRANCH  18  25
ATOM     24  C   UNL     1      -5.594   0.233   6.470  0.00  0.00    +0.009 C 
ATOM     25  C   UNL     1      -5.522   1.613   5.814  0.00  0.00    +0.032 C 
ENDBRANCH  18  25
ENDBRANCH   1  21
BRANCH   3  26
ATOM     26  C   UNL     1      -2.868   1.615  -2.373  0.00  0.00    -0.010 C 
ATOM     27  C   UNL     1      -2.133   1.473  -3.708  0.00  0.00    +0.007 C 
ATOM     28  C   UNL     1      -4.242   0.950  -2.475  0.00  0.00    +0.007 C 
ENDBRANCH   3  26
TORSDOF 5
