REMARK  Name = ZINC17660837
REMARK  7 active torsions:
REMARK  status: ('A' for Active; 'I' for Inactive)
REMARK    1  A    between atoms: C_1  and  C_2
REMARK    2  A    between atoms: C_2  and  O_3
REMARK    3  A    between atoms: O_3  and  C_4
REMARK    4  A    between atoms: C_7  and  N_10
REMARK    5  A    between atoms: C_19  and  S_20
REMARK    6  A    between atoms: S_20  and  C_21
REMARK    7  A    between atoms: C_21  and  C_22
REMARK                            x       y       z     vdW  Elec       q    Type
REMARK                         _______ _______ _______ _____ _____    ______ ____
ROOT
ATOM      1  N   UNL     1      -1.649   4.495  -4.529  0.00  0.00    -0.255 N 
ATOM      2  C   UNL     1      -1.889   3.563  -3.576  0.00  0.00    +0.268 A 
ATOM      3  O   UNL     1      -2.248   2.432  -3.853  0.00  0.00    -0.267 OA
ATOM      4  C   UNL     1      -1.693   3.989  -2.222  0.00  0.00    +0.076 A 
ATOM      5  C   UNL     1      -1.881   3.188  -1.023  0.00  0.00    -0.023 A 
ATOM      6  C   UNL     1      -1.638   3.799   0.159  0.00  0.00    -0.004 A 
ATOM      7  S   UNL     1      -1.151   5.453  -0.263  0.00  0.00    -0.073 S 
ATOM      8  C   UNL     1      -1.275   5.324  -2.019  0.00  0.00    +0.117 A 
ATOM      9  N   UNL     1      -1.057   6.191  -3.000  0.00  0.00    -0.215 NA
ATOM     10  C   UNL     1      -1.247   5.765  -4.241  0.00  0.00    +0.178 A 
ATOM     11  C   UNL     1      -1.756   3.204   1.528  0.00  0.00    +0.043 C 
ATOM     12  C   UNL     1      -2.555   1.897   1.423  0.00  0.00    +0.005 C 
ATOM     13  C   UNL     1      -1.984   1.067   0.269  0.00  0.00    +0.005 C 
ATOM     14  C   UNL     1      -2.329   1.730  -1.065  0.00  0.00    +0.037 C 
ENDROOT
BRANCH   1  18
ATOM     15  C   UNL     1      -2.169   3.429  -8.528  0.00  0.00    +0.121 A 
ATOM     16  C   UNL     1      -0.936   3.252  -7.918  0.00  0.00    +0.047 A 
ATOM     17  C   UNL     1      -0.763   3.605  -6.594  0.00  0.00    +0.030 A 
ATOM     18  C   UNL     1      -1.824   4.136  -5.874  0.00  0.00    +0.052 A 
ATOM     19  C   UNL     1      -3.060   4.308  -6.483  0.00  0.00    +0.030 A 
ATOM     20  C   UNL     1      -3.230   3.959  -7.808  0.00  0.00    +0.047 A 
BRANCH  15  21
ATOM     21  O   UNL     1      -2.338   3.081  -9.831  0.00  0.00    -0.492 OA
BRANCH  21  23
ATOM     22  C   UNL     1      -3.632   2.843 -11.859  0.00  0.00    +0.048 C 
ATOM     23  C   UNL     1      -3.635   3.290 -10.395  0.00  0.00    +0.225 C 
ENDBRANCH  21  23
ENDBRANCH  15  21
ENDBRANCH   1  18
BRANCH  10  24
ATOM     24  S   UNL     1      -0.968   6.885  -5.572  0.00  0.00    -0.079 S 
BRANCH  24  25
ATOM     25  C   UNL     1      -0.472   8.358  -4.644  0.00  0.00    +0.153 C 
BRANCH  25  26
ATOM     26  C   UNL     1      -0.175   9.481  -5.604  0.00  0.00    +0.146 A 
ATOM     27  N   UNL     1       1.050   9.640  -6.073  0.00  0.00    -0.199 NA
ATOM     28  C   UNL     1       1.316  10.628  -6.925  0.00  0.00    +0.217 A 
ATOM     29  N   UNL     1       0.349  11.460  -7.296  0.00  0.00    -0.181 NA
ATOM     30  C   UNL     1      -0.880  11.300  -6.820  0.00  0.00    +0.217 A 
ATOM     31  N   UNL     1      -1.139  10.306  -5.972  0.00  0.00    -0.199 NA
ATOM     32  N   UNL     1      -1.888  12.162  -7.202  0.00  0.00    -0.327 N 
ATOM     33  N   UNL     1       2.595  10.790  -7.418  0.00  0.00    -0.327 N 
ATOM     34  H   UNL     1      -2.785  12.044  -6.853  0.00  0.00    +0.145 HD
ATOM     35  H   UNL     1      -1.698  12.885  -7.820  0.00  0.00    +0.145 HD
ATOM     36  H   UNL     1       2.788  11.512  -8.036  0.00  0.00    +0.145 HD
ATOM     37  H   UNL     1       3.300  10.182  -7.146  0.00  0.00    +0.145 HD
ENDBRANCH  25  26
ENDBRANCH  24  25
ENDBRANCH  10  24
TORSDOF 6
