REMARK  Name = ZINC40727027
REMARK  4 active torsions:
REMARK  status: ('A' for Active; 'I' for Inactive)
REMARK    1  A    between atoms: C_4  and  N_7
REMARK    2  A    between atoms: C_14  and  N_27
REMARK    3  A    between atoms: C_15  and  N_19
REMARK    4  A    between atoms: N_19  and  C_20
REMARK                            x       y       z     vdW  Elec       q    Type
REMARK                         _______ _______ _______ _____ _____    ______ ____
ROOT
ATOM      1  N   UNL     1       3.697  -0.530  -0.034  0.00  0.00    -0.327 N 
ATOM      2  C   UNL     1       4.978   0.184  -0.139  0.00  0.00    +0.124 C 
ATOM      3  C   UNL     1       5.867  -0.228   1.041  0.00  0.00    +0.125 C 
ATOM      4  N   UNL     1       5.879  -1.695   1.129  0.00  0.00    -0.311 N 
ATOM      5  C   UNL     1       4.599  -2.409   1.234  0.00  0.00    +0.125 C 
ATOM      6  C   UNL     1       3.710  -1.997   0.060  0.00  0.00    +0.124 C 
ATOM      7  C   UNL     1       7.080  -2.394   1.113  0.00  0.00    +0.147 A 
ATOM      8  C   UNL     1       7.699  -2.767   2.308  0.00  0.00    +0.106 A 
ATOM      9  C   UNL     1       8.904  -3.468   2.236  0.00  0.00    +0.149 A 
ATOM     10  N   UNL     1       9.414  -3.752   1.039  0.00  0.00    -0.219 NA
ATOM     11  C   UNL     1       8.797  -3.381  -0.065  0.00  0.00    +0.225 A 
ATOM     12  N   UNL     1       7.655  -2.723  -0.040  0.00  0.00    -0.219 NA
ENDROOT
BRANCH   1  16
ATOM     13  C   UNL     1       0.099   1.565   0.014  0.00  0.00    +0.000 A 
ATOM     14  C   UNL     1       0.092   0.183  -0.029  0.00  0.00    +0.002 A 
ATOM     15  C   UNL     1       1.284  -0.515  -0.045  0.00  0.00    +0.023 A 
ATOM     16  C   UNL     1       2.490   0.173  -0.018  0.00  0.00    +0.030 A 
ATOM     17  C   UNL     1       2.494   1.561   0.024  0.00  0.00    +0.023 A 
ATOM     18  C   UNL     1       1.298   2.253   0.040  0.00  0.00    +0.002 A 
ENDBRANCH   1  16
BRANCH   8  19
ATOM     19  N   UNL     1       7.126  -2.445   3.549  0.00  0.00    -0.353 N 
ATOM     20  H   UNL     1       6.253  -2.022   3.585  0.00  0.00    +0.143 HD
ATOM     21  H   UNL     1       7.602  -2.645   4.370  0.00  0.00    +0.143 HD
ENDBRANCH   8  19
BRANCH   9  22
ATOM     22  N   UNL     1       9.562  -3.862   3.395  0.00  0.00    -0.297 N 
ATOM     23  H   UNL     1       9.214  -3.603   4.263  0.00  0.00    +0.154 HD
BRANCH  22  24
ATOM     24  C   UNL     1      10.726  -4.633   3.311  0.00  0.00    +0.047 A 
ATOM     25  C   UNL     1      11.610  -4.445   2.256  0.00  0.00    +0.024 A 
ATOM     26  C   UNL     1      12.759  -5.207   2.176  0.00  0.00    +0.002 A 
ATOM     27  C   UNL     1      13.030  -6.157   3.143  0.00  0.00    +0.001 A 
ATOM     28  C   UNL     1      12.152  -6.348   4.195  0.00  0.00    +0.017 A 
ATOM     29  C   UNL     1      11.003  -5.585   4.284  0.00  0.00    +0.039 A 
ATOM     30 BR   UNL     1       9.807  -5.840   5.726  0.00  0.00    -0.048 Br
ENDBRANCH  22  24
ENDBRANCH   9  22
TORSDOF 4
