REMARK  Name = ZINC13397098
REMARK  4 active torsions:
REMARK  status: ('A' for Active; 'I' for Inactive)
REMARK    1  A    between atoms: C_4  and  C_7
REMARK    2  A    between atoms: C_18  and  N_19
REMARK    3  A    between atoms: N_19  and  C_20
REMARK    4  A    between atoms: C_25  and  N_26
REMARK                            x       y       z     vdW  Elec       q    Type
REMARK                         _______ _______ _______ _____ _____    ______ ____
ROOT
ATOM      1  C   UNL     1       2.468  -0.964  -0.133  0.00  0.00    +0.085 C 
ATOM      2  C   UNL     1       2.364  -1.906   1.042  0.00  0.00    -0.022 A 
ATOM      3  C   UNL     1       2.085  -1.690   2.374  0.00  0.00    +0.005 A 
ATOM      4  C   UNL     1       2.052  -2.754   3.259  0.00  0.00    +0.003 A 
ATOM      5  C   UNL     1       2.298  -4.038   2.812  0.00  0.00    +0.039 A 
ATOM      6  C   UNL     1       2.579  -4.269   1.478  0.00  0.00    +0.134 A 
ATOM      7  C   UNL     1       2.615  -3.197   0.577  0.00  0.00    +0.061 A 
ATOM      8  C   UNL     1       2.885  -3.155  -0.874  0.00  0.00    +0.194 C 
ATOM      9  O   UNL     1       3.140  -4.122  -1.570  0.00  0.00    -0.287 OA
ATOM     10  C   UNL     1       2.804  -1.821  -1.331  0.00  0.00    +0.025 C 
ATOM     11  C   UNL     1       2.991  -1.391  -2.600  0.00  0.00    +0.080 C 
ATOM     12  F   UNL     1       2.820  -5.526   1.045  0.00  0.00    -0.205 F 
ENDROOT
BRANCH   1  16
ATOM     13  C   UNL     1      -1.258   1.030  -0.754  0.00  0.00    +0.000 A 
ATOM     14  C   UNL     1      -0.115   1.765  -0.499  0.00  0.00    +0.000 A 
ATOM     15  C   UNL     1       1.091   1.119  -0.298  0.00  0.00    +0.004 A 
ATOM     16  C   UNL     1       1.153  -0.261  -0.352  0.00  0.00    -0.035 A 
ATOM     17  C   UNL     1       0.010  -0.995  -0.606  0.00  0.00    +0.004 A 
ATOM     18  C   UNL     1      -1.195  -0.350  -0.808  0.00  0.00    +0.000 A 
ENDBRANCH   1  16
BRANCH  11  19
ATOM     19  N   UNL     1       3.292  -2.286  -3.587  0.00  0.00    -0.318 N 
ATOM     20  H   UNL     1       3.372  -3.230  -3.378  0.00  0.00    +0.152 HD
BRANCH  19  21
ATOM     21  C   UNL     1       3.486  -1.842  -4.897  0.00  0.00    +0.061 A 
ATOM     22  C   UNL     1       3.249  -0.512  -5.224  0.00  0.00    +0.025 A 
ATOM     23  C   UNL     1       3.441  -0.077  -6.520  0.00  0.00    +0.002 A 
ATOM     24  C   UNL     1       3.868  -0.963  -7.493  0.00  0.00    +0.002 A 
ATOM     25  C   UNL     1       4.105  -2.286  -7.171  0.00  0.00    +0.034 A 
ATOM     26  C   UNL     1       3.921  -2.727  -5.875  0.00  0.00    +0.147 A 
BRANCH  26  27
ATOM     27  N   UNL     1       4.181  -4.143  -5.530  0.00  0.00    +0.058 N 
ATOM     28  O   UNL     1       4.680  -4.424  -4.465  0.00  0.00    -0.126 OA
ATOM     29  O   UNL     1       3.895  -5.018  -6.314  0.00  0.00    -0.126 OA
ENDBRANCH  26  27
ENDBRANCH  19  21
ENDBRANCH  11  19
TORSDOF 4
