REMARK  Name = ZINC21791423
REMARK  8 active torsions:
REMARK  status: ('A' for Active; 'I' for Inactive)
REMARK    1  A    between atoms: C_1  and  C_2
REMARK    2  A    between atoms: C_5  and  C_9
REMARK    3  A    between atoms: C_6  and  O_8
REMARK    4  A    between atoms: C_9  and  C_11
REMARK    5  A    between atoms: C_9  and  N_12
REMARK    6  A    between atoms: N_12  and  C_13
REMARK    7  A    between atoms: C_17  and  S_19
REMARK    8  A    between atoms: S_19  and  N_22
REMARK                            x       y       z     vdW  Elec       q    Type
REMARK                         _______ _______ _______ _____ _____    ______ ____
ROOT
ATOM      1  N   UNL     1      -2.369   5.214  -0.530  0.00  0.00    -0.337 N 
ATOM      2  H   UNL     1      -1.377   5.689  -0.513  0.00  0.00    +0.147 HD
ENDROOT
BRANCH   1   3
ATOM      3  C   UNL     1      -3.453   5.881  -1.103  0.00  0.00    +0.029 A 
ATOM      4  C   UNL     1      -4.707   5.282  -1.125  0.00  0.00    +0.023 A 
ATOM      5  C   UNL     1      -5.777   5.946  -1.691  0.00  0.00    +0.004 A 
ATOM      6  C   UNL     1      -5.603   7.205  -2.236  0.00  0.00    +0.028 A 
ATOM      7  C   UNL     1      -4.357   7.804  -2.216  0.00  0.00    +0.107 A 
ATOM      8  C   UNL     1      -3.283   7.148  -1.646  0.00  0.00    +0.051 A 
BRANCH   7   9
ATOM      9  S   UNL     1      -4.141   9.408  -2.911  0.00  0.00    +0.056 S 
ATOM     10  O   UNL     1      -2.766   9.520  -3.255  0.00  0.00    -0.153 OA
ATOM     11  O   UNL     1      -5.181   9.582  -3.864  0.00  0.00    -0.153 OA
BRANCH   9  12
ATOM     12  N   UNL     1      -4.417  10.507  -1.703  0.00  0.00    -0.204 NA
ATOM     13  H   UNL     1      -4.291  11.526  -2.098  0.00  0.00    +0.144 HD
ATOM     14  H   UNL     1      -3.701  10.340  -0.885  0.00  0.00    +0.144 HD
ENDBRANCH   9  12
ENDBRANCH   7   9
ENDBRANCH   1   3
BRANCH   1  15
ATOM     15  C   UNL     1      -2.551   3.880   0.048  0.00  0.00    +0.101 C 
ATOM     16  C   UNL     1      -3.043   4.013   1.491  0.00  0.00    +0.033 C 
BRANCH  15  21
ATOM     17  C   UNL     1       2.489   1.048  -0.017  0.00  0.00    +0.044 C 
ATOM     18  C   UNL     1       1.174   1.783   0.000  0.00  0.00    -0.047 A 
ATOM     19  C   UNL     1       1.156   3.166   0.008  0.00  0.00    +0.004 A 
ATOM     20  C   UNL     1      -0.049   3.844   0.023  0.00  0.00    +0.009 A 
ATOM     21  C   UNL     1      -1.239   3.141   0.031  0.00  0.00    +0.014 A 
ATOM     22  C   UNL     1      -1.223   1.754   0.017  0.00  0.00    +0.122 A 
ATOM     23  C   UNL     1      -0.013   1.076   0.008  0.00  0.00    +0.049 A 
BRANCH  22  24
ATOM     24  O   UNL     1      -2.392   1.060   0.019  0.00  0.00    -0.506 OA
ATOM     25  H   UNL     1      -2.378  -0.040   0.008  0.00  0.00    +0.292 HD
ENDBRANCH  22  24
ENDBRANCH  15  21
ENDBRANCH   1  15
TORSDOF 6
