REMARK  Name = ZINC16662599
REMARK  5 active torsions:
REMARK  status: ('A' for Active; 'I' for Inactive)
REMARK    1  A    between atoms: C_1  and  C_2
REMARK    2  A    between atoms: C_2  and  C_16
REMARK    3  A    between atoms: N_3  and  N_4
REMARK    4  A    between atoms: C_7  and  C_10
REMARK    5  A    between atoms: C_21  and  O_22
REMARK                            x       y       z     vdW  Elec       q    Type
REMARK                         _______ _______ _______ _____ _____    ______ ____
ROOT
ATOM      1  N   UNL     1      -0.223  -2.030   1.140  0.00  0.00    -0.215 N 
ATOM      2  C   UNL     1      -0.388  -2.705   2.337  0.00  0.00    +0.178 A 
ATOM      3  N   UNL     1      -0.556  -3.997   2.553  0.00  0.00    -0.224 NA
ATOM      4  C   UNL     1      -0.698  -4.477   3.779  0.00  0.00    +0.080 A 
ATOM      5  C   UNL     1      -0.671  -3.618   4.843  0.00  0.00    +0.077 A 
ATOM      6  S   UNL     1      -0.421  -2.059   4.004  0.00  0.00    -0.059 S 
ATOM      7  H   UNL     1      -0.227  -2.520   0.303  0.00  0.00    +0.176 HD
ENDROOT
BRANCH   4   8
ATOM      8  C   UNL     1      -0.886  -5.932   3.997  0.00  0.00    +0.001 A 
ATOM      9  C   UNL     1      -1.042  -6.431   5.289  0.00  0.00    +0.010 A 
ATOM     10  C   UNL     1      -1.217  -7.786   5.485  0.00  0.00    +0.001 A 
ATOM     11  C   UNL     1      -1.237  -8.648   4.403  0.00  0.00    +0.000 A 
ATOM     12  C   UNL     1      -1.082  -8.158   3.119  0.00  0.00    +0.001 A 
ATOM     13  C   UNL     1      -0.914  -6.804   2.910  0.00  0.00    +0.010 A 
ENDBRANCH   4   8
BRANCH   1  16
ATOM     14  C   UNL     1       0.090   1.510   0.009  0.00  0.00    +0.068 C 
ATOM     15  C   UNL     1      -0.005   0.006   0.011  0.00  0.00    +0.067 C 
ATOM     16  N   UNL     1      -0.052  -0.640   1.137  0.00  0.00    -0.185 NA
BRANCH  15  17
ATOM     17  C   UNL     1      -0.045  -0.731  -1.264  0.00  0.00    +0.039 A 
ATOM     18  C   UNL     1      -1.190  -1.442  -1.629  0.00  0.00    +0.013 A 
ATOM     19  C   UNL     1      -1.221  -2.130  -2.824  0.00  0.00    +0.001 A 
ATOM     20  C   UNL     1      -0.121  -2.119  -3.664  0.00  0.00    +0.004 A 
ATOM     21  C   UNL     1       1.019  -1.420  -3.314  0.00  0.00    +0.046 A 
ATOM     22  C   UNL     1       1.065  -0.719  -2.120  0.00  0.00    +0.126 A 
BRANCH  22  23
ATOM     23  O   UNL     1       2.182  -0.027  -1.778  0.00  0.00    -0.506 OA
ATOM     24  H   UNL     1       2.792  -0.519  -1.211  0.00  0.00    +0.292 HD
ENDBRANCH  22  23
ENDBRANCH  15  17
ENDBRANCH   1  16
TORSDOF 4
