REMARK  Name = ZINC05516286
REMARK  6 active torsions:
REMARK  status: ('A' for Active; 'I' for Inactive)
REMARK    1  A    between atoms: C_1  and  C_2
REMARK    2  A    between atoms: C_5  and  C_24
REMARK    3  A    between atoms: C_6  and  S_8
REMARK    4  A    between atoms: S_8  and  N_11
REMARK    5  A    between atoms: N_11  and  C_12
REMARK    6  A    between atoms: C_15  and  O_22
REMARK                            x       y       z     vdW  Elec       q    Type
REMARK                         _______ _______ _______ _____ _____    ______ ____
ROOT
ATOM      1  N   UNL     1       0.461  -0.478  -1.505  0.00  0.00    -0.216 N 
ATOM      2  H   UNL     1      -0.183  -0.833  -2.138  0.00  0.00    +0.174 HD
ENDROOT
BRANCH   1   3
ATOM      3  C   UNL     1       1.791  -0.295  -1.889  0.00  0.00    +0.057 A 
ATOM      4  C   UNL     1       2.809  -0.511  -0.986  0.00  0.00    +0.044 A 
ATOM      5  C   UNL     1       4.140  -0.333  -1.355  0.00  0.00    +0.062 A 
ATOM      6  C   UNL     1       4.471   0.064  -2.631  0.00  0.00    +0.139 A 
ATOM      7  C   UNL     1       3.454   0.293  -3.578  0.00  0.00    +0.026 A 
ATOM      8  C   UNL     1       2.100   0.106  -3.206  0.00  0.00    +0.008 A 
ATOM      9  C   UNL     1       1.087   0.340  -4.150  0.00  0.00    +0.010 A 
ATOM     10  C   UNL     1       1.419   0.733  -5.411  0.00  0.00    +0.001 A 
ATOM     11  C   UNL     1       2.751   0.911  -5.779  0.00  0.00    +0.001 A 
ATOM     12  C   UNL     1       3.758   0.698  -4.888  0.00  0.00    +0.012 A 
ATOM     13 BR   UNL     1       5.509  -0.640  -0.088  0.00  0.00    -0.046 Br
BRANCH   6  14
ATOM     14  O   UNL     1       5.776   0.234  -2.976  0.00  0.00    -0.505 OA
ATOM     15  H   UNL     1       6.197  -0.562  -3.327  0.00  0.00    +0.292 HD
ENDBRANCH   6  14
ENDBRANCH   1   3
BRANCH   1  16
ATOM     16  S   UNL     1      -0.017  -0.091   0.033  0.00  0.00    +0.073 S 
ATOM     17  O   UNL     1       0.851  -0.787   0.916  0.00  0.00    -0.150 OA
ATOM     18  O   UNL     1      -1.429  -0.249   0.071  0.00  0.00    -0.150 OA
BRANCH  16  24
ATOM     19  C   UNL     1       2.547   3.831   2.349  0.00  0.00    +0.044 C 
ATOM     20  C   UNL     1       1.508   3.384   1.353  0.00  0.00    -0.049 A 
ATOM     21  C   UNL     1       0.806   4.322   0.619  0.00  0.00    +0.004 A 
ATOM     22  C   UNL     1      -0.147   3.912  -0.294  0.00  0.00    +0.005 A 
ATOM     23  C   UNL     1      -0.398   2.564  -0.474  0.00  0.00    -0.024 A 
ATOM     24  C   UNL     1       0.303   1.627   0.261  0.00  0.00    +0.112 A 
ATOM     25  C   UNL     1       1.253   2.037   1.178  0.00  0.00    +0.032 A 
ATOM     26  C   UNL     1      -1.438   2.118  -1.469  0.00  0.00    +0.046 C 
ENDBRANCH  16  24
ENDBRANCH   1  16
TORSDOF 4
