REMARK  Name = ZINC64798056
REMARK  8 active torsions:
REMARK  status: ('A' for Active; 'I' for Inactive)
REMARK    1  A    between atoms: C_1  and  O_2
REMARK    2  A    between atoms: O_2  and  C_3
REMARK    3  A    between atoms: C_5  and  C_14
REMARK    4  A    between atoms: C_8  and  O_9
REMARK    5  A    between atoms: O_9  and  C_10
REMARK    6  A    between atoms: C_10  and  C_11
REMARK    7  A    between atoms: C_24  and  S_25
REMARK    8  A    between atoms: S_25  and  C_28
REMARK                            x       y       z     vdW  Elec       q    Type
REMARK                         _______ _______ _______ _____ _____    ______ ____
ROOT
ATOM      1  C   UNL     1       1.928   1.015   4.665  0.00  0.00    +0.066 C 
ATOM      2  C   UNL     1       3.428   0.722   4.528  0.00  0.00    +0.109 C 
ATOM      3  C   UNL     1       3.737  -0.676   4.983  0.00  0.00    +0.218 C 
ATOM      4  O   UNL     1       4.572  -1.310   4.373  0.00  0.00    -0.275 OA
ATOM      5  N   UNL     1       3.133  -1.258   6.033  0.00  0.00    -0.283 N 
ATOM      6  C   UNL     1       2.008  -0.612   6.624  0.00  0.00    +0.070 A 
ATOM      7  C   UNL     1       1.460   0.457   5.968  0.00  0.00    +0.021 A 
ATOM      8  S   UNL     1       0.129   0.960   7.018  0.00  0.00    -0.097 S 
ATOM      9  C   UNL     1       0.331  -0.290   8.280  0.00  0.00    +0.074 A 
ATOM     10  C   UNL     1       1.399  -0.990   7.817  0.00  0.00    +0.122 A 
ATOM     11  H   UNL     1       3.456  -2.103   6.382  0.00  0.00    +0.155 HD
ENDROOT
BRANCH   1  14
ATOM     12  C   UNL     1      -0.268   0.537   1.629  0.00  0.00    +0.162 A 
ATOM     13  C   UNL     1       0.423   1.135   2.670  0.00  0.00    +0.053 A 
ATOM     14  C   UNL     1       1.176   0.363   3.534  0.00  0.00    -0.035 A 
ATOM     15  C   UNL     1       1.243  -1.008   3.361  0.00  0.00    +0.008 A 
ATOM     16  C   UNL     1       0.556  -1.611   2.324  0.00  0.00    +0.050 A 
ATOM     17  C   UNL     1      -0.206  -0.843   1.459  0.00  0.00    +0.163 A 
BRANCH  12  19
ATOM     18  C   UNL     1      -1.028   2.705   1.013  0.00  0.00    +0.277 C 
ATOM     19  O   UNL     1      -1.010   1.296   0.778  0.00  0.00    -0.491 OA
ENDBRANCH  12  19
BRANCH  17  20
ATOM     20  O   UNL     1      -0.887  -1.436   0.442  0.00  0.00    -0.479 OA
BRANCH  20  21
ATOM     21  C   UNL     1      -0.777  -2.856   0.328  0.00  0.00    +0.324 C 
BRANCH  21  22
ATOM     22  C   UNL     1      -1.593  -3.330  -0.847  0.00  0.00    +0.248 C 
ATOM     23  O   UNL     1      -2.208  -2.531  -1.520  0.00  0.00    -0.272 OA
ATOM     24  N   UNL     1      -1.639  -4.643  -1.149  0.00  0.00    -0.327 N 
ATOM     25  H   UNL     1      -1.147  -5.282  -0.610  0.00  0.00    +0.145 HD
ATOM     26  H   UNL     1      -2.164  -4.949  -1.905  0.00  0.00    +0.145 HD
ENDBRANCH  21  22
ENDBRANCH  20  21
ENDBRANCH  17  20
ENDBRANCH   1  14
BRANCH  10  27
ATOM     27  S   UNL     1       2.011  -2.372   8.723  0.00  0.00    +0.027 S 
ATOM     28  O   UNL     1       1.200  -2.488   9.884  0.00  0.00    -0.164 OA
ATOM     29  O   UNL     1       2.163  -3.433   7.791  0.00  0.00    -0.164 OA
BRANCH  27  30
ATOM     30  C   UNL     1       3.630  -1.954   9.280  0.00  0.00    +0.094 A 
ATOM     31  C   UNL     1       4.736  -2.361   8.557  0.00  0.00    +0.027 A 
ATOM     32  C   UNL     1       6.006  -2.034   8.993  0.00  0.00    +0.002 A 
ATOM     33  C   UNL     1       6.170  -1.299  10.153  0.00  0.00    +0.000 A 
ATOM     34  C   UNL     1       5.064  -0.891  10.875  0.00  0.00    +0.002 A 
ATOM     35  C   UNL     1       3.794  -1.215  10.436  0.00  0.00    +0.027 A 
ENDBRANCH  27  30
ENDBRANCH  10  27
TORSDOF 7
