REMARK  Name = ZINC65505264
REMARK  3 active torsions:
REMARK  status: ('A' for Active; 'I' for Inactive)
REMARK    1  A    between atoms: C_1  and  C_2
REMARK    2  A    between atoms: C_2  and  C_12
REMARK    3  A    between atoms: C_12  and  N_13
REMARK                            x       y       z     vdW  Elec       q    Type
REMARK                         _______ _______ _______ _____ _____    ______ ____
ROOT
ATOM      1  C   UNL     1       0.437  -0.086  -1.633  0.00  0.00    -0.002 C 
ATOM      2  C   UNL     1      -0.216   0.403  -0.339  0.00  0.00    -0.013 C 
ATOM      3  C   UNL     1       0.761   0.272   0.803  0.00  0.00    +0.052 A 
ATOM      4  H   UNL     1       2.826   1.354   2.879  0.00  0.00    +0.166 HD
ATOM      5  C   UNL     1       1.447   1.320   1.314  0.00  0.00    +0.035 A 
ATOM      6  N   UNL     1       2.222   0.840   2.321  0.00  0.00    -0.348 N 
ATOM      7  C   UNL     1       1.990  -0.492   2.397  0.00  0.00    +0.196 A 
ATOM      8  N   UNL     1       1.114  -0.820   1.482  0.00  0.00    -0.242 NA
ATOM      9  C   UNL     1       1.314   2.727   0.792  0.00  0.00    +0.036 C 
ATOM     10  C   UNL     1       0.621   2.653  -0.576  0.00  0.00    -0.075 C 
ATOM     11  N   UNL     1      -0.584   1.821  -0.475  0.00  0.00    +0.387 N 
ATOM     12  H   UNL     1      -1.144   1.942  -1.306  0.00  0.00    -0.084 HD
ATOM     13  H   UNL     1      -1.120   2.106   0.331  0.00  0.00    -0.084 HD
ENDROOT
BRANCH   2  14
ATOM     14  C   UNL     1      -1.467  -0.428  -0.048  0.00  0.00    +0.078 C 
BRANCH  14  15
ATOM     15  N   UNL     1      -2.183   0.148   1.098  0.00  0.00    -0.299 NA
ATOM     16  C   UNL     1      -1.632  -0.350   2.368  0.00  0.00    +0.089 C 
ATOM     17  C   UNL     1      -2.147   0.538   3.502  0.00  0.00    +0.051 C 
ATOM     18  C   UNL     1      -3.644   0.680   3.404  0.00  0.00    -0.042 A 
ATOM     19  C   UNL     1      -4.339   1.136   4.514  0.00  0.00    +0.004 A 
ATOM     20  C   UNL     1      -5.710   1.284   4.466  0.00  0.00    +0.000 A 
ATOM     21  C   UNL     1      -6.395   0.978   3.304  0.00  0.00    +0.000 A 
ATOM     22  C   UNL     1      -5.705   0.523   2.199  0.00  0.00    +0.005 A 
ATOM     23  C   UNL     1      -4.326   0.371   2.247  0.00  0.00    -0.030 A 
ATOM     24  C   UNL     1      -3.619  -0.139   1.019  0.00  0.00    +0.119 C 
ENDBRANCH  14  15
ENDBRANCH   2  14
TORSDOF 2
