REMARK  Name = ZINC36981696
REMARK  4 active torsions:
REMARK  status: ('A' for Active; 'I' for Inactive)
REMARK    1  A    between atoms: C_1  and  O_2
REMARK    2  A    between atoms: O_2  and  C_3
REMARK    3  A    between atoms: C_4  and  N_11
REMARK    4  A    between atoms: N_11  and  C_12
REMARK                            x       y       z     vdW  Elec       q    Type
REMARK                         _______ _______ _______ _____ _____    ______ ____
ROOT
ATOM      1  C   UNL     1       0.626  -0.619   1.043  0.00  0.00    +0.155 A 
ATOM      2  C   UNL     1       1.986  -0.912   0.966  0.00  0.00    +0.072 A 
ATOM      3  C   UNL     1       2.618  -1.539   2.030  0.00  0.00    +0.046 A 
ATOM      4  C   UNL     1       1.898  -1.871   3.163  0.00  0.00    +0.044 A 
ATOM      5  C   UNL     1       0.548  -1.580   3.239  0.00  0.00    +0.039 A 
ATOM      6  C   UNL     1      -0.087  -0.950   2.183  0.00  0.00    +0.063 A 
ATOM      7 BR   UNL     1      -1.932  -0.547   2.294  0.00  0.00    -0.046 Br
ATOM      8 CL   UNL     1       2.690  -2.656   4.494  0.00  0.00    -0.083 Cl
ENDROOT
BRANCH   1  10
ATOM      9  C   UNL     1      -0.017   1.425   0.010  0.00  0.00    +0.277 C 
ATOM     10  O   UNL     1       0.002  -0.004   0.002  0.00  0.00    -0.492 OA
ENDBRANCH   1  10
BRANCH   2  11
ATOM     11  N   UNL     1       2.713  -0.575  -0.182  0.00  0.00    -0.337 N 
ATOM     12  H   UNL     1       2.270  -0.137  -0.925  0.00  0.00    +0.146 HD
BRANCH  11  13
ATOM     13  C   UNL     1       4.143  -0.884  -0.260  0.00  0.00    +0.081 C 
ATOM     14  C   UNL     1       4.523  -1.073  -1.728  0.00  0.00    +0.033 C 
ATOM     15  C   UNL     1       4.965   0.282  -2.349  0.00  0.00    +0.071 C 
ATOM     16  S   UNL     1       5.922   0.974  -0.929  0.00  0.00    -0.159 S 
ATOM     17  C   UNL     1       4.931   0.244   0.435  0.00  0.00    +0.091 C 
ENDBRANCH  11  13
ENDBRANCH   2  11
TORSDOF 3
