REMARK  Name = ZINC33960927
REMARK  11 active torsions:
REMARK  status: ('A' for Active; 'I' for Inactive)
REMARK    1  A    between atoms: C_1  and  C_2
REMARK    2  A    between atoms: C_5  and  O_33
REMARK    3  A    between atoms: C_6  and  N_8
REMARK    4  A    between atoms: C_9  and  C_11
REMARK    5  A    between atoms: C_14  and  C_32
REMARK    6  A    between atoms: C_15  and  C_16
REMARK    7  A    between atoms: C_15  and  C_17
REMARK    8  A    between atoms: N_19  and  N_20
REMARK    9  A    between atoms: N_20  and  C_21
REMARK   10  A    between atoms: C_24  and  N_27
REMARK   11  A    between atoms: O_33  and  C_34
REMARK                            x       y       z     vdW  Elec       q    Type
REMARK                         _______ _______ _______ _____ _____    ______ ____
ROOT
ATOM      1  C   UNL     1       0.279  -2.894   4.860  0.00  0.00    +0.117 C 
ATOM      2  C   UNL     1       1.545  -3.795   5.002  0.00  0.00    +0.026 C 
ATOM      3  C   UNL     1       1.654  -4.055   6.523  0.00  0.00    +0.015 C 
ATOM      4  C   UNL     1       0.441  -3.281   7.128  0.00  0.00    +0.022 C 
ATOM      5  C   UNL     1       0.388  -2.036   6.172  0.00  0.00    -0.003 C 
ATOM      6  C   UNL     1       1.684  -1.226   6.230  0.00  0.00    +0.013 C 
ATOM      7  C   UNL     1      -0.846  -1.160   6.398  0.00  0.00    +0.013 C 
ATOM      8  C   UNL     1      -0.787  -4.056   6.633  0.00  0.00    +0.109 C 
ATOM      9  N   UNL     1      -1.588  -4.794   7.357  0.00  0.00    -0.183 NA
ATOM     10  C   UNL     1      -0.900  -3.804   5.229  0.00  0.00    +0.195 C 
ATOM     11  O   UNL     1      -1.746  -4.237   4.472  0.00  0.00    -0.290 OA
ATOM     12  C   UNL     1       0.511  -2.986   8.628  0.00  0.00    +0.018 C 
ENDROOT
BRANCH   1  14
ATOM     13  N   UNL     1       0.050  -2.795   2.399  0.00  0.00    -0.282 N 
ATOM     14  C   UNL     1       0.149  -2.130   3.568  0.00  0.00    +0.232 C 
ATOM     15  O   UNL     1       0.134  -0.917   3.579  0.00  0.00    -0.274 OA
ATOM     16  H   UNL     1      -0.018  -3.762   2.396  0.00  0.00    +0.155 HD
BRANCH  13  22
ATOM     17  C   UNL     1       1.263   1.227  -0.157  0.00  0.00    +0.044 C 
ATOM     18  C   UNL     1       0.627  -0.137  -0.079  0.00  0.00    -0.048 A 
ATOM     19  C   UNL     1       0.040  -0.689  -1.202  0.00  0.00    +0.007 A 
ATOM     20  C   UNL     1      -0.546  -1.940  -1.136  0.00  0.00    +0.048 A 
ATOM     21  C   UNL     1      -0.545  -2.643   0.058  0.00  0.00    +0.141 A 
ATOM     22  C   UNL     1       0.047  -2.088   1.189  0.00  0.00    +0.076 A 
ATOM     23  C   UNL     1       0.637  -0.835   1.114  0.00  0.00    +0.030 A 
BRANCH  21  24
ATOM     24  O   UNL     1      -1.121  -3.873   0.124  0.00  0.00    -0.493 OA
ATOM     25  C   UNL     1      -1.709  -4.380  -1.076  0.00  0.00    +0.277 C 
ENDBRANCH  21  24
ENDBRANCH  13  22
ENDBRANCH   1  14
BRANCH   9  26
ATOM     26  N   UNL     1      -2.588  -5.393   6.805  0.00  0.00    -0.237 N 
ATOM     27  H   UNL     1      -2.747  -5.295   5.853  0.00  0.00    +0.174 HD
BRANCH  26  28
ATOM     28  C   UNL     1      -3.443  -6.180   7.578  0.00  0.00    +0.048 A 
ATOM     29  C   UNL     1      -3.221  -6.316   8.943  0.00  0.00    +0.027 A 
ATOM     30  C   UNL     1      -4.068  -7.096   9.705  0.00  0.00    +0.034 A 
ATOM     31  C   UNL     1      -5.138  -7.741   9.111  0.00  0.00    +0.126 A 
ATOM     32  C   UNL     1      -5.362  -7.609   7.752  0.00  0.00    +0.034 A 
ATOM     33  C   UNL     1      -4.522  -6.826   6.986  0.00  0.00    +0.027 A 
BRANCH  31  34
ATOM     34  N   UNL     1      -6.044  -8.576   9.931  0.00  0.00    +0.056 N 
ATOM     35  O   UNL     1      -5.849  -8.694  11.118  0.00  0.00    -0.126 OA
ATOM     36  O   UNL     1      -6.979  -9.142   9.413  0.00  0.00    -0.126 OA
ENDBRANCH  31  34
ENDBRANCH  26  28
ENDBRANCH   9  26
TORSDOF 6
