REMARK  Name = ZINC12444364
REMARK  7 active torsions:
REMARK  status: ('A' for Active; 'I' for Inactive)
REMARK    1  A    between atoms: C_2  and  C_9
REMARK    2  A    between atoms: C_9  and  N_55
REMARK    3  A    between atoms: C_10  and  C_11
REMARK    4  A    between atoms: C_10  and  N_55
REMARK    5  A    between atoms: C_11  and  O_25
REMARK    6  A    between atoms: N_15  and  C_18
REMARK    7  A    between atoms: C_18  and  C_19
REMARK                            x       y       z     vdW  Elec       q    Type
REMARK                         _______ _______ _______ _____ _____    ______ ____
ROOT
ATOM      1  C   UNL     1       1.286   1.562  -0.002  0.00  0.00    +0.127 C 
ATOM      2  C   UNL     1       1.143   3.086   0.008  0.00  0.00    +0.044 C 
ATOM      3  C   UNL     1       0.645   3.517   1.392  0.00  0.00    +0.022 C 
ATOM      4  C   UNL     1       1.746   3.242   2.417  0.00  0.00    +0.108 C 
ATOM      5  N   UNL     1       2.229   1.872   2.292  0.00  0.00    -0.299 N 
ATOM      6  C   UNL     1       2.052   1.113   1.210  0.00  0.00    +0.245 C 
ATOM      7  O   UNL     1       2.534   0.000   1.204  0.00  0.00    -0.273 OA
ENDROOT
BRANCH   1   8
ATOM      8  O   UNL     1      -0.011   0.963   0.007  0.00  0.00    -0.381 OA
ATOM      9  H   UNL     1       0.002  -0.004   0.002  0.00  0.00    +0.211 HD
ENDBRANCH   1   8
BRANCH   1  10
ATOM     10  C   UNL     1       2.037   1.130  -1.263  0.00  0.00    -0.037 C 
BRANCH  10  11
ATOM     11  N   UNL     1       2.168  -0.339  -1.268  0.00  0.00    +0.385 N 
ATOM     12  H   UNL     1       2.688  -0.636  -0.434  0.00  0.00    -0.085 HD
ATOM     13  H   UNL     1       1.232  -0.763  -1.257  0.00  0.00    -0.085 HD
BRANCH  11  14
ATOM     14  C   UNL     1       2.889  -0.785  -2.476  0.00  0.00    -0.024 C 
BRANCH  14  16
ATOM     15  C   UNL     1       2.173  -3.148  -3.051  0.00  0.00    +0.109 A 
ATOM     16  C   UNL     1       3.007  -2.287  -2.454  0.00  0.00    +0.043 A 
ATOM     17  N   UNL     1       3.964  -2.991  -1.828  0.00  0.00    -0.229 NA
ATOM     18  C   UNL     1       3.749  -4.266  -2.024  0.00  0.00    +0.169 A 
ATOM     19  N   UNL     1       2.640  -4.439  -2.789  0.00  0.00    -0.325 N 
ATOM     20  C   UNL     1       2.226  -5.799  -3.126  0.00  0.00    +0.135 C 
ATOM     21  C   UNL     1       3.135  -6.895  -2.548  0.00  0.00    +0.099 C 
ATOM     22  S   UNL     1       4.379  -5.887  -1.657  0.00  0.00    -0.086 S 
ENDBRANCH  14  16
ENDBRANCH  11  14
ENDBRANCH  10  11
ENDBRANCH   1  10
BRANCH   5  23
ATOM     23  C   UNL     1       2.954   1.294   3.425  0.00  0.00    +0.111 C 
BRANCH  23  24
ATOM     24  C   UNL     1       1.964   0.605   4.366  0.00  0.00    +0.006 C 
ATOM     25  C   UNL     1       1.028   1.650   4.976  0.00  0.00    +0.005 C 
ATOM     26  C   UNL     1       0.038   0.961   5.917  0.00  0.00    +0.000 C 
ATOM     27  C   UNL     1       0.805   0.250   7.034  0.00  0.00    +0.000 C 
ATOM     28  C   UNL     1       1.742  -0.795   6.424  0.00  0.00    +0.000 C 
ATOM     29  C   UNL     1       2.732  -0.106   5.483  0.00  0.00    +0.005 C 
ENDBRANCH  23  24
ENDBRANCH   5  23
TORSDOF 7
