REMARK  Name = ZINC05410488
REMARK  2 active torsions:
REMARK  status: ('A' for Active; 'I' for Inactive)
REMARK    1  A    between atoms: C_8  and  C_10
REMARK    2  A    between atoms: C_26  and  C_28
REMARK                            x       y       z     vdW  Elec       q    Type
REMARK                         _______ _______ _______ _____ _____    ______ ____
ROOT
ATOM      1  C   UNL     1       2.247   3.259  -1.501  0.00  0.00    +0.053 A 
ATOM      2  C   UNL     1       0.944   2.923  -1.159  0.00  0.00    +0.016 A 
ATOM      3  C   UNL     1       0.701   1.667  -0.602  0.00  0.00    +0.022 A 
ATOM      4  C   UNL     1       1.722   0.795  -0.379  0.00  0.00    +0.027 A 
ATOM      5  N   UNL     1       3.006   1.155  -0.617  0.00  0.00    -0.311 N 
ATOM      6  C   UNL     1       3.279   2.325  -1.246  0.00  0.00    +0.260 A 
ATOM      7  O   UNL     1       4.421   2.572  -1.595  0.00  0.00    -0.267 OA
ATOM      8  C   UNL     1       4.151   0.359  -0.172  0.00  0.00    +0.130 C 
ATOM      9  C   UNL     1       3.788  -1.097   0.058  0.00  0.00    +0.027 C 
ATOM     10  C   UNL     1       2.512  -1.189   0.896  0.00  0.00    +0.018 C 
ATOM     11  C   UNL     1       1.356  -0.596   0.086  0.00  0.00    +0.054 C 
ATOM     12  C   UNL     1       1.141  -1.467  -1.162  0.00  0.00    +0.117 C 
ATOM     13  N   UNL     1       2.397  -1.456  -1.929  0.00  0.00    -0.300 N 
ATOM     14  C   UNL     1       3.636  -1.858  -1.252  0.00  0.00    +0.113 C 
ATOM     15  C   UNL     1       2.409  -1.086  -3.225  0.00  0.00    +0.219 C 
ATOM     16  O   UNL     1       3.462  -1.006  -3.823  0.00  0.00    -0.275 OA
ENDROOT
BRANCH   1  24
ATOM     17  C   UNL     1       3.106   9.295  -2.890  0.00  0.00    +0.001 A 
ATOM     18  C   UNL     1       3.563   8.978  -4.163  0.00  0.00    +0.001 A 
ATOM     19  C   UNL     1       3.632   7.654  -4.551  0.00  0.00    +0.015 A 
ATOM     20  C   UNL     1       3.248   6.666  -3.670  0.00  0.00    +0.020 A 
ATOM     21  C   UNL     1       2.780   6.962  -2.370  0.00  0.00    -0.010 A 
ATOM     22  C   UNL     1       2.725   8.331  -2.011  0.00  0.00    +0.009 A 
ATOM     23  C   UNL     1       2.419   5.801  -1.575  0.00  0.00    +0.024 A 
ATOM     24  C   UNL     1       2.551   4.565  -2.117  0.00  0.00    +0.026 A 
ATOM     25  S   UNL     1       3.186   4.895  -3.749  0.00  0.00    -0.088 S 
ENDBRANCH   1  24
BRANCH  15  26
ATOM     26  C   UNL     1       1.116  -0.771  -3.931  0.00  0.00    +0.075 C 
ATOM     27  C   UNL     1       0.462  -2.072  -4.402  0.00  0.00    +0.013 C 
ATOM     28  C   UNL     1      -0.851  -1.752  -5.119  0.00  0.00    +0.001 C 
ATOM     29  C   UNL     1      -0.568  -0.857  -6.327  0.00  0.00    +0.000 C 
ATOM     30  C   UNL     1       0.085   0.444  -5.856  0.00  0.00    +0.001 C 
ATOM     31  C   UNL     1       1.399   0.124  -5.139  0.00  0.00    +0.013 C 
ENDBRANCH  15  26
TORSDOF 2
