REMARK  Name = ZINC21157547
REMARK  3 active torsions:
REMARK  status: ('A' for Active; 'I' for Inactive)
REMARK    1  A    between atoms: C_1  and  C_2
REMARK    2  A    between atoms: C_6  and  C_8
REMARK    3  A    between atoms: C_18  and  C_19
REMARK                            x       y       z     vdW  Elec       q    Type
REMARK                         _______ _______ _______ _____ _____    ______ ____
ROOT
ATOM      1  C   UNL     1      -0.070   5.347   0.031  0.00  0.00    +0.066 C 
ATOM      2  C   UNL     1       0.656   5.868   1.278  0.00  0.00    +0.109 C 
ATOM      3  C   UNL     1       2.145   5.777   1.100  0.00  0.00    +0.218 C 
ATOM      4  O   UNL     1       2.824   5.461   2.054  0.00  0.00    -0.275 OA
ATOM      5  N   UNL     1       2.759   6.031  -0.069  0.00  0.00    -0.284 N 
ATOM      6  C   UNL     1       1.965   6.190  -1.240  0.00  0.00    +0.052 A 
ATOM      7  C   UNL     1       0.641   5.867  -1.176  0.00  0.00    +0.019 A 
ATOM      8  S   UNL     1       0.029   6.206  -2.799  0.00  0.00    -0.098 S 
ATOM      9  C   UNL     1       1.553   6.754  -3.550  0.00  0.00    +0.055 A 
ATOM     10  C   UNL     1       2.444   6.654  -2.521  0.00  0.00    +0.011 A 
ATOM     11  H   UNL     1       3.855   6.112  -0.108  0.00  0.00    +0.155 HD
ENDROOT
BRANCH   1  17
ATOM     12  C   UNL     1      -2.514   0.980   0.019  0.00  0.00    +0.044 C 
ATOM     13  C   UNL     1      -1.219   1.751   0.017  0.00  0.00    -0.050 A 
ATOM     14  C   UNL     1      -0.013   1.076   0.008  0.00  0.00    +0.003 A 
ATOM     15  C   UNL     1       1.175   1.783   0.000  0.00  0.00    +0.001 A 
ATOM     16  C   UNL     1       1.156   3.166   0.008  0.00  0.00    +0.004 A 
ATOM     17  C   UNL     1      -0.050   3.840   0.022  0.00  0.00    -0.039 A 
ATOM     18  C   UNL     1      -1.238   3.133   0.029  0.00  0.00    +0.007 A 
ENDBRANCH   1  17
BRANCH  10  19
ATOM     19  C   UNL     1       3.870   7.013  -2.713  0.00  0.00    -0.016 A 
ATOM     20  C   UNL     1       4.500   7.879  -1.821  0.00  0.00    +0.008 A 
ATOM     21  C   UNL     1       5.830   8.204  -2.002  0.00  0.00    +0.001 A 
ATOM     22  C   UNL     1       6.533   7.683  -3.073  0.00  0.00    +0.000 A 
ATOM     23  C   UNL     1       5.911   6.828  -3.965  0.00  0.00    +0.001 A 
ATOM     24  C   UNL     1       4.584   6.490  -3.790  0.00  0.00    +0.008 A 
ENDBRANCH  10  19
TORSDOF 2
