REMARK  Name = ZINC01087785
REMARK  3 active torsions:
REMARK  status: ('A' for Active; 'I' for Inactive)
REMARK    1  A    between atoms: C_11  and  C_13
REMARK    2  A    between atoms: C_13  and  C_14
REMARK    3  A    between atoms: C_14  and  N_15
REMARK                            x       y       z     vdW  Elec       q    Type
REMARK                         _______ _______ _______ _____ _____    ______ ____
ROOT
ATOM      1  C   UNL     1      -1.088   7.352  -1.390  0.00  0.00    +0.121 C 
ENDROOT
BRANCH   1  12
ATOM      2  C   UNL     1      -5.010  11.807  -2.219  0.00  0.00    +0.002 A 
ATOM      3  C   UNL     1      -5.187  12.001  -3.578  0.00  0.00    +0.004 A 
ATOM      4  C   UNL     1      -4.503  11.219  -4.489  0.00  0.00    +0.048 A 
ATOM      5  C   UNL     1      -3.636  10.235  -4.041  0.00  0.00    +0.157 A 
ATOM      6  C   UNL     1      -3.458  10.040  -2.672  0.00  0.00    +0.098 A 
ATOM      7  C   UNL     1      -4.147  10.828  -1.764  0.00  0.00    +0.030 A 
ATOM      8  N   UNL     1      -2.539   8.996  -2.534  0.00  0.00    -0.212 N 
ATOM      9  C   UNL     1      -2.189   8.600  -3.774  0.00  0.00    +0.428 A 
ATOM     10  O   UNL     1      -1.401   7.710  -4.030  0.00  0.00    -0.222 OA
ATOM     11  O   UNL     1      -2.848   9.336  -4.682  0.00  0.00    -0.407 OA
ATOM     12  C   UNL     1      -2.083   8.483  -1.374  0.00  0.00    +0.239 C 
ATOM     13  O   UNL     1      -2.473   8.933  -0.318  0.00  0.00    -0.272 OA
ENDBRANCH   1  12
BRANCH   1  14
ATOM     14  C   UNL     1      -0.737   6.961   0.047  0.00  0.00    +0.138 C 
BRANCH  14  15
ATOM     15  N   UNL     1       0.231   5.861   0.031  0.00  0.00    -0.274 N 
ATOM     16  C   UNL     1      -0.069   4.498   0.027  0.00  0.00    +0.090 A 
ATOM     17  C   UNL     1      -1.258   3.786   0.034  0.00  0.00    +0.031 A 
ATOM     18  C   UNL     1      -1.232   2.405   0.021  0.00  0.00    +0.022 A 
ATOM     19  C   UNL     1      -0.021   1.732   0.012  0.00  0.00    +0.045 A 
ATOM     20  C   UNL     1       1.168   2.436   0.004  0.00  0.00    +0.068 A 
ATOM     21  C   UNL     1       1.150   3.822   0.012  0.00  0.00    +0.158 A 
ATOM     22  O   UNL     1       2.130   4.759   0.007  0.00  0.00    -0.407 OA
ATOM     23  C   UNL     1       1.573   5.980   0.019  0.00  0.00    +0.421 A 
ATOM     24  O   UNL     1       2.185   7.031   0.020  0.00  0.00    -0.223 OA
ATOM     25 CL   UNL     1       0.002  -0.004   0.002  0.00  0.00    -0.083 Cl
ENDBRANCH  14  15
ENDBRANCH   1  14
TORSDOF 3
