REMARK  Name = ZINC52583173
REMARK  7 active torsions:
REMARK  status: ('A' for Active; 'I' for Inactive)
REMARK    1  A    between atoms: C_1  and  O_2
REMARK    2  A    between atoms: O_2  and  C_3
REMARK    3  A    between atoms: C_6  and  C_11
REMARK    4  A    between atoms: C_7  and  O_9
REMARK    5  A    between atoms: O_9  and  C_10
REMARK    6  A    between atoms: N_16  and  C_17
REMARK    7  A    between atoms: C_17  and  N_18
REMARK                            x       y       z     vdW  Elec       q    Type
REMARK                         _______ _______ _______ _____ _____    ______ ____
ROOT
ATOM      1  C   UNL     1       2.507  -2.495  -4.390  0.00  0.00    +0.092 C 
ATOM      2  C   UNL     1       3.945  -2.907  -4.010  0.00  0.00    +0.025 C 
ATOM      3  C   UNL     1       4.747  -2.609  -5.305  0.00  0.00    +0.017 C 
ATOM      4  C   UNL     1       4.036  -1.336  -5.827  0.00  0.00    +0.086 C 
ATOM      5  N   UNL     1       2.603  -1.546  -5.515  0.00  0.00    -0.279 NA
ENDROOT
BRANCH   1   9
ATOM      6  C   UNL     1       0.606  -0.607  -1.056  0.00  0.00    +0.124 A 
ATOM      7  C   UNL     1       1.173   0.162  -2.062  0.00  0.00    +0.046 A 
ATOM      8  C   UNL     1       1.787  -0.451  -3.138  0.00  0.00    +0.012 A 
ATOM      9  C   UNL     1       1.837  -1.830  -3.215  0.00  0.00    +0.012 A 
ATOM     10  C   UNL     1       1.272  -2.603  -2.211  0.00  0.00    +0.128 A 
ATOM     11  C   UNL     1       0.660  -1.990  -1.127  0.00  0.00    +0.091 A 
BRANCH   6  13
ATOM     12  C   UNL     1      -0.017   1.425   0.010  0.00  0.00    +0.277 C 
ATOM     13  O   UNL     1       0.002  -0.004   0.002  0.00  0.00    -0.495 OA
ENDBRANCH   6  13
BRANCH  10  14
ATOM     14  O   UNL     1       1.322  -3.959  -2.286  0.00  0.00    -0.495 OA
ATOM     15  C   UNL     1       0.719  -4.691  -1.217  0.00  0.00    +0.277 C 
ENDBRANCH  10  14
ENDBRANCH   1   9
BRANCH   5  16
ATOM     16  C   UNL     1       1.873  -2.045  -6.688  0.00  0.00    +0.205 C 
BRANCH  16  17
ATOM     17  N   UNL     1       1.474  -0.916  -7.531  0.00  0.00    -0.211 N 
ATOM     18  C   UNL     1       0.309  -0.247  -7.401  0.00  0.00    +0.248 C 
ATOM     19  O   UNL     1      -0.573  -0.458  -6.596  0.00  0.00    -0.273 OA
ATOM     20  C   UNL     1       0.336   0.819  -8.471  0.00  0.00    +0.113 C 
ATOM     21  C   UNL     1      -0.822   0.689  -9.419  0.00  0.00    +0.035 C 
ATOM     22  C   UNL     1      -0.439   1.059 -10.868  0.00  0.00    +0.003 C 
ATOM     23  C   UNL     1       0.466   2.304 -10.945  0.00  0.00    +0.000 C 
ATOM     24  C   UNL     1       0.034   3.388  -9.996  0.00  0.00    +0.000 C 
ATOM     25  C   UNL     1       0.841   3.243  -8.691  0.00  0.00    +0.003 C 
ATOM     26  C   UNL     1       0.301   2.213  -7.813  0.00  0.00    +0.035 C 
ATOM     27  N   UNL     1       1.624   0.620  -9.144  0.00  0.00    -0.285 N 
ATOM     28  C   UNL     1       2.221  -0.416  -8.523  0.00  0.00    +0.310 C 
ATOM     29  O   UNL     1       3.314  -0.849  -8.830  0.00  0.00    -0.252 OA
ATOM     30  H   UNL     1       1.978   1.134  -9.887  0.00  0.00    +0.151 HD
ENDBRANCH  16  17
ENDBRANCH   5  16
TORSDOF 5
