REMARK  Name = ZINC36000121
REMARK  10 active torsions:
REMARK  status: ('A' for Active; 'I' for Inactive)
REMARK    1  A    between atoms: C_1  and  C_2
REMARK    2  A    between atoms: C_2  and  O_3
REMARK    3  A    between atoms: O_3  and  C_4
REMARK    4  A    between atoms: C_4  and  C_6
REMARK    5  A    between atoms: C_7  and  C_22
REMARK    6  A    between atoms: N_8  and  C_21
REMARK    7  A    between atoms: C_12  and  C_14
REMARK    8  A    between atoms: C_22  and  N_23
REMARK    9  A    between atoms: C_27  and  C_30
REMARK   10  A    between atoms: C_31  and  C_33
REMARK                            x       y       z     vdW  Elec       q    Type
REMARK                         _______ _______ _______ _____ _____    ______ ____
ROOT
ATOM      1  C   UNL     1      -0.512  -2.105   0.741  0.00  0.00    +0.080 C 
ATOM      2  C   UNL     1      -0.183  -3.280   1.320  0.00  0.00    +0.041 C 
ATOM      3  N   UNL     1       0.410  -3.318   2.550  0.00  0.00    -0.260 N 
ATOM      4  C   UNL     1       0.705  -2.225   3.266  0.00  0.00    +0.307 C 
ATOM      5  O   UNL     1       1.232  -2.360   4.353  0.00  0.00    -0.252 OA
ATOM      6  N   UNL     1       0.436  -0.982   2.821  0.00  0.00    -0.288 N 
ATOM      7  C   UNL     1      -0.198  -0.832   1.500  0.00  0.00    +0.144 C 
ATOM      8  C   UNL     1       0.740  -4.627   3.118  0.00  0.00    +0.139 C 
ATOM      9  H   UNL     1       0.658  -0.204   3.356  0.00  0.00    +0.151 HD
ENDROOT
BRANCH   7  10
ATOM     10  C   UNL     1      -1.486  -0.075   1.692  0.00  0.00    -0.020 A 
ATOM     11  C   UNL     1      -2.357  -0.437   2.702  0.00  0.00    +0.006 A 
ATOM     12  C   UNL     1      -3.540   0.256   2.879  0.00  0.00    +0.003 A 
ATOM     13  C   UNL     1      -3.853   1.313   2.046  0.00  0.00    +0.038 A 
ATOM     14  C   UNL     1      -2.982   1.677   1.033  0.00  0.00    +0.124 A 
ATOM     15  C   UNL     1      -1.794   0.986   0.861  0.00  0.00    +0.044 A 
ATOM     16  F   UNL     1      -3.287   2.710   0.217  0.00  0.00    -0.205 F 
ENDBRANCH   7  10
BRANCH   1  17
ATOM     17  C   UNL     1      -1.125  -2.064  -0.533  0.00  0.00    +0.339 C 
ATOM     18  O   UNL     1      -0.469  -1.769  -1.515  0.00  0.00    -0.245 OA
BRANCH  17  19
ATOM     19  O   UNL     1      -2.437  -2.352  -0.660  0.00  0.00    -0.462 OA
BRANCH  19  21
ATOM     20  C   UNL     1      -4.478  -2.647  -1.922  0.00  0.00    +0.048 C 
ATOM     21  C   UNL     1      -2.990  -2.292  -1.977  0.00  0.00    +0.229 C 
ENDBRANCH  19  21
ENDBRANCH  17  19
ENDBRANCH   1  17
BRANCH   2  22
ATOM     22  C   UNL     1      -0.473  -4.570   0.597  0.00  0.00    +0.136 C 
BRANCH  22  23
ATOM     23  N   UNL     1       0.790  -5.248   0.279  0.00  0.00    -0.294 NA
ATOM     24  C   UNL     1       1.579  -4.469  -0.685  0.00  0.00    +0.104 C 
ATOM     25  C   UNL     1       2.958  -5.114  -0.851  0.00  0.00    +0.124 C 
ATOM     26  N   UNL     1       2.773  -6.531  -1.200  0.00  0.00    -0.292 N 
ATOM     27  C   UNL     1       1.885  -7.345  -0.357  0.00  0.00    +0.087 C 
ATOM     28  C   UNL     1       0.547  -6.612  -0.210  0.00  0.00    +0.107 C 
ATOM     29  C   UNL     1       1.659  -8.708  -1.014  0.00  0.00    +0.029 C 
ATOM     30  C   UNL     1       3.401  -7.069  -2.264  0.00  0.00    +0.250 C 
ATOM     31  O   UNL     1       3.171  -8.218  -2.588  0.00  0.00    -0.270 OA
BRANCH  30  32
ATOM     32  C   UNL     1       4.368  -6.263  -3.036  0.00  0.00    +0.072 A 
ATOM     33  C   UNL     1       5.099  -5.252  -2.408  0.00  0.00    +0.016 A 
ATOM     34  C   UNL     1       6.000  -4.504  -3.135  0.00  0.00    +0.001 A 
ATOM     35  C   UNL     1       6.183  -4.751  -4.485  0.00  0.00    +0.003 A 
ATOM     36  C   UNL     1       5.465  -5.749  -5.115  0.00  0.00    +0.039 A 
ATOM     37  C   UNL     1       4.561  -6.512  -4.399  0.00  0.00    +0.135 A 
ATOM     38  F   UNL     1       3.863  -7.492  -5.014  0.00  0.00    -0.205 F 
ENDBRANCH  30  32
ENDBRANCH  22  23
ENDBRANCH   2  22
TORSDOF 7
