REMARK  Name = ZINC39672458
REMARK  7 active torsions:
REMARK  status: ('A' for Active; 'I' for Inactive)
REMARK    1  A    between atoms: C_1  and  C_2
REMARK    2  A    between atoms: C_5  and  C_7
REMARK    3  A    between atoms: C_7  and  N_8
REMARK    4  A    between atoms: C_9  and  C_11
REMARK    5  A    between atoms: C_22  and  C_24
REMARK    6  A    between atoms: C_24  and  O_25
REMARK    7  A    between atoms: O_25  and  C_26
REMARK                            x       y       z     vdW  Elec       q    Type
REMARK                         _______ _______ _______ _____ _____    ______ ____
ROOT
ATOM      1  C   UNL     1      -2.964  -4.452   4.101  0.00  0.00    +0.100 C 
ATOM      2  C   UNL     1      -3.724  -5.076   2.909  0.00  0.00    +0.121 C 
ATOM      3  N   UNL     1      -3.587  -6.539   3.103  0.00  0.00    -0.297 N 
ATOM      4  C   UNL     1      -3.726  -6.732   4.566  0.00  0.00    +0.115 C 
ATOM      5  C   UNL     1      -2.970  -5.540   5.188  0.00  0.00    -0.004 C 
ATOM      6  C   UNL     1      -3.701  -5.041   6.431  0.00  0.00    -0.010 C 
ATOM      7  C   UNL     1      -3.644  -6.118   7.518  0.00  0.00    -0.082 C 
ATOM      8  N   UNL     1      -2.243  -6.420   7.837  0.00  0.00    +0.379 N 
ATOM      9  C   UNL     1      -1.572  -6.987   6.660  0.00  0.00    -0.082 C 
ATOM     10  C   UNL     1      -1.542  -5.946   5.537  0.00  0.00    -0.010 C 
ATOM     11  C   UNL     1      -3.383  -7.481   2.161  0.00  0.00    +0.253 C 
ATOM     12  O   UNL     1      -3.292  -8.648   2.481  0.00  0.00    -0.272 OA
ATOM     13  H   UNL     1      -1.772  -5.572   8.115  0.00  0.00    -0.086 HD
ATOM     14  H   UNL     1      -2.208  -7.085   8.595  0.00  0.00    -0.086 HD
ENDROOT
BRANCH   1  16
ATOM     15  N   UNL     1      -0.899  -3.106   4.313  0.00  0.00    -0.309 N 
ATOM     16  C   UNL     1      -1.549  -4.116   3.703  0.00  0.00    +0.219 C 
ATOM     17  O   UNL     1      -0.996  -4.756   2.834  0.00  0.00    -0.275 OA
ATOM     18  H   UNL     1      -1.342  -2.594   5.009  0.00  0.00    +0.149 HD
BRANCH  15  19
ATOM     19  C   UNL     1       0.475  -2.779   3.927  0.00  0.00    +0.167 C 
BRANCH  19  24
ATOM     20  C   UNL     1       2.675  -0.567   7.839  0.00  0.00    +0.066 C 
ATOM     21  C   UNL     1       1.961  -0.539   6.513  0.00  0.00    +0.046 A 
ATOM     22  C   UNL     1       1.671   0.631   5.888  0.00  0.00    +0.070 A 
ATOM     23  S   UNL     1       0.855   0.026   4.419  0.00  0.00    -0.079 S 
ATOM     24  C   UNL     1       0.968  -1.620   4.753  0.00  0.00    +0.096 A 
ATOM     25  N   UNL     1       1.593  -1.649   5.904  0.00  0.00    -0.248 NA
ENDBRANCH  19  24
ENDBRANCH  15  19
ENDBRANCH   1  16
BRANCH  11  26
ATOM     26  C   UNL     1      -3.268  -7.085   0.712  0.00  0.00    +0.324 C 
BRANCH  26  27
ATOM     27  O   UNL     1      -3.055  -8.252  -0.085  0.00  0.00    -0.483 OA
BRANCH  27  28
ATOM     28  C   UNL     1      -2.929  -8.069  -1.426  0.00  0.00    +0.123 A 
ATOM     29  C   UNL     1      -3.002  -6.792  -1.962  0.00  0.00    +0.046 A 
ATOM     30  C   UNL     1      -2.873  -6.608  -3.325  0.00  0.00    +0.005 A 
ATOM     31  C   UNL     1      -2.670  -7.695  -4.155  0.00  0.00    +0.020 A 
ATOM     32  C   UNL     1      -2.597  -8.970  -3.623  0.00  0.00    +0.044 A 
ATOM     33  C   UNL     1      -2.720  -9.159  -2.259  0.00  0.00    +0.065 A 
ATOM     34 CL   UNL     1      -2.344 -10.333  -4.668  0.00  0.00    -0.083 Cl
ENDBRANCH  27  28
ENDBRANCH  26  27
ENDBRANCH  11  26
TORSDOF 6
