REMARK  Name = ZINC31915461
REMARK  8 active torsions:
REMARK  status: ('A' for Active; 'I' for Inactive)
REMARK    1  A    between atoms: C_1  and  C_2
REMARK    2  A    between atoms: C_9  and  C_15
REMARK    3  A    between atoms: C_10  and  C_11
REMARK    4  A    between atoms: C_11  and  C_13
REMARK    5  A    between atoms: C_17  and  O_23
REMARK    6  A    between atoms: C_20  and  O_21
REMARK    7  A    between atoms: O_21  and  C_22
REMARK    8  A    between atoms: O_23  and  C_24
REMARK                            x       y       z     vdW  Elec       q    Type
REMARK                         _______ _______ _______ _____ _____    ______ ____
ROOT
ATOM      1  C   UNL     1      -1.160   3.570  11.608  0.00  0.00    +0.044 C 
ATOM      2  C   UNL     1      -1.394   3.335  10.138  0.00  0.00    -0.046 A 
ATOM      3  C   UNL     1      -2.183   4.230   9.398  0.00  0.00    +0.021 A 
ATOM      4  C   UNL     1      -2.394   4.022   8.081  0.00  0.00    +0.093 A 
ATOM      5  N   UNL     1      -1.845   2.943   7.450  0.00  0.00    -0.302 N 
ATOM      6  C   UNL     1      -1.070   2.052   8.146  0.00  0.00    +0.139 A 
ATOM      7  C   UNL     1      -0.841   2.256   9.523  0.00  0.00    +0.050 A 
ATOM      8  N   UNL     1      -0.671   1.106   7.310  0.00  0.00    -0.227 NA
ATOM      9  C   UNL     1      -1.160   1.365   6.087  0.00  0.00    +0.098 A 
ATOM     10  C   UNL     1      -1.899   2.507   6.155  0.00  0.00    +0.068 A 
ENDROOT
BRANCH   9  11
ATOM     11  C   UNL     1      -0.940   0.544   4.871  0.00  0.00    +0.047 A 
ATOM     12  C   UNL     1      -0.377   1.117   3.733  0.00  0.00    +0.059 A 
ATOM     13  C   UNL     1      -0.173   0.347   2.601  0.00  0.00    +0.121 A 
ATOM     14  C   UNL     1      -0.533  -0.994   2.597  0.00  0.00    +0.049 A 
ATOM     15  C   UNL     1      -1.087  -1.569   3.725  0.00  0.00    +0.050 A 
ATOM     16  C   UNL     1      -1.296  -0.807   4.863  0.00  0.00    +0.130 A 
BRANCH  16  17
ATOM     17  O   UNL     1      -1.846  -1.373   5.970  0.00  0.00    -0.494 OA
ATOM     18  C   UNL     1      -2.184  -2.759   5.889  0.00  0.00    +0.277 C 
ENDBRANCH  16  17
BRANCH  13  19
ATOM     19  O   UNL     1       0.376   0.905   1.490  0.00  0.00    -0.495 OA
ATOM     20  C   UNL     1       0.559   0.053   0.357  0.00  0.00    +0.277 C 
ENDBRANCH  13  19
ENDBRANCH   9  11
BRANCH  10  21
ATOM     21  C   UNL     1      -2.637   3.166   5.018  0.00  0.00    +0.126 C 
ATOM     22  C   UNL     1      -1.739   4.223   4.372  0.00  0.00    +0.031 C 
ATOM     23 CL   UNL     1      -3.083   1.923   3.791  0.00  0.00    -0.115 Cl
ENDBRANCH  10  21
TORSDOF 4
