REMARK  Name = ZINC35671586
REMARK  11 active torsions:
REMARK  status: ('A' for Active; 'I' for Inactive)
REMARK    1  A    between atoms: C_1  and  C_2
REMARK    2  A    between atoms: C_2  and  C_3
REMARK    3  A    between atoms: C_6  and  C_9
REMARK    4  A    between atoms: C_9  and  C_11
REMARK    5  A    between atoms: C_9  and  N_29
REMARK    6  A    between atoms: C_11  and  N_12
REMARK    7  A    between atoms: N_12  and  C_13
REMARK    8  A    between atoms: C_14  and  C_27
REMARK    9  A    between atoms: C_16  and  C_18
REMARK   10  A    between atoms: C_18  and  O_19
REMARK   11  A    between atoms: O_19  and  C_20
REMARK                            x       y       z     vdW  Elec       q    Type
REMARK                         _______ _______ _______ _____ _____    ______ ____
ROOT
ATOM      1  N   UNL     1       2.348   0.256  -5.891  0.00  0.00    -0.314 N 
ATOM      2  H   UNL     1       1.409   0.020  -5.824  0.00  0.00    +0.149 HD
ENDROOT
BRANCH   1   3
ATOM      3  C   UNL     1       2.724   1.415  -6.537  0.00  0.00    +0.225 A 
ATOM      4  C   UNL     1       1.884   2.340  -7.133  0.00  0.00    +0.201 A 
ATOM      5  N   UNL     1       2.680   3.320  -7.647  0.00  0.00    -0.198 NA
ATOM      6  C   UNL     1       3.918   3.026  -7.390  0.00  0.00    +0.237 A 
ATOM      7  O   UNL     1       3.978   1.871  -6.708  0.00  0.00    -0.421 OA
BRANCH   4   8
ATOM      8  C   UNL     1       0.454   2.280  -7.198  0.00  0.00    +0.124 C 
ATOM      9  N   UNL     1      -0.679   2.232  -7.249  0.00  0.00    -0.189 NA
ENDBRANCH   4   8
BRANCH   6  10
ATOM     10  C   UNL     1       5.108   3.859  -7.791  0.00  0.00    +0.324 C 
BRANCH  10  11
ATOM     11  O   UNL     1       5.404   4.797  -6.755  0.00  0.00    -0.483 OA
BRANCH  11  12
ATOM     12  C   UNL     1       6.457   5.631  -6.960  0.00  0.00    +0.121 A 
ATOM     13  C   UNL     1       7.187   5.552  -8.137  0.00  0.00    +0.047 A 
ATOM     14  C   UNL     1       8.258   6.400  -8.343  0.00  0.00    +0.023 A 
ATOM     15  C   UNL     1       8.602   7.329  -7.377  0.00  0.00    +0.041 A 
ATOM     16  C   UNL     1       7.876   7.409  -6.202  0.00  0.00    +0.023 A 
ATOM     17  C   UNL     1       6.801   6.567  -5.995  0.00  0.00    +0.047 A 
ATOM     18 CL   UNL     1       9.948   8.393  -7.638  0.00  0.00    -0.084 Cl
ENDBRANCH  11  12
ENDBRANCH  10  11
ENDBRANCH   6  10
ENDBRANCH   1   3
BRANCH   1  19
ATOM     19  C   UNL     1       3.366  -0.619  -5.305  0.00  0.00    +0.094 C 
BRANCH  19  20
ATOM     20  C   UNL     1       2.684  -1.755  -4.540  0.00  0.00    -0.020 C 
BRANCH  20  21
ATOM     21  N   UNL     1       3.703  -2.676  -4.020  0.00  0.00    +0.385 N 
ATOM     22  C   UNL     1       4.442  -3.269  -5.141  0.00  0.00    -0.078 C 
ATOM     23  C   UNL     1       5.558  -4.167  -4.603  0.00  0.00    -0.019 C 
ATOM     24  C   UNL     1       4.943  -5.280  -3.749  0.00  0.00    -0.004 C 
ATOM     25  C   UNL     1       4.113  -4.651  -2.627  0.00  0.00    -0.019 C 
ATOM     26  C   UNL     1       3.051  -3.734  -3.239  0.00  0.00    -0.078 C 
ATOM     27  H   UNL     1       4.343  -2.169  -3.428  0.00  0.00    -0.081 HD
ENDBRANCH  20  21
BRANCH  20  31
ATOM     28  C   UNL     1       0.437  -0.136  -1.288  0.00  0.00    -0.048 A 
ATOM     29  C   UNL     1      -0.203  -0.493  -2.460  0.00  0.00    +0.004 A 
ATOM     30  C   UNL     1       0.524  -1.017  -3.512  0.00  0.00    +0.002 A 
ATOM     31  C   UNL     1       1.891  -1.183  -3.393  0.00  0.00    -0.059 A 
ATOM     32  C   UNL     1       2.531  -0.825  -2.221  0.00  0.00    +0.002 A 
ATOM     33  C   UNL     1       1.805  -0.297  -1.170  0.00  0.00    +0.004 A 
BRANCH  28  35
ATOM     34  C   UNL     1      -0.422   1.958  -0.274  0.00  0.00    +0.009 C 
ATOM     35  C   UNL     1      -0.355   0.435  -0.140  0.00  0.00    +0.032 C 
ENDBRANCH  28  35
ENDBRANCH  20  31
ENDBRANCH  19  20
ENDBRANCH   1  19
TORSDOF 10
