REMARK  Name = ZINC07981119
REMARK  3 active torsions:
REMARK  status: ('A' for Active; 'I' for Inactive)
REMARK    1  A    between atoms: C_1  and  C_2
REMARK    2  A    between atoms: C_4  and  S_9
REMARK    3  A    between atoms: S_9  and  N_12
REMARK                            x       y       z     vdW  Elec       q    Type
REMARK                         _______ _______ _______ _____ _____    ______ ____
ROOT
ATOM      1  S   UNL     1      -3.200  -0.975  -1.222  0.00  0.00    +0.061 S 
ATOM      2  O   UNL     1      -4.139  -1.686  -0.427  0.00  0.00    -0.153 OA
ATOM      3  O   UNL     1      -3.493  -0.544  -2.544  0.00  0.00    -0.153 OA
ENDROOT
BRANCH   1   7
ATOM      4  C   UNL     1      -0.102  -4.756   0.628  0.00  0.00    +0.045 C 
ATOM      5  C   UNL     1      -0.379  -3.725  -0.437  0.00  0.00    -0.035 A 
ATOM      6  C   UNL     1      -1.507  -2.931  -0.353  0.00  0.00    +0.033 A 
ATOM      7  C   UNL     1      -1.761  -1.986  -1.329  0.00  0.00    +0.106 A 
ATOM      8  C   UNL     1      -0.890  -1.837  -2.392  0.00  0.00    +0.029 A 
ATOM      9  C   UNL     1       0.242  -2.627  -2.473  0.00  0.00    +0.017 A 
ATOM     10  C   UNL     1       0.496  -3.574  -1.497  0.00  0.00    +0.021 A 
ATOM     11 BR   UNL     1       2.041  -4.659  -1.611  0.00  0.00    -0.050 Br
ENDBRANCH   1   7
BRANCH   1  12
ATOM     12  N   UNL     1      -2.784   0.380  -0.365  0.00  0.00    -0.177 NA
ATOM     13  C   UNL     1      -2.281   1.542  -1.038  0.00  0.00    +0.109 C 
ATOM     14  C   UNL     1      -0.749   1.592  -1.257  0.00  0.00    +0.017 C 
ATOM     15  C   UNL     1      -0.013   1.086   0.008  0.00  0.00    +0.001 C 
ATOM     16  C   UNL     1      -0.703   1.564   1.253  0.00  0.00    +0.001 C 
ATOM     17  C   UNL     1      -1.581   0.401   1.701  0.00  0.00    +0.017 C 
ATOM     18  C   UNL     1      -2.928   0.411   1.129  0.00  0.00    +0.109 C 
ENDBRANCH   1  12
TORSDOF 2
