REMARK  Name = ZINC39895357
REMARK  8 active torsions:
REMARK  status: ('A' for Active; 'I' for Inactive)
REMARK    1  A    between atoms: C_1  and  C_2
REMARK    2  A    between atoms: C_7  and  C_10
REMARK    3  A    between atoms: C_11  and  C_13
REMARK    4  A    between atoms: C_16  and  C_23
REMARK    5  A    between atoms: C_17  and  C_21
REMARK    6  A    between atoms: C_18  and  N_20
REMARK    7  A    between atoms: C_30  and  N_31
REMARK    8  A    between atoms: N_31  and  C_32
REMARK                            x       y       z     vdW  Elec       q    Type
REMARK                         _______ _______ _______ _____ _____    ______ ____
ROOT
ATOM      1  C   UNL     1      -2.122  -4.311  -0.583  0.00  0.00    +0.091 A 
ATOM      2  C   UNL     1      -3.205  -5.025   0.091  0.00  0.00    +0.095 A 
ATOM      3  C   UNL     1      -3.117  -6.428   0.032  0.00  0.00    +0.049 A 
ATOM      4  C   UNL     1      -4.067  -7.248   0.622  0.00  0.00    +0.019 A 
ATOM      5  C   UNL     1      -5.146  -6.630   1.296  0.00  0.00    +0.100 A 
ATOM      6  C   UNL     1      -5.186  -5.224   1.325  0.00  0.00    +0.135 A 
ATOM      7  N   UNL     1      -4.259  -4.494   0.749  0.00  0.00    -0.230 NA
ATOM      8  S   UNL     1      -1.636  -6.742  -0.892  0.00  0.00    -0.071 S 
ATOM      9  C   UNL     1      -1.133  -5.062  -1.207  0.00  0.00    +0.085 A 
ENDROOT
BRANCH   1  18
ATOM     10  C   UNL     1       0.134   1.239   0.757  0.00  0.00    +0.039 C 
ATOM     11  C   UNL     1       0.070  -0.277   0.560  0.00  0.00    +0.133 C 
ATOM     12  C   UNL     1      -1.389  -0.708   0.374  0.00  0.00    +0.139 C 
ATOM     13  N   UNL     1      -1.442  -2.178   0.374  0.00  0.00    -0.292 N 
ATOM     14  C   UNL     1      -0.776  -2.895   1.474  0.00  0.00    +0.139 C 
ATOM     15  C   UNL     1       0.653  -2.357   1.606  0.00  0.00    +0.133 C 
ATOM     16  O   UNL     1       0.613  -0.932   1.708  0.00  0.00    -0.371 OA
ATOM     17  C   UNL     1       1.465  -2.758   0.373  0.00  0.00    +0.039 C 
ATOM     18  C   UNL     1      -2.082  -2.849  -0.604  0.00  0.00    +0.251 C 
ATOM     19  O   UNL     1      -2.627  -2.239  -1.505  0.00  0.00    -0.270 OA
ENDBRANCH   1  18
BRANCH   4  20
ATOM     20  C   UNL     1      -3.956  -8.722   0.548  0.00  0.00    -0.015 A 
ATOM     21  C   UNL     1      -4.045  -9.371  -0.684  0.00  0.00    +0.008 A 
ATOM     22  C   UNL     1      -3.941 -10.745  -0.746  0.00  0.00    +0.001 A 
ATOM     23  C   UNL     1      -3.749 -11.480   0.410  0.00  0.00    +0.000 A 
ATOM     24  C   UNL     1      -3.660 -10.843   1.635  0.00  0.00    +0.001 A 
ATOM     25  C   UNL     1      -3.756  -9.469   1.709  0.00  0.00    +0.008 A 
ENDBRANCH   4  20
BRANCH   6  26
ATOM     26  N   UNL     1      -6.232  -4.592   1.978  0.00  0.00    -0.342 N 
ATOM     27  H   UNL     1      -6.924  -5.119   2.408  0.00  0.00    +0.144 HD
ATOM     28  H   UNL     1      -6.273  -3.623   2.006  0.00  0.00    +0.144 HD
ENDBRANCH   6  26
BRANCH   5  29
ATOM     29  C   UNL     1      -6.166  -7.411   1.929  0.00  0.00    +0.103 C 
ATOM     30  N   UNL     1      -6.975  -8.031   2.431  0.00  0.00    -0.191 NA
ENDBRANCH   5  29
BRANCH   9  31
ATOM     31  N   UNL     1      -0.032  -4.616  -1.900  0.00  0.00    -0.308 N 
ATOM     32  H   UNL     1       0.080  -3.669  -2.075  0.00  0.00    +0.153 HD
BRANCH  31  33
ATOM     33  C   UNL     1       0.925  -5.529  -2.352  0.00  0.00    +0.032 A 
ATOM     34  C   UNL     1       1.597  -5.298  -3.546  0.00  0.00    +0.023 A 
ATOM     35  C   UNL     1       2.543  -6.202  -3.990  0.00  0.00    +0.002 A 
ATOM     36  C   UNL     1       2.822  -7.334  -3.247  0.00  0.00    +0.000 A 
ATOM     37  C   UNL     1       2.154  -7.567  -2.058  0.00  0.00    +0.002 A 
ATOM     38  C   UNL     1       1.211  -6.665  -1.606  0.00  0.00    +0.023 A 
ENDBRANCH  31  33
ENDBRANCH   9  31
TORSDOF 6
