REMARK  Name = ZINC02320343
REMARK  8 active torsions:
REMARK  status: ('A' for Active; 'I' for Inactive)
REMARK    1  A    between atoms: C_1  and  O_2
REMARK    2  A    between atoms: O_2  and  C_3
REMARK    3  A    between atoms: C_5  and  C_11
REMARK    4  A    between atoms: C_8  and  O_9
REMARK    5  A    between atoms: N_12  and  N_13
REMARK    6  A    between atoms: N_13  and  C_14
REMARK    7  A    between atoms: C_14  and  N_16
REMARK    8  A    between atoms: N_16  and  C_17
REMARK                            x       y       z     vdW  Elec       q    Type
REMARK                         _______ _______ _______ _____ _____    ______ ____
ROOT
ATOM      1  N   UNL     1      -3.564   2.049  -0.173  0.00  0.00    -0.218 N 
ATOM      2  H   UNL     1      -4.397   1.556  -0.245  0.00  0.00    +0.176 HD
ENDROOT
BRANCH   1   4
ATOM      3  C   UNL     1      -4.703   4.089  -0.254  0.00  0.00    +0.138 C 
ATOM      4  N   UNL     1      -3.577   3.450  -0.165  0.00  0.00    -0.188 NA
BRANCH   3   7
ATOM      5  C   UNL     1      -5.935   7.635  -0.333  0.00  0.00    +0.163 A 
ATOM      6  C   UNL     1      -5.927   6.253  -0.347  0.00  0.00    +0.059 A 
ATOM      7  C   UNL     1      -4.716   5.563  -0.246  0.00  0.00    -0.001 A 
ATOM      8  C   UNL     1      -3.518   6.274  -0.142  0.00  0.00    +0.028 A 
ATOM      9  C   UNL     1      -3.533   7.653  -0.135  0.00  0.00    +0.063 A 
ATOM     10  C   UNL     1      -4.737   8.338  -0.229  0.00  0.00    +0.173 A 
ATOM     11 BR   UNL     1      -1.910   8.614   0.005  0.00  0.00    -0.046 Br
BRANCH   5  13
ATOM     12  C   UNL     1      -8.303   7.525  -0.528  0.00  0.00    +0.277 C 
ATOM     13  O   UNL     1      -7.113   8.309  -0.425  0.00  0.00    -0.491 OA
ENDBRANCH   5  13
BRANCH  10  14
ATOM     14  O   UNL     1      -4.747   9.697  -0.221  0.00  0.00    -0.503 OA
ATOM     15  H   UNL     1      -4.677  10.097  -1.098  0.00  0.00    +0.292 HD
ENDBRANCH  10  14
ENDBRANCH   3   7
ENDBRANCH   1   4
BRANCH   1  16
ATOM     16  C   UNL     1      -2.395   1.385  -0.081  0.00  0.00    +0.154 C 
ATOM     17  S   UNL     1      -2.379  -0.327  -0.090  0.00  0.00    -0.017 S 
BRANCH  16  18
ATOM     18  N   UNL     1      -1.238   2.069   0.019  0.00  0.00    -0.294 N 
ATOM     19  H   UNL     1      -1.251   3.035   0.105  0.00  0.00    +0.154 HD
BRANCH  18  20
ATOM     20  C   UNL     1      -0.016   1.385  -0.000  0.00  0.00    +0.051 A 
ATOM     21  C   UNL     1       0.200   0.375  -0.928  0.00  0.00    +0.026 A 
ATOM     22  C   UNL     1       1.408  -0.295  -0.949  0.00  0.00    +0.022 A 
ATOM     23  C   UNL     1       2.403   0.041  -0.046  0.00  0.00    +0.042 A 
ATOM     24  C   UNL     1       2.190   1.047   0.879  0.00  0.00    +0.041 A 
ATOM     25  C   UNL     1       0.984   1.720   0.905  0.00  0.00    +0.063 A 
ATOM     26 CL   UNL     1       0.718   2.983   2.066  0.00  0.00    -0.082 Cl
ATOM     27 CL   UNL     1       3.920  -0.803  -0.076  0.00  0.00    -0.083 Cl
ENDBRANCH  18  20
ENDBRANCH  16  18
ENDBRANCH   1  16
TORSDOF 7
