REMARK  Name = ZINC66244567
REMARK  7 active torsions:
REMARK  status: ('A' for Active; 'I' for Inactive)
REMARK    1  A    between atoms: C_1  and  O_2
REMARK    2  A    between atoms: O_2  and  C_3
REMARK    3  A    between atoms: C_3  and  C_4
REMARK    4  A    between atoms: C_4  and  N_5
REMARK    5  A    between atoms: N_8  and  C_9
REMARK    6  A    between atoms: C_9  and  C_10
REMARK    7  A    between atoms: C_10  and  C_14
REMARK                            x       y       z     vdW  Elec       q    Type
REMARK                         _______ _______ _______ _____ _____    ______ ____
ROOT
ATOM      1  N   UNL     1       0.661  -2.260  -0.223  0.00  0.00    -0.356 N 
ATOM      2  C   UNL     1       0.014  -3.381  -0.373  0.00  0.00    +0.169 C 
ATOM      3  N   UNL     1      -1.359  -3.379  -0.441  0.00  0.00    -0.371 N 
ATOM      4  N   UNL     1       0.704  -4.567  -0.462  0.00  0.00    -0.357 N 
ATOM      5  H   UNL     1      -1.846  -2.542  -0.378  0.00  0.00    +0.159 HD
ATOM      6  H   UNL     1      -1.841  -4.213  -0.552  0.00  0.00    +0.159 HD
ATOM      7  H   UNL     1       1.673  -4.569  -0.414  0.00  0.00    +0.162 HD
ATOM      8  H   UNL     1       0.174  -1.423  -0.160  0.00  0.00    +0.162 HD
ENDROOT
BRANCH   1   9
ATOM      9  C   UNL     1       2.124  -2.263  -0.150  0.00  0.00    +0.143 C 
BRANCH   9  10
ATOM     10  C   UNL     1       2.629  -0.829   0.025  0.00  0.00    +0.180 C 
BRANCH  10  12
ATOM     11  C   UNL     1       2.608   1.021   1.549  0.00  0.00    +0.194 C 
ATOM     12  O   UNL     1       2.189  -0.320   1.285  0.00  0.00    -0.381 OA
ENDBRANCH  10  12
ENDBRANCH   9  10
ENDBRANCH   1   9
BRANCH   4  13
ATOM     13  C   UNL     1      -0.023  -5.827  -0.630  0.00  0.00    +0.127 C 
BRANCH  13  14
ATOM     14  C   UNL     1       0.976  -6.971  -0.821  0.00  0.00    +0.013 C 
ATOM     15  C   UNL     1       0.368  -8.364  -0.587  0.00  0.00    +0.013 C 
ATOM     16  C   UNL     1       0.757  -8.200   0.891  0.00  0.00    +0.002 C 
ATOM     17  C   UNL     1       1.854  -7.234   0.414  0.00  0.00    +0.013 C 
BRANCH  14  18
ATOM     18  C   UNL     1       1.757  -6.858  -2.104  0.00  0.00    -0.038 A 
ATOM     19  C   UNL     1       3.121  -6.634  -2.066  0.00  0.00    +0.004 A 
ATOM     20  C   UNL     1       3.838  -6.531  -3.243  0.00  0.00    +0.001 A 
ATOM     21  C   UNL     1       3.192  -6.651  -4.459  0.00  0.00    +0.015 A 
ATOM     22  C   UNL     1       1.827  -6.875  -4.498  0.00  0.00    +0.018 A 
ATOM     23  C   UNL     1       1.111  -6.984  -3.320  0.00  0.00    +0.019 A 
ATOM     24 BR   UNL     1       0.943  -7.039  -6.161  0.00  0.00    -0.050 Br
ENDBRANCH  14  18
ENDBRANCH  13  14
ENDBRANCH   4  13
TORSDOF 6
