REMARK  Name = ZINC20207936
REMARK  6 active torsions:
REMARK  status: ('A' for Active; 'I' for Inactive)
REMARK    1  A    between atoms: C_1  and  S_2
REMARK    2  A    between atoms: S_2  and  C_5
REMARK    3  A    between atoms: C_11  and  C_12
REMARK    4  A    between atoms: C_15  and  O_18
REMARK    5  A    between atoms: O_18  and  C_19
REMARK    6  A    between atoms: C_19  and  C_21
REMARK                            x       y       z     vdW  Elec       q    Type
REMARK                         _______ _______ _______ _____ _____    ______ ____
ROOT
ATOM      1  C   UNL     1       8.183   2.676  -8.852  0.00  0.00    +0.235 C 
ATOM      2  N   UNL     1       7.897   2.345  -7.626  0.00  0.00    -0.145 NA
ATOM      3  N   UNL     1       6.821   1.533  -7.336  0.00  0.00    -0.150 N 
ATOM      4  C   UNL     1       6.371   1.188  -6.043  0.00  0.00    +0.153 C 
ATOM      5  N   UNL     1       6.634   1.899  -4.979  0.00  0.00    -0.283 NA
ATOM      6  C   UNL     1       5.567  -0.067  -6.013  0.00  0.00    +0.081 C 
ATOM      7  C   UNL     1       5.596  -0.920  -4.933  0.00  0.00    +0.024 C 
ATOM      8  C   UNL     1       4.734  -0.346  -7.209  0.00  0.00    +0.273 C 
ATOM      9  O   UNL     1       3.737  -1.046  -7.130  0.00  0.00    -0.268 OA
ATOM     10  N   UNL     1       5.110   0.195  -8.384  0.00  0.00    -0.152 NA
ATOM     11  C   UNL     1       6.109   1.041  -8.409  0.00  0.00    +0.182 C 
ATOM     12  S   UNL     1       6.905   1.837  -9.779  0.00  0.00    -0.015 S 
ATOM     13  H   UNL     1       7.221   2.668  -5.042  0.00  0.00    +0.188 HD
ENDROOT
BRANCH   7  14
ATOM     14  C   UNL     1       6.567  -0.708  -3.857  0.00  0.00    -0.024 A 
ATOM     15  C   UNL     1       6.221  -0.996  -2.529  0.00  0.00    +0.011 A 
ATOM     16  C   UNL     1       7.134  -0.796  -1.527  0.00  0.00    +0.047 A 
ATOM     17  C   UNL     1       8.402  -0.307  -1.825  0.00  0.00    +0.132 A 
ATOM     18  C   UNL     1       8.752  -0.019  -3.140  0.00  0.00    +0.047 A 
ATOM     19  C   UNL     1       7.849  -0.221  -4.152  0.00  0.00    +0.011 A 
BRANCH  17  20
ATOM     20  O   UNL     1       9.302  -0.110  -0.828  0.00  0.00    -0.422 OA
BRANCH  20  21
ATOM     21  C   UNL     1       9.764  -1.192  -0.170  0.00  0.00    +0.344 C 
ATOM     22  O   UNL     1       9.449  -2.306  -0.536  0.00  0.00    -0.245 OA
BRANCH  21  23
ATOM     23  C   UNL     1      10.654  -1.022   0.996  0.00  0.00    +0.059 A 
ATOM     24  C   UNL     1      11.014   0.258   1.423  0.00  0.00    +0.016 A 
ATOM     25  C   UNL     1      11.844   0.410   2.513  0.00  0.00    +0.021 A 
ATOM     26  C   UNL     1      12.323  -0.704   3.184  0.00  0.00    +0.041 A 
ATOM     27  C   UNL     1      11.970  -1.976   2.764  0.00  0.00    +0.021 A 
ATOM     28  C   UNL     1      11.135  -2.141   1.680  0.00  0.00    +0.016 A 
ATOM     29 CL   UNL     1      13.369  -0.504   4.555  0.00  0.00    -0.084 Cl
ENDBRANCH  21  23
ENDBRANCH  20  21
ENDBRANCH  17  20
ENDBRANCH   7  14
BRANCH   1  31
ATOM     30  C   UNL     1      10.817   2.541  -9.893  0.00  0.00    +0.202 C 
ATOM     31  S   UNL     1       9.492   3.696  -9.446  0.00  0.00    +0.019 S 
ATOM     32  O   UNL     1       9.880   4.476  -8.324  0.00  0.00    -0.168 OA
ATOM     33  O   UNL     1       8.968   4.315 -10.613  0.00  0.00    -0.168 OA
ENDBRANCH   1  31
TORSDOF 5
