REMARK  Name = ZINC14548707
REMARK  6 active torsions:
REMARK  status: ('A' for Active; 'I' for Inactive)
REMARK    1  A    between atoms: C_1  and  C_2
REMARK    2  A    between atoms: C_6  and  C_33
REMARK    3  A    between atoms: C_7  and  N_8
REMARK    4  A    between atoms: N_8  and  S_9
REMARK    5  A    between atoms: S_9  and  C_12
REMARK    6  A    between atoms: C_25  and  C_28
REMARK                            x       y       z     vdW  Elec       q    Type
REMARK                         _______ _______ _______ _____ _____    ______ ____
ROOT
ATOM      1  C   UNL     1      -3.692  -0.019  -2.485  0.00  0.00    +0.109 A 
ATOM      2  C   UNL     1      -4.554  -0.526  -1.528  0.00  0.00    +0.030 A 
ATOM      3  C   UNL     1      -4.201  -0.501  -0.195  0.00  0.00    +0.025 A 
ATOM      4  C   UNL     1      -2.979   0.032   0.198  0.00  0.00    +0.031 A 
ATOM      5  C   UNL     1      -2.117   0.553  -0.774  0.00  0.00    -0.018 A 
ATOM      6  C   UNL     1      -2.477   0.519  -2.104  0.00  0.00    +0.034 A 
ATOM      7  C   UNL     1      -0.836   1.129  -0.312  0.00  0.00    +0.049 C 
ATOM      8  C   UNL     1       0.361   1.187  -1.190  0.00  0.00    -0.023 C 
ATOM      9  C   UNL     1       1.447   1.086  -0.434  0.00  0.00    -0.030 C 
ATOM     10  C   UNL     1       1.049   0.916   1.033  0.00  0.00    +0.033 C 
ATOM     11  C   UNL     1      -0.345   0.288   0.904  0.00  0.00    +0.029 C 
ATOM     12  C   UNL     1      -1.330   0.549   2.030  0.00  0.00    +0.111 C 
ATOM     13  N   UNL     1      -2.627   0.013   1.553  0.00  0.00    -0.336 N 
ATOM     14  H   UNL     1      -3.240  -0.372   2.199  0.00  0.00    +0.147 HD
ENDROOT
BRANCH  12  15
ATOM     15  C   UNL     1      -0.869  -0.132   3.293  0.00  0.00    +0.010 A 
ATOM     16  C   UNL     1      -0.221   0.395   4.359  0.00  0.00    +0.013 A 
ATOM     17  C   UNL     1       0.103  -0.429   5.421  0.00  0.00    +0.008 A 
ATOM     18  C   UNL     1      -0.228  -1.742   5.359  0.00  0.00    +0.045 A 
ATOM     19  S   UNL     1      -1.030  -1.846   3.768  0.00  0.00    -0.100 S 
ENDBRANCH  12  15
BRANCH   1  20
ATOM     20  S   UNL     1      -4.143  -0.061  -4.188  0.00  0.00    +0.072 S 
ATOM     21  O   UNL     1      -5.553  -0.236  -4.230  0.00  0.00    -0.150 OA
ATOM     22  O   UNL     1      -3.493   1.040  -4.807  0.00  0.00    -0.150 OA
BRANCH  20  23
ATOM     23  N   UNL     1      -3.477  -1.431  -4.837  0.00  0.00    -0.216 N 
ATOM     24  H   UNL     1      -2.782  -1.360  -5.510  0.00  0.00    +0.174 HD
BRANCH  23  31
ATOM     25  C   UNL     1      -1.809  -2.911  -3.070  0.00  0.00    +0.046 C 
ATOM     26  C   UNL     1      -3.132  -3.445  -3.553  0.00  0.00    -0.028 A 
ATOM     27  C   UNL     1      -3.571  -4.686  -3.134  0.00  0.00    +0.005 A 
ATOM     28  C   UNL     1      -4.783  -5.180  -3.581  0.00  0.00    +0.001 A 
ATOM     29  C   UNL     1      -5.562  -4.431  -4.444  0.00  0.00    +0.005 A 
ATOM     30  C   UNL     1      -5.132  -3.187  -4.862  0.00  0.00    -0.028 A 
ATOM     31  C   UNL     1      -3.915  -2.688  -4.416  0.00  0.00    +0.054 A 
ATOM     32  C   UNL     1      -5.982  -2.373  -5.803  0.00  0.00    +0.046 C 
ENDBRANCH  23  31
ENDBRANCH  20  23
ENDBRANCH   1  20
TORSDOF 4
