REMARK  Name = ZINC41721597
REMARK  6 active torsions:
REMARK  status: ('A' for Active; 'I' for Inactive)
REMARK    1  A    between atoms: C_7  and  N_11
REMARK    2  A    between atoms: N_11  and  C_12
REMARK    3  A    between atoms: C_12  and  C_13
REMARK    4  A    between atoms: C_13  and  O_14
REMARK    5  A    between atoms: O_14  and  C_15
REMARK    6  A    between atoms: C_20  and  N_21
REMARK                            x       y       z     vdW  Elec       q    Type
REMARK                         _______ _______ _______ _____ _____    ______ ____
ROOT
ATOM      1  N   UNL     1       0.137  -2.861  -0.014  0.00  0.00    -0.340 N 
ATOM      2  H   UNL     1      -0.732  -2.429  -0.002  0.00  0.00    +0.146 HD
ENDROOT
BRANCH   1   9
ATOM      3  C   UNL     1      -0.016   1.358   0.009  0.00  0.00    +0.001 A 
ATOM      4  C   UNL     1       1.170   2.088   0.002  0.00  0.00    +0.002 A 
ATOM      5  C   UNL     1       2.379   1.462  -0.013  0.00  0.00    +0.026 A 
ATOM      6  C   UNL     1       2.437   0.058  -0.021  0.00  0.00    +0.048 A 
ATOM      7  C   UNL     1       1.230  -0.680  -0.013  0.00  0.00    +0.019 A 
ATOM      8  C   UNL     1       0.002  -0.004   0.002  0.00  0.00    +0.012 A 
ATOM      9  C   UNL     1       1.292  -2.094  -0.021  0.00  0.00    +0.038 A 
ATOM     10  C   UNL     1       2.544  -2.688  -0.037  0.00  0.00    +0.041 A 
ATOM     11  C   UNL     1       3.682  -1.893  -0.044  0.00  0.00    +0.085 A 
ATOM     12  N   UNL     1       3.612  -0.582  -0.036  0.00  0.00    -0.361 N 
ATOM     13  H   UNL     1       4.432  -0.065  -0.042  0.00  0.00    +0.165 HD
ENDBRANCH   1   9
BRANCH   1  14
ATOM     14  C   UNL     1       0.228  -4.323  -0.022  0.00  0.00    +0.142 C 
BRANCH  14  15
ATOM     15  C   UNL     1      -1.180  -4.922  -0.011  0.00  0.00    +0.247 C 
BRANCH  15  16
ATOM     16  O   UNL     1      -1.853  -4.578  -1.223  0.00  0.00    -0.489 OA
BRANCH  16  17
ATOM     17  C   UNL     1      -3.125  -5.036  -1.374  0.00  0.00    +0.141 A 
ATOM     18  C   UNL     1      -3.713  -5.794  -0.375  0.00  0.00    +0.047 A 
ATOM     19  C   UNL     1      -5.006  -6.259  -0.530  0.00  0.00    +0.004 A 
ATOM     20  C   UNL     1      -5.716  -5.969  -1.681  0.00  0.00    +0.002 A 
ATOM     21  C   UNL     1      -5.137  -5.213  -2.682  0.00  0.00    +0.026 A 
ATOM     22  C   UNL     1      -3.842  -4.739  -2.531  0.00  0.00    +0.067 A 
BRANCH  22  23
ATOM     23  N   UNL     1      -3.255  -3.968  -3.542  0.00  0.00    -0.355 N 
ATOM     24  H   UNL     1      -2.348  -3.640  -3.436  0.00  0.00    +0.142 HD
ATOM     25  H   UNL     1      -3.755  -3.761  -4.347  0.00  0.00    +0.142 HD
ENDBRANCH  22  23
ENDBRANCH  16  17
ENDBRANCH  15  16
ENDBRANCH  14  15
ENDBRANCH   1  14
TORSDOF 6
