REMARK  Name = ZINC41353492
REMARK  7 active torsions:
REMARK  status: ('A' for Active; 'I' for Inactive)
REMARK    1  A    between atoms: C_1  and  C_2
REMARK    2  A    between atoms: C_2  and  C_3
REMARK    3  A    between atoms: C_2  and  C_4
REMARK    4  A    between atoms: C_2  and  C_5
REMARK    5  A    between atoms: C_8  and  C_11
REMARK    6  A    between atoms: C_13  and  O_14
REMARK    7  A    between atoms: C_23  and  C_25
REMARK                            x       y       z     vdW  Elec       q    Type
REMARK                         _______ _______ _______ _____ _____    ______ ____
ROOT
ATOM      1  C   UNL     1       2.132  -1.732  -4.752  0.00  0.00    +0.139 A 
ATOM      2  C   UNL     1       3.282  -1.030  -5.050  0.00  0.00    +0.093 A 
ATOM      3  C   UNL     1       3.955  -1.280  -6.247  0.00  0.00    +0.131 A 
ATOM      4  C   UNL     1       3.426  -2.257  -7.126  0.00  0.00    +0.059 A 
ATOM      5  C   UNL     1       4.062  -2.550  -8.343  0.00  0.00    +0.017 A 
ATOM      6  C   UNL     1       3.541  -3.491  -9.173  0.00  0.00    +0.024 A 
ATOM      7  C   UNL     1       2.364  -4.176  -8.820  0.00  0.00    +0.037 A 
ATOM      8  C   UNL     1       1.720  -3.895  -7.612  0.00  0.00    +0.070 A 
ATOM      9  C   UNL     1       2.245  -2.939  -6.761  0.00  0.00    +0.141 A 
ATOM     10  O   UNL     1       1.640  -2.659  -5.588  0.00  0.00    -0.455 OA
ATOM     11  N   UNL     1       1.851  -5.115  -9.656  0.00  0.00    -0.279 N 
ATOM     12  C   UNL     1       0.947  -5.980  -9.210  0.00  0.00    +0.284 C 
ATOM     13  O   UNL     1       0.670  -6.014  -8.021  0.00  0.00    -0.266 OA
ATOM     14  H   UNL     1       2.145  -5.153 -10.580  0.00  0.00    +0.155 HD
ENDROOT
BRANCH  12  15
ATOM     15  C   UNL     1       0.278  -6.899 -10.150  0.00  0.00    +0.191 A 
ATOM     16  C   UNL     1      -0.660  -7.816  -9.809  0.00  0.00    +0.063 A 
ATOM     17  C   UNL     1      -1.036  -8.493 -11.052  0.00  0.00    +0.022 A 
ATOM     18  C   UNL     1      -1.933  -9.514 -11.371  0.00  0.00    +0.031 A 
ATOM     19  C   UNL     1      -2.052  -9.931 -12.668  0.00  0.00    +0.042 A 
ATOM     20  C   UNL     1      -1.286  -9.345 -13.668  0.00  0.00    +0.023 A 
ATOM     21  C   UNL     1      -0.396  -8.336 -13.372  0.00  0.00    +0.048 A 
ATOM     22  C   UNL     1      -0.259  -7.896 -12.060  0.00  0.00    +0.136 A 
ATOM     23  O   UNL     1       0.504  -6.949 -11.479  0.00  0.00    -0.450 OA
ATOM     24 CL   UNL     1      -3.167 -11.200 -13.067  0.00  0.00    -0.084 Cl
ENDBRANCH  12  15
BRANCH   1  28
ATOM     25  C   UNL     1       0.112  -0.949  -1.101  0.00  0.00    -0.042 A 
ATOM     26  C   UNL     1      -0.385  -1.903  -1.972  0.00  0.00    +0.005 A 
ATOM     27  C   UNL     1       0.266  -2.163  -3.160  0.00  0.00    +0.012 A 
ATOM     28  C   UNL     1       1.430  -1.459  -3.484  0.00  0.00    +0.017 A 
ATOM     29  C   UNL     1       1.925  -0.497  -2.599  0.00  0.00    +0.012 A 
ATOM     30  C   UNL     1       1.261  -0.245  -1.417  0.00  0.00    +0.005 A 
BRANCH  25  32
ATOM     31  C   UNL     1      -1.045   0.794   0.230  0.00  0.00    +0.015 C 
ATOM     32  C   UNL     1      -0.605  -0.671   0.195  0.00  0.00    -0.013 C 
ATOM     33  C   UNL     1       0.337  -0.949   1.368  0.00  0.00    +0.015 C 
ATOM     34  C   UNL     1      -1.834  -1.575   0.302  0.00  0.00    +0.015 C 
ENDBRANCH  25  32
ENDBRANCH   1  28
BRANCH   3  35
ATOM     35  O   UNL     1       5.083  -0.606  -6.561  0.00  0.00    -0.506 OA
ATOM     36  H   UNL     1       5.356   0.037  -5.891  0.00  0.00    +0.292 HD
ENDBRANCH   3  35
TORSDOF 4
