REMARK  Name = ZINC06881331
REMARK  9 active torsions:
REMARK  status: ('A' for Active; 'I' for Inactive)
REMARK    1  A    between atoms: C_1  and  C_2
REMARK    2  A    between atoms: C_4  and  C_30
REMARK    3  A    between atoms: C_5  and  S_9
REMARK    4  A    between atoms: C_6  and  C_8
REMARK    5  A    between atoms: S_9  and  N_12
REMARK    6  A    between atoms: C_17  and  C_18
REMARK    7  A    between atoms: C_17  and  N_64
REMARK    8  A    between atoms: N_20  and  C_21
REMARK    9  A    between atoms: C_27  and  C_29
REMARK                            x       y       z     vdW  Elec       q    Type
REMARK                         _______ _______ _______ _____ _____    ______ ____
ROOT
ATOM      1  N   UNL     1      -4.324   0.021  -0.841  0.00  0.00    -0.180 NA
ATOM      2  C   UNL     1      -4.609   0.516   0.514  0.00  0.00    +0.091 C 
ATOM      3  C   UNL     1      -4.040   1.933   0.646  0.00  0.00    -0.061 C 
ATOM      4  C   UNL     1      -2.437   1.538  -1.132  0.00  0.00    -0.061 C 
ATOM      5  C   UNL     1      -2.941   0.105  -1.336  0.00  0.00    +0.091 C 
ATOM      6  N   UNL     1      -2.603   1.901   0.292  0.00  0.00    +0.387 N 
ATOM      7  H   UNL     1      -2.133   1.197   0.873  0.00  0.00    -0.081 HD
ENDROOT
BRANCH   1   8
ATOM      8  S   UNL     1      -5.527  -0.614  -1.785  0.00  0.00    +0.061 S 
ATOM      9  O   UNL     1      -4.917  -1.586  -2.622  0.00  0.00    -0.153 OA
ATOM     10  O   UNL     1      -6.605  -0.927  -0.913  0.00  0.00    -0.153 OA
BRANCH   8  15
ATOM     11  C   UNL     1      -7.470   3.802  -5.409  0.00  0.00    +0.044 C 
ATOM     12  C   UNL     1      -6.984   2.700  -4.504  0.00  0.00    -0.050 A 
ATOM     13  C   UNL     1      -7.419   2.639  -3.193  0.00  0.00    +0.008 A 
ATOM     14  C   UNL     1      -6.974   1.628  -2.363  0.00  0.00    -0.024 A 
ATOM     15  C   UNL     1      -6.094   0.676  -2.843  0.00  0.00    +0.111 A 
ATOM     16  C   UNL     1      -5.655   0.740  -4.152  0.00  0.00    -0.024 A 
ATOM     17  C   UNL     1      -6.104   1.748  -4.984  0.00  0.00    +0.008 A 
ATOM     18  C   UNL     1      -4.691  -0.294  -4.674  0.00  0.00    +0.046 C 
ATOM     19  C   UNL     1      -7.449   1.562  -0.934  0.00  0.00    +0.046 C 
ENDBRANCH   8  15
ENDBRANCH   1   8
BRANCH   6  20
ATOM     20  C   UNL     1      -1.992   3.222   0.551  0.00  0.00    +0.019 C 
BRANCH  20  21
ATOM     21  C   UNL     1      -0.498   3.103   0.393  0.00  0.00    +0.197 C 
ATOM     22  O   UNL     1      -0.004   2.041   0.081  0.00  0.00    -0.278 OA
ATOM     23  N   UNL     1       0.288   4.180   0.593  0.00  0.00    -0.314 N 
ATOM     24  H   UNL     1      -0.108   5.030   0.842  0.00  0.00    +0.149 HD
BRANCH  23  25
ATOM     25  C   UNL     1       1.740   4.066   0.433  0.00  0.00    +0.076 C 
ATOM     26  C   UNL     1       2.357   3.556   1.737  0.00  0.00    +0.022 C 
ATOM     27  C   UNL     1       2.044   4.538   2.868  0.00  0.00    +0.002 C 
ATOM     28  C   UNL     1       2.629   5.910   2.529  0.00  0.00    +0.000 C 
ATOM     29  C   UNL     1       2.011   6.420   1.226  0.00  0.00    +0.005 C 
ATOM     30  C   UNL     1       2.325   5.439   0.095  0.00  0.00    +0.006 C 
ATOM     31  C   UNL     1       1.707   5.949  -1.209  0.00  0.00    +0.009 C 
ENDBRANCH  23  25
ENDBRANCH  20  21
ENDBRANCH   6  20
TORSDOF 5
