REMARK  Name = ZINC33928376
REMARK  9 active torsions:
REMARK  status: ('A' for Active; 'I' for Inactive)
REMARK    1  A    between atoms: C_1  and  C_2
REMARK    2  A    between atoms: N_8  and  C_9
REMARK    3  A    between atoms: C_9  and  C_10
REMARK    4  A    between atoms: C_11  and  C_21
REMARK    5  A    between atoms: N_23  and  N_24
REMARK    6  A    between atoms: C_25  and  C_26
REMARK    7  A    between atoms: C_31  and  O_32
REMARK    8  A    between atoms: O_32  and  C_33
REMARK    9  A    between atoms: C_33  and  C_35
REMARK                            x       y       z     vdW  Elec       q    Type
REMARK                         _______ _______ _______ _____ _____    ______ ____
ROOT
ATOM      1  C   UNL     1       2.729  -2.581   2.808  0.00  0.00    +0.063 A 
ATOM      2  C   UNL     1       2.092  -3.267   3.804  0.00  0.00    +0.170 A 
ATOM      3  N   UNL     1       2.922  -3.356   4.858  0.00  0.00    -0.124 NA
ATOM      4  N   UNL     1       4.035  -2.770   4.582  0.00  0.00    -0.058 NA
ATOM      5  N   UNL     1       3.956  -2.264   3.276  0.00  0.00    -0.194 N 
ATOM      6  C   UNL     1       4.955  -1.563   2.591  0.00  0.00    +0.240 A 
ATOM      7  C   UNL     1       6.321  -1.329   3.070  0.00  0.00    +0.206 A 
ATOM      8  N   UNL     1       6.961  -0.641   2.164  0.00  0.00    -0.032 NA
ATOM      9  O   UNL     1       6.069  -0.405   1.089  0.00  0.00    -0.239 OA
ATOM     10  N   UNL     1       4.832  -1.013   1.417  0.00  0.00    -0.027 NA
ATOM     11  N   UNL     1       6.844  -1.764   4.282  0.00  0.00    -0.337 N 
ATOM     12  H   UNL     1       6.290  -2.272   4.895  0.00  0.00    +0.144 HD
ATOM     13  H   UNL     1       7.764  -1.561   4.514  0.00  0.00    +0.144 HD
ENDROOT
BRANCH   2  14
ATOM     14  C   UNL     1       0.725  -3.816   3.734  0.00  0.00    +0.285 C 
ATOM     15  O   UNL     1       0.086  -3.729   2.703  0.00  0.00    -0.267 OA
ATOM     16  N   UNL     1       0.183  -4.414   4.814  0.00  0.00    -0.202 N 
ATOM     17  H   UNL     1       0.717  -4.547   5.613  0.00  0.00    +0.178 HD
BRANCH  16  18
ATOM     18  N   UNL     1      -1.150  -4.842   4.782  0.00  0.00    -0.187 NA
ATOM     19  C   UNL     1      -1.706  -5.316   5.856  0.00  0.00    +0.142 C 
BRANCH  19  20
ATOM     20  C   UNL     1      -1.009  -5.217   7.150  0.00  0.00    +0.037 A 
ATOM     21  C   UNL     1      -0.073  -4.204   7.369  0.00  0.00    +0.013 A 
ATOM     22  C   UNL     1       0.575  -4.117   8.583  0.00  0.00    +0.001 A 
ATOM     23  C   UNL     1       0.302  -5.031   9.587  0.00  0.00    +0.004 A 
ATOM     24  C   UNL     1      -0.622  -6.038   9.383  0.00  0.00    +0.047 A 
ATOM     25  C   UNL     1      -1.286  -6.137   8.171  0.00  0.00    +0.141 A 
BRANCH  25  26
ATOM     26  O   UNL     1      -2.198  -7.123   7.972  0.00  0.00    -0.420 OA
BRANCH  26  27
ATOM     27  C   UNL     1      -1.791  -8.245   7.344  0.00  0.00    +0.380 C 
ATOM     28  O   UNL     1      -0.617  -8.391   7.060  0.00  0.00    -0.241 OA
BRANCH  27  29
ATOM     29  C   UNL     1      -2.761  -9.288   7.005  0.00  0.00    +0.212 A 
ATOM     30  C   UNL     1      -2.472 -10.508   6.461  0.00  0.00    +0.056 A 
ATOM     31  C   UNL     1      -3.694 -11.180   6.305  0.00  0.00    +0.042 A 
ATOM     32  C   UNL     1      -4.664 -10.352   6.755  0.00  0.00    +0.196 A 
ATOM     33  O   UNL     1      -4.097  -9.216   7.180  0.00  0.00    -0.456 OA
ENDBRANCH  27  29
ENDBRANCH  26  27
ENDBRANCH  25  26
ENDBRANCH  19  20
ENDBRANCH  16  18
ENDBRANCH   2  14
BRANCH   1  34
ATOM     34  C   UNL     1       2.172  -2.248   1.448  0.00  0.00    -0.019 C 
BRANCH  34  41
ATOM     35  C   UNL     1       2.705  -1.420  -1.181  0.00  0.00    -0.013 C 
ATOM     36  C   UNL     1       2.212  -2.836  -0.875  0.00  0.00    -0.071 C 
ATOM     37  C   UNL     1       2.783  -3.808  -1.910  0.00  0.00    -0.016 C 
ATOM     38  C   UNL     1       2.287  -5.223  -1.600  0.00  0.00    -0.003 C 
ATOM     39  C   UNL     1       2.692  -5.594  -0.170  0.00  0.00    -0.019 C 
ATOM     40  C   UNL     1       2.124  -4.555   0.800  0.00  0.00    -0.078 C 
ATOM     41  N   UNL     1       2.657  -3.228   0.467  0.00  0.00    +0.385 N 
ATOM     42  H   UNL     1       3.665  -3.255   0.492  0.00  0.00    -0.081 HD
ENDBRANCH  34  41
ENDBRANCH   1  34
TORSDOF 8
