REMARK  Name = ZINC38549250
REMARK  8 active torsions:
REMARK  status: ('A' for Active; 'I' for Inactive)
REMARK    1  A    between atoms: C_1  and  C_2
REMARK    2  A    between atoms: C_5  and  C_8
REMARK    3  A    between atoms: C_8  and  S_9
REMARK    4  A    between atoms: S_9  and  C_10
REMARK    5  A    between atoms: C_12  and  C_15
REMARK    6  A    between atoms: C_15  and  C_16
REMARK    7  A    between atoms: C_21  and  C_24
REMARK    8  A    between atoms: C_24  and  C_25
REMARK                            x       y       z     vdW  Elec       q    Type
REMARK                         _______ _______ _______ _____ _____    ______ ____
ROOT
ATOM      1  C   UNL     1       3.407  -9.845  -0.060  0.00  0.00    +0.152 C 
ENDROOT
BRANCH   1   2
ATOM      2  C   UNL     1       4.332  -9.595  -1.223  0.00  0.00    +0.224 C 
ATOM      3  O   UNL     1       4.126  -8.664  -1.973  0.00  0.00    -0.275 OA
ATOM      4  N   UNL     1       5.390 -10.405  -1.430  0.00  0.00    -0.264 N 
ATOM      5  C   UNL     1       6.243 -10.174  -2.502  0.00  0.00    +0.165 A 
ATOM      6  N   UNL     1       7.310 -10.855  -2.860  0.00  0.00    -0.229 NA
ATOM      7  C   UNL     1       8.022 -10.505  -3.914  0.00  0.00    +0.059 A 
ATOM      8  C   UNL     1       7.603  -9.417  -4.607  0.00  0.00    +0.072 A 
ATOM      9  S   UNL     1       6.158  -8.959  -3.664  0.00  0.00    -0.060 S 
ATOM     10  H   UNL     1       5.555 -11.149  -0.830  0.00  0.00    +0.157 HD
BRANCH   7  11
ATOM     11  C   UNL     1       9.246 -11.279  -4.331  0.00  0.00    +0.151 C 
BRANCH  11  12
ATOM     12  C   UNL     1      10.204 -11.365  -3.171  0.00  0.00    +0.216 C 
ATOM     13  O   UNL     1       9.921 -10.849  -2.111  0.00  0.00    -0.276 OA
ATOM     14  N   UNL     1      11.376 -12.016  -3.312  0.00  0.00    -0.329 N 
ATOM     15  H   UNL     1      11.602 -12.429  -4.160  0.00  0.00    +0.145 HD
ATOM     16  H   UNL     1      11.993 -12.072  -2.565  0.00  0.00    +0.145 HD
ENDBRANCH  11  12
ENDBRANCH   7  11
ENDBRANCH   1   2
BRANCH   1  19
ATOM     17  C   UNL     1       1.632  -6.614  -0.043  0.00  0.00    +0.135 A 
ATOM     18  N   UNL     1       2.593  -7.514  -0.048  0.00  0.00    -0.237 NA
ATOM     19  C   UNL     1       2.316  -8.806  -0.054  0.00  0.00    +0.058 A 
ATOM     20  C   UNL     1       1.007  -9.156  -0.055  0.00  0.00    +0.071 A 
ATOM     21  S   UNL     1       0.232  -7.547  -0.040  0.00  0.00    -0.069 S 
BRANCH  17  22
ATOM     22  S   UNL     1       1.777  -4.858  -0.034  0.00  0.00    -0.094 S 
BRANCH  22  23
ATOM     23  C   UNL     1       0.059  -4.275  -0.021  0.00  0.00    +0.111 C 
BRANCH  23  28
ATOM     24  C   UNL     1      -0.018   1.503   0.010  0.00  0.00    +0.044 C 
ATOM     25  C   UNL     1       0.002  -0.004   0.002  0.00  0.00    -0.050 A 
ATOM     26  C   UNL     1       0.006  -0.689  -1.199  0.00  0.00    +0.003 A 
ATOM     27  C   UNL     1       0.025  -2.071  -1.206  0.00  0.00    +0.005 A 
ATOM     28  C   UNL     1       0.040  -2.768  -0.013  0.00  0.00    -0.037 A 
ATOM     29  C   UNL     1       0.037  -2.084   1.188  0.00  0.00    +0.005 A 
ATOM     30  C   UNL     1       0.023  -0.702   1.195  0.00  0.00    +0.003 A 
ENDBRANCH  23  28
ENDBRANCH  22  23
ENDBRANCH  17  22
ENDBRANCH   1  19
TORSDOF 7
