REMARK  Name = ZINC02214983
REMARK  10 active torsions:
REMARK  status: ('A' for Active; 'I' for Inactive)
REMARK    1  A    between atoms: C_1  and  C_2
REMARK    2  A    between atoms: C_2  and  O_3
REMARK    3  A    between atoms: O_3  and  C_4
REMARK    4  A    between atoms: C_4  and  C_6
REMARK    5  A    between atoms: C_7  and  N_17
REMARK    6  A    between atoms: C_18  and  C_20
REMARK    7  A    between atoms: C_20  and  C_21
REMARK    8  A    between atoms: C_21  and  N_56
REMARK    9  A    between atoms: C_23  and  C_30
REMARK   10  A    between atoms: C_26  and  C_29
REMARK                            x       y       z     vdW  Elec       q    Type
REMARK                         _______ _______ _______ _____ _____    ______ ____
ROOT
ATOM      1  C   UNL     1      -5.940   0.788   6.777  0.00  0.00    +0.147 A 
ATOM      2  C   UNL     1      -4.583   0.907   6.560  0.00  0.00    +0.073 A 
ATOM      3  C   UNL     1      -4.041   1.662   7.692  0.00  0.00    +0.023 A 
ATOM      4  C   UNL     1      -2.757   2.100   8.031  0.00  0.00    +0.027 A 
ATOM      5  C   UNL     1      -2.564   2.809   9.182  0.00  0.00    +0.019 A 
ATOM      6  C   UNL     1      -3.635   3.104  10.017  0.00  0.00    +0.017 A 
ATOM      7  C   UNL     1      -4.908   2.688   9.700  0.00  0.00    +0.027 A 
ATOM      8  C   UNL     1      -5.130   1.963   8.531  0.00  0.00    +0.049 A 
ATOM      9  N   UNL     1      -6.263   1.426   7.965  0.00  0.00    -0.348 N 
ATOM     10  H   UNL     1      -7.155   1.485   8.342  0.00  0.00    +0.166 HD
ATOM     11 BR   UNL     1      -0.826   3.394   9.643  0.00  0.00    -0.050 Br
ENDROOT
BRANCH   2  12
ATOM     12  N   UNL     1      -3.867   0.403   5.479  0.00  0.00    -0.283 N 
ATOM     13  C   UNL     1      -3.216   1.243   4.650  0.00  0.00    +0.215 C 
ATOM     14  O   UNL     1      -3.352   2.442   4.774  0.00  0.00    -0.276 OA
ATOM     15  H   UNL     1      -3.836  -0.554   5.321  0.00  0.00    +0.155 HD
BRANCH  13  16
ATOM     16  C   UNL     1      -2.320   0.693   3.570  0.00  0.00    +0.077 C 
BRANCH  16  17
ATOM     17  C   UNL     1      -1.708   1.850   2.778  0.00  0.00    -0.070 C 
BRANCH  17  25
ATOM     18  C   UNL     1      -1.611   0.570   0.725  0.00  0.00    -0.076 C 
ATOM     19  C   UNL     1      -0.659  -0.094  -0.272  0.00  0.00    -0.031 C 
ATOM     20  C   UNL     1       0.190   0.983  -0.955  0.00  0.00    +0.003 C 
ATOM     21  C   UNL     1       0.951   1.774   0.113  0.00  0.00    -0.031 C 
ATOM     22  C   UNL     1      -0.048   2.384   1.098  0.00  0.00    -0.076 C 
ATOM     23  C   UNL     1       1.755   2.891  -0.556  0.00  0.00    +0.005 C 
ATOM     24  C   UNL     1       0.256  -1.071   0.469  0.00  0.00    +0.005 C 
ATOM     25  N   UNL     1      -0.816   1.295   1.739  0.00  0.00    +0.380 N 
ATOM     26  H   UNL     1      -0.160   0.639   2.179  0.00  0.00    -0.082 HD
ENDBRANCH  17  25
ENDBRANCH  16  17
ENDBRANCH  13  16
ENDBRANCH   2  12
BRANCH   1  27
ATOM     27  C   UNL     1      -6.856   0.122   5.924  0.00  0.00    +0.358 C 
ATOM     28  O   UNL     1      -6.492  -0.276   4.833  0.00  0.00    -0.243 OA
BRANCH  27  29
ATOM     29  O   UNL     1      -8.131  -0.071   6.322  0.00  0.00    -0.460 OA
BRANCH  29  31
ATOM     30  C   UNL     1     -10.392  -0.874   6.032  0.00  0.00    +0.048 C 
ATOM     31  C   UNL     1      -8.999  -0.749   5.412  0.00  0.00    +0.229 C 
ENDBRANCH  29  31
ENDBRANCH  27  29
ENDBRANCH   1  27
TORSDOF 7
