REMARK  Name = ZINC40112808
REMARK  8 active torsions:
REMARK  status: ('A' for Active; 'I' for Inactive)
REMARK    1  A    between atoms: C_1  and  C_2
REMARK    2  A    between atoms: C_4  and  C_10
REMARK    3  A    between atoms: C_6  and  C_9
REMARK    4  A    between atoms: C_7  and  O_8
REMARK    5  A    between atoms: N_11  and  N_12
REMARK    6  A    between atoms: N_12  and  C_13
REMARK    7  A    between atoms: C_14  and  C_25
REMARK    8  A    between atoms: C_16  and  C_18
REMARK                            x       y       z     vdW  Elec       q    Type
REMARK                         _______ _______ _______ _____ _____    ______ ____
ROOT
ATOM      1  N   UNL     1       0.049  -4.812  -3.700  0.00  0.00    -0.205 N 
ATOM      2  H   UNL     1       0.038  -4.325  -4.538  0.00  0.00    +0.177 HD
ENDROOT
BRANCH   1   3
ATOM      3  C   UNL     1       0.068  -6.188  -3.703  0.00  0.00    +0.244 A 
ATOM      4  C   UNL     1       0.079  -7.014  -4.819  0.00  0.00    +0.203 A 
ATOM      5  N   UNL     1       0.097  -8.294  -4.363  0.00  0.00    -0.196 NA
ATOM      6  C   UNL     1       0.097  -8.272  -3.055  0.00  0.00    +0.231 A 
ATOM      7  O   UNL     1       0.085  -6.995  -2.626  0.00  0.00    -0.419 OA
BRANCH   6   8
ATOM      8  C   UNL     1       0.114  -9.464  -2.183  0.00  0.00    +0.037 A 
ATOM      9  C   UNL     1       0.106  -9.317  -0.794  0.00  0.00    +0.016 A 
ATOM     10  C   UNL     1       0.121 -10.433   0.015  0.00  0.00    +0.039 A 
ATOM     11  C   UNL     1       0.144 -11.700  -0.547  0.00  0.00    +0.123 A 
ATOM     12  C   UNL     1       0.152 -11.852  -1.925  0.00  0.00    +0.039 A 
ATOM     13  C   UNL     1       0.131 -10.742  -2.744  0.00  0.00    +0.016 A 
ATOM     14  F   UNL     1       0.159 -12.790   0.250  0.00  0.00    -0.205 F 
ENDBRANCH   6   8
BRANCH   4  15
ATOM     15  C   UNL     1       0.072  -6.596  -6.188  0.00  0.00    +0.124 C 
ATOM     16  N   UNL     1       0.067  -6.265  -7.275  0.00  0.00    -0.189 NA
ENDBRANCH   4  15
ENDBRANCH   1   3
BRANCH   1  18
ATOM     17  C   UNL     1       0.028  -2.816  -2.481  0.00  0.00    +0.138 C 
ATOM     18  N   UNL     1       0.046  -4.115  -2.484  0.00  0.00    -0.188 NA
BRANCH  17  22
ATOM     19  C   UNL     1      -0.018   1.503   0.010  0.00  0.00    +0.047 C 
ATOM     20  C   UNL     1       0.002  -0.004   0.002  0.00  0.00    -0.008 A 
ATOM     21  C   UNL     1       0.006  -0.685  -1.196  0.00  0.00    +0.016 A 
ATOM     22  C   UNL     1       0.025  -2.083  -1.202  0.00  0.00    -0.005 A 
ATOM     23  C   UNL     1       0.040  -2.783   0.007  0.00  0.00    +0.016 A 
ATOM     24  C   UNL     1       0.036  -2.093   1.200  0.00  0.00    -0.008 A 
ATOM     25  C   UNL     1       0.023  -0.704   1.202  0.00  0.00    +0.123 A 
ATOM     26  C   UNL     1       0.052  -2.846   2.505  0.00  0.00    +0.047 C 
BRANCH  25  27
ATOM     27  O   UNL     1       0.025  -0.028   2.380  0.00  0.00    -0.506 OA
ATOM     28  H   UNL     1      -0.857   0.156   2.730  0.00  0.00    +0.292 HD
ENDBRANCH  25  27
ENDBRANCH  17  22
ENDBRANCH   1  18
TORSDOF 6
