REMARK  Name = ZINC14653331
REMARK  9 active torsions:
REMARK  status: ('A' for Active; 'I' for Inactive)
REMARK    1  A    between atoms: C_1  and  C_2
REMARK    2  A    between atoms: C_2  and  C_3
REMARK    3  A    between atoms: C_3  and  O_4
REMARK    4  A    between atoms: O_4  and  C_5
REMARK    5  A    between atoms: C_10  and  C_11
REMARK    6  A    between atoms: N_13  and  C_14
REMARK    7  A    between atoms: C_14  and  N_16
REMARK    8  A    between atoms: N_16  and  C_17
REMARK    9  A    between atoms: C_18  and  C_26
REMARK                            x       y       z     vdW  Elec       q    Type
REMARK                         _______ _______ _______ _____ _____    ______ ____
ROOT
ATOM      1  C   UNL     1      -1.156  -0.694   0.009  0.00  0.00    +0.141 C 
ATOM      2  S   UNL     1      -2.650   0.142   0.028  0.00  0.00    -0.018 S 
ENDROOT
BRANCH   1   5
ATOM      3  C   UNL     1      -0.016   1.344   0.009  0.00  0.00    +0.253 C 
ATOM      4  O   UNL     1      -1.077   1.937   0.018  0.00  0.00    -0.270 OA
ATOM      5  N   UNL     1       0.002  -0.004   0.002  0.00  0.00    -0.263 N 
ATOM      6  H   UNL     1       0.849  -0.478  -0.009  0.00  0.00    +0.157 HD
BRANCH   3  12
ATOM      7  C   UNL     1       1.236   3.500   0.009  0.00  0.00    +0.133 A 
ATOM      8  C   UNL     1       2.434   4.200   0.001  0.00  0.00    +0.047 A 
ATOM      9  C   UNL     1       3.634   3.518  -0.014  0.00  0.00    +0.019 A 
ATOM     10  C   UNL     1       3.653   2.132  -0.021  0.00  0.00    +0.019 A 
ATOM     11  C   UNL     1       2.473   1.420  -0.008  0.00  0.00    +0.032 A 
ATOM     12  C   UNL     1       1.251   2.098   0.001  0.00  0.00    +0.080 A 
ATOM     13 BR   UNL     1       5.306   1.213  -0.041  0.00  0.00    -0.050 Br
BRANCH   7  14
ATOM     14  O   UNL     1       0.056   4.169   0.024  0.00  0.00    -0.491 OA
BRANCH  14  15
ATOM     15  C   UNL     1       0.120   5.596   0.031  0.00  0.00    +0.229 C 
BRANCH  15  17
ATOM     16  C   UNL     1      -1.230   7.699   0.054  0.00  0.00    +0.007 C 
ATOM     17  C   UNL     1      -1.298   6.170   0.047  0.00  0.00    +0.038 C 
ENDBRANCH  15  17
ENDBRANCH  14  15
ENDBRANCH   7  14
ENDBRANCH   3  12
ENDBRANCH   1   5
BRANCH   1  18
ATOM     18  N   UNL     1      -1.137  -2.041   0.002  0.00  0.00    -0.291 N 
ATOM     19  H   UNL     1      -0.291  -2.515  -0.009  0.00  0.00    +0.154 HD
BRANCH  18  20
ATOM     20  C   UNL     1      -2.328  -2.750   0.009  0.00  0.00    +0.084 A 
ATOM     21  C   UNL     1      -2.513  -4.126  -0.002  0.00  0.00    +0.068 A 
ATOM     22  C   UNL     1      -3.879  -4.620   0.015  0.00  0.00    -0.023 A 
ATOM     23  C   UNL     1      -4.835  -3.667   0.028  0.00  0.00    -0.004 A 
ATOM     24  S   UNL     1      -3.947  -2.135   0.028  0.00  0.00    -0.077 S 
ATOM     25  C   UNL     1      -6.318  -3.875   0.040  0.00  0.00    +0.043 C 
ATOM     26  C   UNL     1      -6.605  -5.334  -0.343  0.00  0.00    +0.005 C 
ATOM     27  C   UNL     1      -5.694  -6.249   0.481  0.00  0.00    +0.005 C 
ATOM     28  C   UNL     1      -4.246  -6.099   0.011  0.00  0.00    +0.037 C 
BRANCH  21  29
ATOM     29  C   UNL     1      -1.372  -5.046  -0.025  0.00  0.00    +0.244 C 
ATOM     30  O   UNL     1      -0.885  -5.439   1.020  0.00  0.00    -0.270 OA
ATOM     31  N   UNL     1      -0.861  -5.457  -1.203  0.00  0.00    -0.325 N 
ATOM     32  H   UNL     1      -1.249  -5.144  -2.035  0.00  0.00    +0.145 HD
ATOM     33  H   UNL     1      -0.106  -6.066  -1.218  0.00  0.00    +0.145 HD
ENDBRANCH  21  29
ENDBRANCH  18  20
ENDBRANCH   1  18
TORSDOF 8
