REMARK  Name = ZINC36610390
REMARK  15 active torsions:
REMARK  status: ('A' for Active; 'I' for Inactive)
REMARK    1  A    between atoms: C_1  and  C_2
REMARK    2  A    between atoms: C_2  and  C_3
REMARK    3  A    between atoms: C_2  and  C_4
REMARK    4  A    between atoms: C_2  and  C_5
REMARK    5  A    between atoms: C_5  and  C_6
REMARK    6  A    between atoms: C_6  and  C_7
REMARK    7  A    between atoms: C_6  and  C_8
REMARK    8  A    between atoms: C_6  and  N_9
REMARK    9  A    between atoms: C_10  and  C_12
REMARK   10  A    between atoms: C_12  and  C_14
REMARK   11  A    between atoms: C_12  and  N_19
REMARK   12  A    between atoms: N_19  and  C_20
REMARK   13  A    between atoms: C_26  and  C_28
REMARK   14  A    between atoms: C_32  and  O_35
REMARK   15  A    between atoms: C_33  and  O_34
REMARK                            x       y       z     vdW  Elec       q    Type
REMARK                         _______ _______ _______ _____ _____    ______ ____
ROOT
ATOM      1  N   UNL     1       6.995   0.010  -1.538  0.00  0.00    -0.248 N 
ATOM      2  C   UNL     1       8.035  -0.683  -2.042  0.00  0.00    +0.256 C 
ATOM      3  O   UNL     1       9.155  -0.210  -2.006  0.00  0.00    -0.269 OA
ENDROOT
BRANCH   1   4
ATOM      4  C   UNL     1       7.185   1.312  -1.065  0.00  0.00    +0.038 A 
ATOM      5  C   UNL     1       6.140   1.989  -0.449  0.00  0.00    +0.023 A 
ATOM      6  C   UNL     1       6.332   3.275   0.017  0.00  0.00    +0.002 A 
ATOM      7  C   UNL     1       7.562   3.889  -0.129  0.00  0.00    +0.000 A 
ATOM      8  C   UNL     1       8.604   3.218  -0.742  0.00  0.00    +0.002 A 
ATOM      9  C   UNL     1       8.421   1.929  -1.205  0.00  0.00    +0.023 A 
ENDBRANCH   1   4
BRANCH   2  10
ATOM     10  C   UNL     1       7.816  -2.014  -2.638  0.00  0.00    +0.082 A 
ATOM     11  C   UNL     1       6.603  -2.311  -3.268  0.00  0.00    +0.017 A 
ATOM     12  C   UNL     1       6.401  -3.555  -3.823  0.00  0.00    +0.005 A 
ATOM     13  C   UNL     1       7.395  -4.519  -3.761  0.00  0.00    +0.049 A 
ATOM     14  C   UNL     1       8.601  -4.240  -3.140  0.00  0.00    +0.159 A 
ATOM     15  C   UNL     1       8.822  -2.986  -2.580  0.00  0.00    +0.171 A 
BRANCH  15  16
ATOM     16  O   UNL     1      10.005  -2.707  -1.976  0.00  0.00    -0.503 OA
ATOM     17  H   UNL     1      10.024  -2.917  -1.032  0.00  0.00    +0.292 HD
ENDBRANCH  15  16
BRANCH  14  18
ATOM     18  O   UNL     1       9.572  -5.191  -3.083  0.00  0.00    -0.503 OA
ATOM     19  H   UNL     1      10.181  -5.178  -3.834  0.00  0.00    +0.292 HD
ENDBRANCH  14  18
ENDBRANCH   2  10
BRANCH   1  20
ATOM     20  C   UNL     1       5.664  -0.601  -1.486  0.00  0.00    +0.233 C 
BRANCH  20  21
ATOM     21  C   UNL     1       4.681   0.274  -2.219  0.00  0.00    +0.135 A 
ATOM     22  C   UNL     1       3.687  -0.157  -3.017  0.00  0.00    +0.047 A 
ATOM     23  C   UNL     1       3.016   0.992  -3.493  0.00  0.00    +0.041 A 
ATOM     24  C   UNL     1       3.639   2.057  -2.957  0.00  0.00    +0.195 A 
ATOM     25  O   UNL     1       4.643   1.616  -2.182  0.00  0.00    -0.465 OA
ENDBRANCH  20  21
BRANCH  20  27
ATOM     26  N   UNL     1       4.035  -1.288   0.245  0.00  0.00    -0.308 N 
ATOM     27  C   UNL     1       5.234  -0.746  -0.049  0.00  0.00    +0.242 C 
ATOM     28  O   UNL     1       5.967  -0.375   0.844  0.00  0.00    -0.273 OA
ATOM     29  H   UNL     1       3.450  -1.584  -0.469  0.00  0.00    +0.149 HD
BRANCH  26  30
ATOM     30  C   UNL     1       3.617  -1.428   1.642  0.00  0.00    +0.030 C 
ATOM     31  C   UNL     1       3.709  -0.070   2.341  0.00  0.00    +0.031 C 
ATOM     32  C   UNL     1       4.533  -2.429   2.350  0.00  0.00    +0.031 C 
BRANCH  30  33
ATOM     33  C   UNL     1       2.174  -1.932   1.694  0.00  0.00    +0.031 C 
BRANCH  33  35
ATOM     34  C   UNL     1       1.670  -1.268  -0.661  0.00  0.00    +0.010 C 
ATOM     35  C   UNL     1       1.294  -1.050   0.806  0.00  0.00    -0.036 C 
ATOM     36  C   UNL     1       1.506   0.419   1.175  0.00  0.00    +0.010 C 
ATOM     37  C   UNL     1      -0.176  -1.421   1.015  0.00  0.00    +0.010 C 
ENDBRANCH  33  35
ENDBRANCH  30  33
ENDBRANCH  26  30
ENDBRANCH  20  27
ENDBRANCH   1  20
TORSDOF 10
