REMARK  Name = ZINC12850374
REMARK  5 active torsions:
REMARK  status: ('A' for Active; 'I' for Inactive)
REMARK    1  A    between atoms: C_1  and  C_2
REMARK    2  A    between atoms: C_2  and  C_3
REMARK    3  A    between atoms: C_10  and  C_12
REMARK    4  A    between atoms: C_16  and  C_27
REMARK    5  A    between atoms: C_19  and  C_23
REMARK                            x       y       z     vdW  Elec       q    Type
REMARK                         _______ _______ _______ _____ _____    ______ ____
ROOT
ATOM      1  C   UNL     1      -1.634   0.815   3.739  0.00  0.00    +0.124 C 
ATOM      2  C   UNL     1      -1.218   0.397   4.961  0.00  0.00    +0.086 C 
ATOM      3  C   UNL     1      -2.128   0.974   5.950  0.00  0.00    +0.150 C 
ATOM      4  N   UNL     1      -2.127   0.867   7.248  0.00  0.00    -0.258 NA
ATOM      5  C   UNL     1      -3.144   1.587   8.024  0.00  0.00    +0.146 C 
ATOM      6  C   UNL     1      -4.447   1.697   7.231  0.00  0.00    +0.065 C 
ATOM      7  C   UNL     1      -4.182   2.409   5.895  0.00  0.00    +0.202 C 
ATOM      8  N   UNL     1      -3.072   1.707   5.242  0.00  0.00    -0.224 N 
ATOM      9  N   UNL     1      -2.750   1.626   3.892  0.00  0.00    -0.257 N 
ATOM     10 BR   UNL     1       0.263  -0.725   5.318  0.00  0.00    -0.045 Br
ATOM     11  H   UNL     1      -3.229   2.064   3.172  0.00  0.00    +0.170 HD
ENDROOT
BRANCH   1  18
ATOM     12  C   UNL     1      -0.036  -1.180   0.918  0.00  0.00    +0.076 C 
ATOM     13  C   UNL     1      -0.877  -2.164   0.099  0.00  0.00    +0.022 C 
ATOM     14  C   UNL     1      -1.255  -3.360   0.977  0.00  0.00    +0.003 C 
ATOM     15  C   UNL     1      -2.093  -2.878   2.164  0.00  0.00    +0.019 C 
ATOM     16  C   UNL     1      -1.265  -1.902   3.006  0.00  0.00    +0.108 C 
ATOM     17  N   UNL     1      -0.773  -0.824   2.138  0.00  0.00    -0.293 N 
ATOM     18  C   UNL     1      -0.997   0.468   2.452  0.00  0.00    +0.263 C 
ATOM     19  O   UNL     1      -0.676   1.347   1.677  0.00  0.00    -0.269 OA
BRANCH  12  21
ATOM     20  C   UNL     1       1.363   0.882   0.732  0.00  0.00    +0.006 C 
ATOM     21  C   UNL     1       0.228   0.080   0.092  0.00  0.00    +0.019 C 
ENDBRANCH  12  21
ENDBRANCH   1  18
BRANCH   5  22
ATOM     22  C   UNL     1      -3.407   0.845   9.309  0.00  0.00    +0.014 A 
ATOM     23  C   UNL     1      -3.617   1.341  10.553  0.00  0.00    +0.013 A 
ATOM     24  C   UNL     1      -3.841   0.461  11.596  0.00  0.00    +0.008 A 
ATOM     25  C   UNL     1      -3.844  -0.871  11.344  0.00  0.00    +0.045 A 
ATOM     26  S   UNL     1      -3.530  -0.914   9.587  0.00  0.00    -0.099 S 
ENDBRANCH   5  22
BRANCH   7  27
ATOM     27  C   UNL     1      -5.431   2.345   5.014  0.00  0.00    +0.410 C 
ATOM     28  F   UNL     1      -6.496   2.974   5.669  0.00  0.00    -0.169 F 
ATOM     29  F   UNL     1      -5.180   2.995   3.801  0.00  0.00    -0.169 F 
ATOM     30  F   UNL     1      -5.760   1.008   4.767  0.00  0.00    -0.169 F 
ENDBRANCH   7  27
TORSDOF 4
