REMARK  Name = ZINC09900764
REMARK  5 active torsions:
REMARK  status: ('A' for Active; 'I' for Inactive)
REMARK    1  A    between atoms: C_4  and  S_7
REMARK    2  A    between atoms: S_7  and  N_10
REMARK    3  A    between atoms: C_16  and  C_18
REMARK    4  A    between atoms: C_18  and  C_19
REMARK    5  A    between atoms: C_19  and  C_20
REMARK                            x       y       z     vdW  Elec       q    Type
REMARK                         _______ _______ _______ _____ _____    ______ ____
ROOT
ATOM      1  C   UNL     1       0.208   3.097   4.501  0.00  0.00    +0.105 C 
ENDROOT
BRANCH   1   8
ATOM      2  N   UNL     1       1.304   6.117   8.189  0.00  0.00    -0.174 NA
ATOM      3  C   UNL     1      -0.162   6.032   8.217  0.00  0.00    +0.128 C 
ATOM      4  C   UNL     1      -0.574   4.578   7.953  0.00  0.00    +0.125 C 
ATOM      5  N   UNL     1       0.140   4.097   6.762  0.00  0.00    -0.299 N 
ATOM      6  C   UNL     1       1.607   4.177   6.736  0.00  0.00    +0.125 C 
ATOM      7  C   UNL     1       2.019   5.636   6.998  0.00  0.00    +0.128 C 
ATOM      8  C   UNL     1      -0.538   3.587   5.715  0.00  0.00    +0.216 C 
ATOM      9  O   UNL     1      -1.748   3.521   5.750  0.00  0.00    -0.276 OA
BRANCH   2  10
ATOM     10  S   UNL     1       2.138   6.745   9.475  0.00  0.00    +0.061 S 
ATOM     11  O   UNL     1       3.382   7.206   8.967  0.00  0.00    -0.153 OA
ATOM     12  O   UNL     1       1.235   7.596  10.167  0.00  0.00    -0.153 OA
BRANCH  10  16
ATOM     13  C   UNL     1       3.074   3.308  12.268  0.00  0.00    +0.000 A 
ATOM     14  C   UNL     1       3.963   3.645  11.265  0.00  0.00    +0.002 A 
ATOM     15  C   UNL     1       3.677   4.694  10.412  0.00  0.00    +0.028 A 
ATOM     16  C   UNL     1       2.502   5.407  10.562  0.00  0.00    +0.105 A 
ATOM     17  C   UNL     1       1.616   5.073  11.569  0.00  0.00    +0.028 A 
ATOM     18  C   UNL     1       1.899   4.020  12.419  0.00  0.00    +0.002 A 
ENDBRANCH  10  16
ENDBRANCH   2  10
ENDBRANCH   1   8
BRANCH   1  19
ATOM     19  C   UNL     1      -0.789   2.571   3.467  0.00  0.00    +0.105 C 
BRANCH  19  20
ATOM     20  C   UNL     1      -0.043   2.081   2.253  0.00  0.00    +0.216 C 
ATOM     21  O   UNL     1       1.167   2.147   2.217  0.00  0.00    -0.276 OA
ATOM     22  N   UNL     1      -0.721   1.571   1.206  0.00  0.00    -0.297 N 
ATOM     23  C   UNL     1      -2.191   1.481   1.224  0.00  0.00    +0.114 C 
ATOM     24  C   UNL     1      -2.762   2.388   0.128  0.00  0.00    +0.072 C 
ATOM     25  C   UNL     1      -1.983   2.170  -1.147  0.00  0.00    +0.023 A 
ATOM     26  C   UNL     1      -0.762   1.595  -1.199  0.00  0.00    -0.002 A 
ATOM     27  C   UNL     1      -0.355   1.577  -2.588  0.00  0.00    +0.005 A 
ATOM     28  C   UNL     1       0.795   1.112  -3.235  0.00  0.00    +0.010 A 
ATOM     29  C   UNL     1       0.843   1.262  -4.598  0.00  0.00    +0.001 A 
ATOM     30  C   UNL     1      -0.192   1.843  -5.312  0.00  0.00    +0.002 A 
ATOM     31  C   UNL     1      -1.341   2.311  -4.698  0.00  0.00    +0.026 A 
ATOM     32  C   UNL     1      -1.418   2.173  -3.314  0.00  0.00    +0.047 A 
ATOM     33  N   UNL     1      -2.383   2.516  -2.412  0.00  0.00    -0.358 N 
ATOM     34  H   UNL     1      -3.227   2.942  -2.633  0.00  0.00    +0.166 HD
ATOM     35  C   UNL     1      -0.013   1.086   0.008  0.00  0.00    +0.145 C 
ENDBRANCH  19  20
ENDBRANCH   1  19
TORSDOF 5
