REMARK  Name = ZINC09293365
REMARK  10 active torsions:
REMARK  status: ('A' for Active; 'I' for Inactive)
REMARK    1  A    between atoms: C_1  and  C_2
REMARK    2  A    between atoms: C_5  and  N_9
REMARK    3  A    between atoms: C_6  and  C_8
REMARK    4  A    between atoms: C_10  and  C_36
REMARK    5  A    between atoms: C_12  and  C_15
REMARK    6  A    between atoms: C_13  and  C_14
REMARK    7  A    between atoms: C_25  and  C_27
REMARK    8  A    between atoms: C_27  and  O_28
REMARK    9  A    between atoms: O_28  and  C_29
REMARK   10  A    between atoms: C_34  and  C_35
REMARK                            x       y       z     vdW  Elec       q    Type
REMARK                         _______ _______ _______ _____ _____    ______ ____
ROOT
ATOM      1  C   UNL     1       1.680  -7.447  -0.141  0.00  0.00    +0.026 C 
ATOM      2  C   UNL     1       1.115  -8.697   0.011  0.00  0.00    +0.081 C 
ATOM      3  C   UNL     1      -0.360  -8.891   0.054  0.00  0.00    +0.153 C 
ATOM      4  N   UNL     1      -1.202  -8.150  -0.619  0.00  0.00    -0.283 NA
ATOM      5  N   UNL     1      -0.762  -9.953   0.892  0.00  0.00    -0.152 N 
ATOM      6  C   UNL     1       0.161 -10.945   1.148  0.00  0.00    +0.181 C 
ATOM      7  N   UNL     1       1.417 -10.980   0.781  0.00  0.00    -0.152 NA
ATOM      8  C   UNL     1       1.946  -9.919   0.133  0.00  0.00    +0.273 C 
ATOM      9  O   UNL     1       3.072  -9.962  -0.334  0.00  0.00    -0.268 OA
ATOM     10  S   UNL     1      -0.790 -12.102   2.097  0.00  0.00    -0.035 S 
ATOM     11  C   UNL     1      -2.303 -11.153   2.174  0.00  0.00    +0.137 C 
ATOM     12  N   UNL     1      -2.004 -10.098   1.472  0.00  0.00    -0.166 NA
ATOM     13  H   UNL     1      -2.156  -8.299  -0.530  0.00  0.00    +0.188 HD
ENDROOT
BRANCH   1  17
ATOM     14  N   UNL     1       0.138  -4.205  -0.194  0.00  0.00    -0.317 N 
ATOM     15  C   UNL     1      -0.841  -4.905   0.455  0.00  0.00    +0.022 A 
ATOM     16  C   UNL     1      -0.457  -6.185   0.586  0.00  0.00    +0.031 A 
ATOM     17  C   UNL     1       0.872  -6.286  -0.035  0.00  0.00    -0.003 A 
ATOM     18  C   UNL     1       1.170  -5.016  -0.501  0.00  0.00    +0.028 A 
ATOM     19  C   UNL     1       2.429  -4.612  -1.223  0.00  0.00    +0.064 C 
ATOM     20  C   UNL     1      -2.145  -4.331   0.947  0.00  0.00    +0.064 C 
BRANCH  14  25
ATOM     21  C   UNL     1      -0.119   1.326  -1.440  0.00  0.00    +0.044 C 
ATOM     22  C   UNL     1      -0.051  -0.143  -1.109  0.00  0.00    -0.050 A 
ATOM     23  C   UNL     1      -0.536  -1.076  -2.007  0.00  0.00    +0.005 A 
ATOM     24  C   UNL     1      -0.475  -2.422  -1.707  0.00  0.00    +0.026 A 
ATOM     25  C   UNL     1       0.075  -2.839  -0.502  0.00  0.00    +0.049 A 
ATOM     26  C   UNL     1       0.561  -1.901   0.398  0.00  0.00    -0.026 A 
ATOM     27  C   UNL     1       0.503  -0.555   0.089  0.00  0.00    +0.008 A 
ATOM     28  C   UNL     1       1.158  -2.349   1.707  0.00  0.00    +0.046 C 
ENDBRANCH  14  25
ENDBRANCH   1  17
BRANCH  11  29
ATOM     29  C   UNL     1      -3.596 -11.489   2.872  0.00  0.00    +0.293 C 
BRANCH  29  30
ATOM     30  O   UNL     1      -4.538 -10.434   2.664  0.00  0.00    -0.485 OA
BRANCH  30  31
ATOM     31  C   UNL     1      -5.764 -10.581   3.232  0.00  0.00    +0.124 A 
ATOM     32  C   UNL     1      -6.052 -11.714   3.979  0.00  0.00    +0.046 A 
ATOM     33  C   UNL     1      -7.299 -11.861   4.555  0.00  0.00    +0.004 A 
ATOM     34  C   UNL     1      -8.259 -10.880   4.388  0.00  0.00    +0.000 A 
ATOM     35  C   UNL     1      -7.974  -9.750   3.644  0.00  0.00    +0.007 A 
ATOM     36  C   UNL     1      -6.727  -9.596   3.070  0.00  0.00    -0.009 A 
ATOM     37  C   UNL     1      -6.415  -8.362   2.264  0.00  0.00    +0.047 C 
ENDBRANCH  30  31
ENDBRANCH  29  30
ENDBRANCH  11  29
TORSDOF 5
