REMARK  Name = ZINC22681498
REMARK  11 active torsions:
REMARK  status: ('A' for Active; 'I' for Inactive)
REMARK    1  A    between atoms: C_1  and  C_2
REMARK    2  A    between atoms: C_2  and  O_3
REMARK    3  A    between atoms: O_3  and  C_4
REMARK    4  A    between atoms: C_9  and  C_10
REMARK    5  A    between atoms: C_12  and  C_15
REMARK    6  A    between atoms: C_15  and  C_16
REMARK    7  A    between atoms: N_18  and  C_19
REMARK    8  A    between atoms: C_19  and  C_20
REMARK    9  A    between atoms: C_20  and  C_22
REMARK   10  A    between atoms: C_20  and  N_27
REMARK   11  A    between atoms: C_30  and  C_33
REMARK                            x       y       z     vdW  Elec       q    Type
REMARK                         _______ _______ _______ _____ _____    ______ ____
ROOT
ATOM      1  C   UNL     1       0.350   0.748   1.146  0.00  0.00    +0.219 C 
ATOM      2  O   UNL     1       0.603  -0.415   1.377  0.00  0.00    -0.275 OA
ATOM      3  N   UNL     1       1.317   1.572   0.697  0.00  0.00    -0.316 N 
ATOM      4  H   UNL     1       1.087   2.627   0.488  0.00  0.00    +0.149 HD
ENDROOT
BRANCH   1   5
ATOM      5  C   UNL     1      -1.048   1.271   1.355  0.00  0.00    +0.151 C 
BRANCH   5   8
ATOM      6  C   UNL     1      -2.797  -1.958   1.582  0.00  0.00    +0.112 A 
ATOM      7  N   UNL     1      -2.030  -0.960   1.166  0.00  0.00    -0.243 NA
ATOM      8  C   UNL     1      -1.933   0.156   1.851  0.00  0.00    +0.058 A 
ATOM      9  C   UNL     1      -2.634   0.306   3.005  0.00  0.00    +0.071 A 
ATOM     10  S   UNL     1      -3.472  -1.272   3.090  0.00  0.00    -0.075 S 
BRANCH   6  16
ATOM     11  C   UNL     1      -3.895  -4.198   1.578  0.00  0.00    +0.130 A 
ATOM     12  C   UNL     1      -4.117  -5.432   0.987  0.00  0.00    +0.046 A 
ATOM     13  C   UNL     1      -3.482  -5.758  -0.196  0.00  0.00    +0.004 A 
ATOM     14  C   UNL     1      -2.627  -4.853  -0.803  0.00  0.00    +0.001 A 
ATOM     15  C   UNL     1      -2.401  -3.619  -0.231  0.00  0.00    +0.014 A 
ATOM     16  C   UNL     1      -3.036  -3.279   0.964  0.00  0.00    +0.049 A 
BRANCH  11  17
ATOM     17  O   UNL     1      -4.514  -3.880   2.744  0.00  0.00    -0.492 OA
BRANCH  17  19
ATOM     18  C   UNL     1      -5.979  -4.332   4.612  0.00  0.00    +0.048 C 
ATOM     19  C   UNL     1      -5.377  -4.867   3.312  0.00  0.00    +0.226 C 
ENDBRANCH  17  19
ENDBRANCH  11  17
ENDBRANCH   6  16
ENDBRANCH   5   8
ENDBRANCH   1   5
BRANCH   3  20
ATOM     20  C   UNL     1       2.675   1.062   0.488  0.00  0.00    +0.094 C 
BRANCH  20  21
ATOM     21  C   UNL     1       3.571   2.193  -0.020  0.00  0.00    -0.013 C 
BRANCH  21  22
ATOM     22  N   UNL     1       3.508   3.326   0.913  0.00  0.00    +0.386 N 
ATOM     23  C   UNL     1       3.676   2.875   2.300  0.00  0.00    -0.078 C 
ATOM     24  C   UNL     1       3.460   4.054   3.251  0.00  0.00    -0.015 C 
ATOM     25  C   UNL     1       4.471   5.157   2.927  0.00  0.00    -0.018 C 
ATOM     26  C   UNL     1       4.308   5.575   1.463  0.00  0.00    -0.015 C 
ATOM     27  C   UNL     1       4.500   4.351   0.564  0.00  0.00    -0.078 C 
ATOM     28  C   UNL     1       4.221   6.363   3.834  0.00  0.00    +0.007 C 
ATOM     29  H   UNL     1       2.510   3.781   0.827  0.00  0.00    -0.081 HD
ENDBRANCH  21  22
BRANCH  21  30
ATOM     30  C   UNL     1       4.993   1.702  -0.118  0.00  0.00    -0.022 A 
ATOM     31  C   UNL     1       5.725   1.423  -1.224  0.00  0.00    +0.009 A 
ATOM     32  C   UNL     1       7.026   0.981  -1.072  0.00  0.00    +0.008 A 
ATOM     33  C   UNL     1       7.530   0.838   0.178  0.00  0.00    +0.045 A 
ATOM     34  S   UNL     1       6.151   1.343   1.192  0.00  0.00    -0.103 S 
ENDBRANCH  21  30
ENDBRANCH  20  21
ENDBRANCH   3  20
TORSDOF 9
