REMARK  Name = ZINC45604883
REMARK  6 active torsions:
REMARK  status: ('A' for Active; 'I' for Inactive)
REMARK    1  A    between atoms: C_1  and  C_2
REMARK    2  A    between atoms: C_2  and  C_4
REMARK    3  A    between atoms: C_2  and  O_16
REMARK    4  A    between atoms: N_6  and  C_7
REMARK    5  A    between atoms: O_16  and  C_17
REMARK    6  A    between atoms: C_17  and  C_19
REMARK                            x       y       z     vdW  Elec       q    Type
REMARK                         _______ _______ _______ _____ _____    ______ ____
ROOT
ATOM      1  C   UNL     1      -0.029   1.532   0.022  0.00  0.00    +0.062 C 
ATOM      2  C   UNL     1       0.000   0.002   0.005  0.00  0.00    +0.259 C 
ENDROOT
BRANCH   2   3
ATOM      3  C   UNL     1      -1.411  -0.527   0.012  0.00  0.00    +0.258 C 
ATOM      4  O   UNL     1      -1.814  -1.166   0.961  0.00  0.00    -0.271 OA
ATOM      5  N   UNL     1      -2.225  -0.290  -1.036  0.00  0.00    -0.282 N 
ATOM      6  H   UNL     1      -1.925   0.276  -1.764  0.00  0.00    +0.155 HD
BRANCH   5   7
ATOM      7  C   UNL     1      -3.503  -0.863  -1.074  0.00  0.00    +0.037 A 
ATOM      8  C   UNL     1      -4.044  -1.273  -2.285  0.00  0.00    +0.027 A 
ATOM      9  C   UNL     1      -5.305  -1.838  -2.323  0.00  0.00    +0.051 A 
ATOM     10  C   UNL     1      -6.032  -1.996  -1.155  0.00  0.00    +0.166 A 
ATOM     11  C   UNL     1      -5.492  -1.585   0.062  0.00  0.00    +0.168 A 
ATOM     12  C   UNL     1      -4.226  -1.025   0.100  0.00  0.00    +0.072 A 
ATOM     13  O   UNL     1      -6.395  -1.846   1.051  0.00  0.00    -0.453 OA
ATOM     14  C   UNL     1      -7.654  -2.043   0.380  0.00  0.00    +0.466 C 
ATOM     15  O   UNL     1      -7.275  -2.515  -0.926  0.00  0.00    -0.453 OA
ENDBRANCH   5   7
ENDBRANCH   2   3
BRANCH   2  16
ATOM     16  O   UNL     1       0.693  -0.474   1.160  0.00  0.00    -0.449 OA
BRANCH  16  17
ATOM     17  C   UNL     1       2.024  -0.652   1.045  0.00  0.00    +0.340 C 
ATOM     18  O   UNL     1       2.581  -0.409  -0.007  0.00  0.00    -0.245 OA
BRANCH  17  19
ATOM     19  C   UNL     1       2.804  -1.140   2.196  0.00  0.00    +0.067 A 
ATOM     20  C   UNL     1       2.189  -1.431   3.411  0.00  0.00    +0.016 A 
ATOM     21  C   UNL     1       2.910  -1.893   4.507  0.00  0.00    +0.005 A 
ATOM     22  C   UNL     1       4.258  -2.082   4.440  0.00  0.00    -0.039 A 
ATOM     23  C   UNL     1       4.915  -1.805   3.245  0.00  0.00    -0.011 A 
ATOM     24  C   UNL     1       4.247  -1.342   2.099  0.00  0.00    -0.003 A 
ATOM     25  C   UNL     1       5.004  -1.100   0.947  0.00  0.00    +0.009 A 
ATOM     26  C   UNL     1       6.351  -1.329   0.984  0.00  0.00    +0.001 A 
ATOM     27  C   UNL     1       6.995  -1.795   2.132  0.00  0.00    +0.004 A 
ATOM     28  C   UNL     1       6.288  -2.029   3.272  0.00  0.00    -0.039 A 
ATOM     29  C   UNL     1       6.638  -2.523   4.654  0.00  0.00    +0.040 C 
ATOM     30  C   UNL     1       5.301  -2.559   5.425  0.00  0.00    +0.040 C 
ENDBRANCH  17  19
ENDBRANCH  16  17
ENDBRANCH   2  16
TORSDOF 5
