REMARK  Name = ZINC66761343
REMARK  8 active torsions:
REMARK  status: ('A' for Active; 'I' for Inactive)
REMARK    1  A    between atoms: C_1  and  C_2
REMARK    2  A    between atoms: C_2  and  C_3
REMARK    3  A    between atoms: C_3  and  N_4
REMARK    4  A    between atoms: C_10  and  N_13
REMARK    5  A    between atoms: C_14  and  C_16
REMARK    6  A    between atoms: C_18  and  S_23
REMARK    7  A    between atoms: S_23  and  N_26
REMARK    8  A    between atoms: N_26  and  C_27
REMARK                            x       y       z     vdW  Elec       q    Type
REMARK                         _______ _______ _______ _____ _____    ______ ____
ROOT
ATOM      1  N   UNL     1      -4.775  -4.915   0.174  0.00  0.00    -0.281 N 
ATOM      2  C   UNL     1      -5.316  -6.092   0.546  0.00  0.00    +0.251 C 
ATOM      3  O   UNL     1      -4.796  -7.136   0.203  0.00  0.00    -0.270 OA
ATOM      4  H   UNL     1      -5.142  -4.084   0.513  0.00  0.00    +0.155 HD
ENDROOT
BRANCH   1  11
ATOM      5  N   UNL     1      -1.413  -2.005  -0.018  0.00  0.00    +0.385 N 
ATOM      6  C   UNL     1      -0.968  -2.509  -1.337  0.00  0.00    -0.042 C 
ATOM      7  C   UNL     1      -1.734  -3.793  -1.563  0.00  0.00    -0.061 A 
ATOM      8  C   UNL     1      -1.526  -4.848  -2.432  0.00  0.00    +0.002 A 
ATOM      9  C   UNL     1      -2.393  -5.925  -2.438  0.00  0.00    +0.002 A 
ATOM     10  C   UNL     1      -3.472  -5.950  -1.575  0.00  0.00    +0.023 A 
ATOM     11  C   UNL     1      -3.684  -4.893  -0.701  0.00  0.00    +0.035 A 
ATOM     12  C   UNL     1      -2.812  -3.813  -0.696  0.00  0.00    -0.041 A 
ATOM     13  C   UNL     1      -2.785  -2.543   0.123  0.00  0.00    -0.040 C 
ATOM     14  H   UNL     1      -0.817  -2.356   0.716  0.00  0.00    -0.081 HD
BRANCH   5  15
ATOM     15  C   UNL     1      -1.431  -0.536  -0.008  0.00  0.00    -0.078 C 
BRANCH  15  17
ATOM     16  C   UNL     1      -0.015   1.522  -0.019  0.00  0.00    +0.002 C 
ATOM     17  C   UNL     1       0.004  -0.007  -0.030  0.00  0.00    -0.022 C 
ENDBRANCH  15  17
ENDBRANCH   5  15
ENDBRANCH   1  11
BRANCH   2  18
ATOM     18  C   UNL     1      -6.541  -6.114   1.370  0.00  0.00    +0.074 A 
ATOM     19  C   UNL     1      -7.146  -4.917   1.761  0.00  0.00    +0.044 A 
ATOM     20  C   UNL     1      -8.289  -4.944   2.530  0.00  0.00    +0.106 A 
ATOM     21  C   UNL     1      -8.841  -6.154   2.916  0.00  0.00    +0.031 A 
ATOM     22  C   UNL     1      -8.251  -7.344   2.534  0.00  0.00    +0.041 A 
ATOM     23  C   UNL     1      -7.106  -7.333   1.758  0.00  0.00    +0.136 A 
ATOM     24  F   UNL     1      -6.532  -8.496   1.380  0.00  0.00    -0.205 F 
BRANCH  20  25
ATOM     25  S   UNL     1      -9.052  -3.434   3.024  0.00  0.00    +0.058 S 
ATOM     26  O   UNL     1      -9.802  -3.722   4.195  0.00  0.00    -0.153 OA
ATOM     27  O   UNL     1      -8.038  -2.438   2.994  0.00  0.00    -0.153 OA
BRANCH  25  28
ATOM     28  N   UNL     1     -10.146  -3.030   1.848  0.00  0.00    -0.193 NA
ATOM     29  C   UNL     1     -11.311  -3.885   1.607  0.00  0.00    +0.127 C 
ATOM     30  H   UNL     1     -10.015  -2.228   1.318  0.00  0.00    +0.148 HD
ENDBRANCH  25  28
ENDBRANCH  20  25
ENDBRANCH   2  18
TORSDOF 6
