REMARK  Name = ZINC59506722
REMARK  5 active torsions:
REMARK  status: ('A' for Active; 'I' for Inactive)
REMARK    1  A    between atoms: C_1  and  C_2
REMARK    2  A    between atoms: C_2  and  O_3
REMARK    3  A    between atoms: O_3  and  C_4
REMARK    4  A    between atoms: C_7  and  C_10
REMARK    5  A    between atoms: N_21  and  C_22
REMARK                            x       y       z     vdW  Elec       q    Type
REMARK                         _______ _______ _______ _____ _____    ______ ____
ROOT
ATOM      1  C   UNL     1      -2.015  -6.026  -0.001  0.00  0.00    +0.198 C 
ATOM      2  N   UNL     1      -0.853  -6.650   0.642  0.00  0.00    -0.321 N 
ATOM      3  C   UNL     1      -0.794  -6.686   2.031  0.00  0.00    +0.041 A 
ATOM      4  C   UNL     1       0.413  -6.691   2.709  0.00  0.00    +0.024 A 
ATOM      5  C   UNL     1       0.421  -6.737   4.090  0.00  0.00    +0.002 A 
ATOM      6  C   UNL     1      -0.768  -6.779   4.801  0.00  0.00    +0.001 A 
ATOM      7  C   UNL     1      -1.979  -6.770   4.140  0.00  0.00    +0.015 A 
ATOM      8  C   UNL     1      -2.002  -6.719   2.748  0.00  0.00    +0.058 A 
ATOM      9  C   UNL     1      -3.270  -6.683   1.998  0.00  0.00    +0.254 C 
ATOM     10  O   UNL     1      -4.326  -6.875   2.569  0.00  0.00    -0.270 OA
ATOM     11  N   UNL     1      -3.246  -6.435   0.676  0.00  0.00    -0.244 N 
ATOM     12  H   UNL     1      -0.139  -7.032   0.108  0.00  0.00    +0.148 HD
ENDROOT
BRANCH  11  13
ATOM     13  C   UNL     1      -4.425  -6.571  -0.064  0.00  0.00    +0.039 A 
ATOM     14  C   UNL     1      -4.475  -7.452  -1.137  0.00  0.00    +0.024 A 
ATOM     15  C   UNL     1      -5.640  -7.585  -1.866  0.00  0.00    +0.017 A 
ATOM     16  C   UNL     1      -6.757  -6.841  -1.529  0.00  0.00    +0.018 A 
ATOM     17  C   UNL     1      -6.710  -5.962  -0.461  0.00  0.00    +0.017 A 
ATOM     18  C   UNL     1      -5.549  -5.830   0.275  0.00  0.00    +0.024 A 
ATOM     19 BR   UNL     1      -8.351  -7.025  -2.530  0.00  0.00    -0.050 Br
ENDBRANCH  11  13
BRANCH   1  23
ATOM     20  C   UNL     1      -1.632  -1.775   0.206  0.00  0.00    +0.121 A 
ATOM     21  C   UNL     1      -0.499  -2.573   0.154  0.00  0.00    +0.046 A 
ATOM     22  C   UNL     1      -0.625  -3.947   0.088  0.00  0.00    +0.010 A 
ATOM     23  C   UNL     1      -1.880  -4.527   0.073  0.00  0.00    -0.009 A 
ATOM     24  C   UNL     1      -3.011  -3.734   0.124  0.00  0.00    +0.010 A 
ATOM     25  C   UNL     1      -2.890  -2.360   0.197  0.00  0.00    +0.046 A 
BRANCH  20  26
ATOM     26  O   UNL     1      -1.511  -0.423   0.272  0.00  0.00    -0.492 OA
BRANCH  26  28
ATOM     27  C   UNL     1      -0.249   1.636   0.356  0.00  0.00    +0.048 C 
ATOM     28  C   UNL     1      -0.185   0.110   0.279  0.00  0.00    +0.225 C 
ENDBRANCH  26  28
ENDBRANCH  20  26
ENDBRANCH   1  23
TORSDOF 4
