REMARK  Name = ZINC09971321
REMARK  6 active torsions:
REMARK  status: ('A' for Active; 'I' for Inactive)
REMARK    1  A    between atoms: C_1  and  C_2
REMARK    2  A    between atoms: C_3  and  C_29
REMARK    3  A    between atoms: C_18  and  C_19
REMARK    4  A    between atoms: C_22  and  O_25
REMARK    5  A    between atoms: C_29  and  O_31
REMARK    6  A    between atoms: O_31  and  C_32
REMARK                            x       y       z     vdW  Elec       q    Type
REMARK                         _______ _______ _______ _____ _____    ______ ____
ROOT
ATOM      1  C   UNL     1       3.974  -5.108  -0.440  0.00  0.00    +0.084 C 
ATOM      2  C   UNL     1       3.837  -3.631  -0.063  0.00  0.00    +0.217 C 
ATOM      3  C   UNL     1       5.008  -2.847  -0.664  0.00  0.00    +0.191 C 
ATOM      4  C   UNL     1       4.887  -1.381  -0.215  0.00  0.00    +0.146 C 
ATOM      5  C   UNL     1       3.498  -0.895  -0.567  0.00  0.00    +0.018 A 
ATOM      6  C   UNL     1       3.286   0.463  -0.727  0.00  0.00    +0.009 A 
ATOM      7  C   UNL     1       2.025   0.937  -1.033  0.00  0.00    +0.001 A 
ATOM      8  C   UNL     1       0.973   0.052  -1.181  0.00  0.00    +0.004 A 
ATOM      9  C   UNL     1       1.182  -1.303  -1.028  0.00  0.00    +0.046 A 
ATOM     10  C   UNL     1       2.451  -1.786  -0.720  0.00  0.00    +0.129 A 
ATOM     11  O   UNL     1       2.616  -3.126  -0.589  0.00  0.00    -0.464 OA
ATOM     12  N   UNL     1       4.952  -1.395   1.277  0.00  0.00    -0.278 N 
ATOM     13  C   UNL     1       5.498  -0.417   1.996  0.00  0.00    +0.268 A 
ATOM     14  O   UNL     1       6.004   0.550   1.459  0.00  0.00    -0.266 OA
ATOM     15  C   UNL     1       5.471  -0.544   3.464  0.00  0.00    +0.081 A 
ATOM     16  C   UNL     1       5.944   0.306   4.410  0.00  0.00    +0.028 C 
ATOM     17  S   UNL     1       4.647  -2.118   3.664  0.00  0.00    -0.046 S 
ATOM     18  C   UNL     1       4.408  -2.486   1.946  0.00  0.00    +0.176 A 
ATOM     19  N   UNL     1       3.867  -3.523   1.399  0.00  0.00    -0.214 NA
ENDROOT
BRANCH  16  20
ATOM     20  C   UNL     1       5.956  -0.100   5.822  0.00  0.00    -0.024 A 
ATOM     21  C   UNL     1       6.099   0.863   6.828  0.00  0.00    +0.011 A 
ATOM     22  C   UNL     1       6.104   0.478   8.150  0.00  0.00    +0.046 A 
ATOM     23  C   UNL     1       5.978  -0.865   8.486  0.00  0.00    +0.117 A 
ATOM     24  C   UNL     1       5.841  -1.826   7.490  0.00  0.00    +0.046 A 
ATOM     25  C   UNL     1       5.830  -1.451   6.165  0.00  0.00    +0.011 A 
BRANCH  23  26
ATOM     26  O   UNL     1       5.990  -1.240   9.791  0.00  0.00    -0.507 OA
ATOM     27  H   UNL     1       6.871  -1.439  10.135  0.00  0.00    +0.292 HD
ENDBRANCH  23  26
ENDBRANCH  16  20
BRANCH   3  28
ATOM     28  C   UNL     1       6.311  -3.423  -0.174  0.00  0.00    +0.318 C 
ATOM     29  O   UNL     1       7.081  -2.732   0.450  0.00  0.00    -0.250 OA
BRANCH  28  30
ATOM     30  O   UNL     1       6.617  -4.704  -0.432  0.00  0.00    -0.468 OA
ATOM     31  C   UNL     1       7.889  -5.192   0.070  0.00  0.00    +0.280 C 
ENDBRANCH  28  30
ENDBRANCH   3  28
TORSDOF 4
