REMARK  Name = ZINC36740661
REMARK  9 active torsions:
REMARK  status: ('A' for Active; 'I' for Inactive)
REMARK    1  A    between atoms: C_1  and  C_2
REMARK    2  A    between atoms: C_2  and  O_3
REMARK    3  A    between atoms: O_3  and  C_4
REMARK    4  A    between atoms: N_16  and  C_18
REMARK    5  A    between atoms: C_18  and  C_19
REMARK    6  A    between atoms: C_24  and  C_25
REMARK    7  A    between atoms: C_25  and  C_26
REMARK    8  A    between atoms: C_25  and  C_27
REMARK    9  A    between atoms: C_25  and  C_28
REMARK                            x       y       z     vdW  Elec       q    Type
REMARK                         _______ _______ _______ _____ _____    ______ ____
ROOT
ATOM      1  C   UNL     1       1.629  -4.830  -0.145  0.00  0.00    +0.121 A 
ATOM      2  C   UNL     1       1.315  -6.004   0.533  0.00  0.00    +0.047 A 
ATOM      3  C   UNL     1       1.591  -7.231  -0.026  0.00  0.00    +0.030 A 
ATOM      4  C   UNL     1       2.191  -7.308  -1.278  0.00  0.00    +0.047 A 
ATOM      5  C   UNL     1       2.511  -6.122  -1.968  0.00  0.00    +0.005 A 
ATOM      6  C   UNL     1       2.219  -4.883  -1.392  0.00  0.00    +0.055 A 
ATOM      7  C   UNL     1       3.115  -6.544  -3.225  0.00  0.00    -0.036 A 
ATOM      8  C   UNL     1       3.129  -7.893  -3.232  0.00  0.00    +0.017 A 
ATOM      9  N   UNL     1       2.582  -8.364  -2.076  0.00  0.00    -0.358 N 
ATOM     10  H   UNL     1       2.483  -9.302  -1.848  0.00  0.00    +0.166 HD
ATOM     11  C   UNL     1       3.682  -8.693  -4.390  0.00  0.00    +0.035 C 
ATOM     12  C   UNL     1       3.808  -7.749  -5.593  0.00  0.00    -0.072 C 
ATOM     13  N   UNL     1       4.518  -6.527  -5.193  0.00  0.00    +0.385 N 
ATOM     14  C   UNL     1       3.649  -5.692  -4.347  0.00  0.00    -0.040 C 
ATOM     15  H   UNL     1       5.348  -6.776  -4.677  0.00  0.00    -0.081 HD
ENDROOT
BRANCH   1  16
ATOM     16  O   UNL     1       1.350  -3.625   0.421  0.00  0.00    -0.492 OA
BRANCH  16  18
ATOM     17  C   UNL     1       0.503  -2.205   2.183  0.00  0.00    +0.048 C 
ATOM     18  C   UNL     1       0.740  -3.641   1.713  0.00  0.00    +0.225 C 
ENDBRANCH  16  18
ENDBRANCH   1  16
BRANCH  13  19
ATOM     19  C   UNL     1       4.901  -5.771  -6.393  0.00  0.00    -0.039 C 
BRANCH  19  20
ATOM     20  C   UNL     1       5.920  -6.557  -7.178  0.00  0.00    -0.023 A 
ATOM     21  C   UNL     1       6.557  -7.729  -6.757  0.00  0.00    +0.136 A 
ATOM     22  N   UNL     1       7.370  -8.116  -7.707  0.00  0.00    -0.182 NA
ATOM     23  H   UNL     1       7.769  -7.239  -9.598  0.00  0.00    +0.189 HD
ATOM     24  N   UNL     1       7.277  -7.200  -8.763  0.00  0.00    -0.281 N 
ATOM     25  C   UNL     1       6.376  -6.256  -8.416  0.00  0.00    +0.043 A 
BRANCH  25  26
ATOM     26  C   UNL     1       5.957  -5.077  -9.255  0.00  0.00    +0.004 C 
ATOM     27  C   UNL     1       6.799  -5.035 -10.532  0.00  0.00    +0.017 C 
ATOM     28  C   UNL     1       4.478  -5.213  -9.623  0.00  0.00    +0.017 C 
ATOM     29  C   UNL     1       6.169  -3.786  -8.462  0.00  0.00    +0.017 C 
ENDBRANCH  25  26
ENDBRANCH  19  20
ENDBRANCH  13  19
TORSDOF 5
