REMARK  Name = ZINC21258942
REMARK  2 active torsions:
REMARK  status: ('A' for Active; 'I' for Inactive)
REMARK    1  A    between atoms: C_5  and  C_7
REMARK    2  A    between atoms: C_12  and  C_22
REMARK                            x       y       z     vdW  Elec       q    Type
REMARK                         _______ _______ _______ _____ _____    ______ ____
ROOT
ATOM      1  C   UNL     1      -1.071   2.279  -3.983  0.00  0.00    +0.033 C 
ATOM      2  C   UNL     1      -2.146   2.549  -2.945  0.00  0.00    +0.059 C 
ATOM      3  C   UNL     1      -1.592   2.332  -1.548  0.00  0.00    +0.017 C 
ATOM      4  C   UNL     1      -0.642   1.411  -1.325  0.00  0.00    +0.037 C 
ATOM      5  C   UNL     1      -0.013   1.086   0.008  0.00  0.00    +0.143 C 
ATOM      6  N   UNL     1      -0.691   1.665   1.148  0.00  0.00    -0.331 N 
ATOM      7  C   UNL     1      -0.745   3.047   1.324  0.00  0.00    +0.049 A 
ATOM      8  C   UNL     1      -0.124   3.666   2.397  0.00  0.00    +0.025 A 
ATOM      9  C   UNL     1      -0.165   5.046   2.502  0.00  0.00    +0.002 A 
ATOM     10  C   UNL     1      -0.816   5.802   1.546  0.00  0.00    +0.002 A 
ATOM     11  C   UNL     1      -1.453   5.185   0.482  0.00  0.00    +0.025 A 
ATOM     12  C   UNL     1      -1.432   3.805   0.387  0.00  0.00    +0.052 A 
ATOM     13  N   UNL     1      -2.144   3.116  -0.587  0.00  0.00    -0.316 N 
ATOM     14  C   UNL     1      -0.137   0.641  -2.400  0.00  0.00    +0.163 C 
ATOM     15  O   UNL     1       0.712  -0.199  -2.171  0.00  0.00    -0.292 OA
ATOM     16  C   UNL     1      -0.610   0.826  -3.810  0.00  0.00    +0.088 C 
ATOM     17  H   UNL     1      -1.173   1.013   1.891  0.00  0.00    +0.147 HD
ATOM     18  H   UNL     1      -3.236   3.243  -0.542  0.00  0.00    +0.152 HD
ENDROOT
BRANCH   5  19
ATOM     19  C   UNL     1       1.411   1.581  -0.003  0.00  0.00    +0.059 A 
ATOM     20  C   UNL     1       1.784   2.549  -0.860  0.00  0.00    +0.205 A 
ATOM     21  O   UNL     1       3.030   3.030  -0.911  0.00  0.00    -0.462 OA
ATOM     22  C   UNL     1       4.016   2.573  -0.111  0.00  0.00    +0.138 A 
ATOM     23  C   UNL     1       5.303   3.091  -0.194  0.00  0.00    +0.048 A 
ATOM     24  C   UNL     1       6.293   2.608   0.634  0.00  0.00    +0.023 A 
ATOM     25  C   UNL     1       6.021   1.604   1.554  0.00  0.00    +0.042 A 
ATOM     26  C   UNL     1       4.751   1.076   1.651  0.00  0.00    +0.035 A 
ATOM     27  C   UNL     1       3.741   1.558   0.819  0.00  0.00    +0.066 A 
ATOM     28  C   UNL     1       2.367   1.024   0.887  0.00  0.00    +0.198 A 
ATOM     29  O   UNL     1       2.066   0.143   1.673  0.00  0.00    -0.287 OA
ATOM     30 CL   UNL     1       7.285   1.011   2.585  0.00  0.00    -0.084 Cl
ENDBRANCH   5  19
BRANCH   1  35
ATOM     31  C   UNL     1      -3.242   1.913  -7.050  0.00  0.00    +0.000 A 
ATOM     32  C   UNL     1      -2.669   2.835  -7.906  0.00  0.00    +0.001 A 
ATOM     33  C   UNL     1      -1.578   3.577  -7.494  0.00  0.00    +0.020 A 
ATOM     34  C   UNL     1      -1.064   3.401  -6.221  0.00  0.00    +0.044 A 
ATOM     35  C   UNL     1      -1.634   2.475  -5.367  0.00  0.00    -0.025 A 
ATOM     36  C   UNL     1      -2.724   1.733  -5.781  0.00  0.00    +0.005 A 
ATOM     37 CL   UNL     1       0.301   4.339  -5.699  0.00  0.00    -0.083 Cl
ENDBRANCH   1  35
TORSDOF 2
