REMARK  Name = ZINC38678940
REMARK  11 active torsions:
REMARK  status: ('A' for Active; 'I' for Inactive)
REMARK    1  A    between atoms: C_1  and  C_2
REMARK    2  A    between atoms: C_2  and  C_3
REMARK    3  A    between atoms: C_3  and  C_4
REMARK    4  A    between atoms: C_4  and  O_5
REMARK    5  A    between atoms: O_5  and  C_6
REMARK    6  A    between atoms: C_11  and  C_12
REMARK    7  A    between atoms: C_12  and  O_14
REMARK    8  A    between atoms: O_14  and  C_15
REMARK    9  A    between atoms: C_22  and  N_35
REMARK   10  A    between atoms: C_23  and  C_33
REMARK   11  A    between atoms: C_24  and  C_26
REMARK                            x       y       z     vdW  Elec       q    Type
REMARK                         _______ _______ _______ _____ _____    ______ ____
ROOT
ATOM      1  C   UNL     1       3.912  -3.087   6.604  0.00  0.00    +0.135 A 
ATOM      2  C   UNL     1       3.665  -1.741   6.375  0.00  0.00    +0.047 A 
ATOM      3  C   UNL     1       4.134  -0.793   7.263  0.00  0.00    +0.012 A 
ATOM      4  C   UNL     1       4.850  -1.179   8.382  0.00  0.00    +0.008 A 
ATOM      5  C   UNL     1       5.100  -2.523   8.615  0.00  0.00    +0.138 A 
ATOM      6  C   UNL     1       4.624  -3.478   7.726  0.00  0.00    +0.093 A 
ATOM      7  O   UNL     1       5.800  -2.921   9.706  0.00  0.00    -0.441 OA
ATOM      8  C   UNL     1       5.930  -2.095  10.757  0.00  0.00    +0.199 C 
ATOM      9  C   UNL     1       5.731  -0.760  10.649  0.00  0.00    +0.098 C 
ATOM     10  C   UNL     1       5.353  -0.130   9.337  0.00  0.00    +0.099 C 
ENDROOT
BRANCH  10  11
ATOM     11  C   UNL     1       6.561   0.548   8.743  0.00  0.00    -0.021 A 
ATOM     12  C   UNL     1       7.685  -0.192   8.428  0.00  0.00    +0.005 A 
ATOM     13  C   UNL     1       8.792   0.430   7.883  0.00  0.00    +0.000 A 
ATOM     14  C   UNL     1       8.776   1.793   7.652  0.00  0.00    +0.001 A 
ATOM     15  C   UNL     1       7.653   2.534   7.967  0.00  0.00    +0.015 A 
ATOM     16  C   UNL     1       6.542   1.911   8.508  0.00  0.00    +0.022 A 
ATOM     17 BR   UNL     1       5.003   2.924   8.932  0.00  0.00    -0.050 Br
ENDBRANCH  10  11
BRANCH   8  18
ATOM     18  N   UNL     1       6.274  -2.620  11.978  0.00  0.00    -0.328 N 
ATOM     19  H   UNL     1       6.420  -3.574  12.072  0.00  0.00    +0.145 HD
ATOM     20  H   UNL     1       6.371  -2.036  12.747  0.00  0.00    +0.145 HD
ENDBRANCH   8  18
BRANCH   9  21
ATOM     21  C   UNL     1       5.884   0.069  11.806  0.00  0.00    +0.101 C 
ATOM     22  N   UNL     1       6.006   0.726  12.725  0.00  0.00    -0.191 NA
ENDBRANCH   9  21
BRANCH   1  23
ATOM     23  O   UNL     1       3.451  -4.022   5.731  0.00  0.00    -0.422 OA
BRANCH  23  24
ATOM     24  C   UNL     1       2.355  -4.726   6.078  0.00  0.00    +0.348 C 
ATOM     25  O   UNL     1       1.863  -4.580   7.179  0.00  0.00    -0.244 OA
BRANCH  24  31
ATOM     26  C   UNL     1       0.614  -6.406   5.477  0.00  0.00    +0.134 A 
ATOM     27  C   UNL     1       0.053  -7.290   4.566  0.00  0.00    +0.046 A 
ATOM     28  C   UNL     1       0.620  -7.448   3.317  0.00  0.00    +0.004 A 
ATOM     29  C   UNL     1       1.750  -6.728   2.963  0.00  0.00    +0.001 A 
ATOM     30  C   UNL     1       2.320  -5.847   3.855  0.00  0.00    +0.018 A 
ATOM     31  C   UNL     1       1.754  -5.672   5.121  0.00  0.00    +0.101 A 
BRANCH  26  32
ATOM     32  O   UNL     1       0.059  -6.250   6.705  0.00  0.00    -0.491 OA
BRANCH  32  33
ATOM     33  C   UNL     1      -1.101  -7.031   6.997  0.00  0.00    +0.229 C 
BRANCH  33  34
ATOM     34  C   UNL     1      -1.581  -6.721   8.416  0.00  0.00    +0.041 C 
BRANCH  34  36
ATOM     35  C   UNL     1      -3.303  -7.248  10.148  0.00  0.00    +0.004 C 
ATOM     36  C   UNL     1      -2.823  -7.558   8.729  0.00  0.00    -0.000 C 
ENDBRANCH  34  36
ENDBRANCH  33  34
ENDBRANCH  32  33
ENDBRANCH  26  32
ENDBRANCH  24  31
ENDBRANCH  23  24
ENDBRANCH   1  23
TORSDOF 10
