REMARK  Name = ZINC02663034
REMARK  6 active torsions:
REMARK  status: ('A' for Active; 'I' for Inactive)
REMARK    1  A    between atoms: C_1  and  C_2
REMARK    2  A    between atoms: C_2  and  C_3
REMARK    3  A    between atoms: C_7  and  C_14
REMARK    4  A    between atoms: C_14  and  N_59
REMARK    5  A    between atoms: N_17  and  S_20
REMARK    6  A    between atoms: S_20  and  C_23
REMARK                            x       y       z     vdW  Elec       q    Type
REMARK                         _______ _______ _______ _____ _____    ______ ____
ROOT
ATOM      1  C   UNL     1       4.352   0.280  -3.653  0.00  0.00    -0.061 C 
ATOM      2  C   UNL     1       4.976  -0.067  -2.297  0.00  0.00    +0.091 C 
ATOM      3  N   UNL     1       4.082  -1.002  -1.597  0.00  0.00    -0.180 NA
ATOM      4  C   UNL     1       3.634  -2.206  -2.315  0.00  0.00    +0.091 C 
ATOM      5  C   UNL     1       3.058  -1.771  -3.672  0.00  0.00    -0.061 C 
ATOM      6  N   UNL     1       4.080  -0.976  -4.386  0.00  0.00    +0.384 N 
ATOM      7  H   UNL     1       4.948  -1.522  -4.443  0.00  0.00    -0.081 HD
ENDROOT
BRANCH   3   8
ATOM      8  S   UNL     1       3.598  -0.712  -0.040  0.00  0.00    +0.061 S 
ATOM      9  O   UNL     1       4.581   0.136   0.539  0.00  0.00    -0.153 OA
ATOM     10  O   UNL     1       3.252  -1.971   0.519  0.00  0.00    -0.153 OA
BRANCH   8  11
ATOM     11  C   UNL     1       2.110   0.228  -0.124  0.00  0.00    +0.109 A 
ATOM     12  C   UNL     1       0.888  -0.418  -0.167  0.00  0.00    +0.032 A 
ATOM     13  C   UNL     1      -0.282   0.315  -0.234  0.00  0.00    +0.051 A 
ATOM     14  C   UNL     1      -0.233   1.701  -0.259  0.00  0.00    +0.162 A 
ATOM     15  C   UNL     1       0.996   2.350  -0.213  0.00  0.00    +0.164 A 
ATOM     16  C   UNL     1       2.166   1.608  -0.147  0.00  0.00    +0.078 A 
ATOM     17  O   UNL     1       1.066   3.709  -0.229  0.00  0.00    -0.485 OA
ATOM     18  C   UNL     1      -0.102   4.410  -0.671  0.00  0.00    +0.270 C 
ATOM     19  C   UNL     1      -1.324   3.795   0.024  0.00  0.00    +0.270 C 
ATOM     20  O   UNL     1      -1.392   2.410  -0.334  0.00  0.00    -0.485 OA
ENDBRANCH   8  11
ENDBRANCH   3   8
BRANCH   6  21
ATOM     21  C   UNL     1       3.615  -0.670  -5.755  0.00  0.00    -0.042 C 
BRANCH  21  26
ATOM     22  C   UNL     1       6.137  -4.732  -7.748  0.00  0.00    -0.044 A 
ATOM     23  C   UNL     1       6.536  -3.559  -7.122  0.00  0.00    +0.004 A 
ATOM     24  C   UNL     1       5.608  -2.652  -6.694  0.00  0.00    +0.012 A 
ATOM     25  C   UNL     1       4.247  -2.905  -6.894  0.00  0.00    +0.019 A 
ATOM     26  C   UNL     1       3.227  -1.955  -6.440  0.00  0.00    -0.047 A 
ATOM     27  C   UNL     1       1.923  -2.262  -6.658  0.00  0.00    +0.094 A 
ATOM     28  C   UNL     1       1.586  -3.472  -7.302  0.00  0.00    +0.337 A 
ATOM     29  O   UNL     1       0.412  -3.736  -7.492  0.00  0.00    -0.245 OA
ATOM     30  O   UNL     1       2.525  -4.340  -7.709  0.00  0.00    -0.422 OA
ATOM     31  C   UNL     1       3.839  -4.094  -7.522  0.00  0.00    +0.140 A 
ATOM     32  C   UNL     1       4.800  -5.003  -7.949  0.00  0.00    +0.050 A 
BRANCH  22  34
ATOM     33  C   UNL     1       7.586  -5.390  -9.649  0.00  0.00    +0.009 C 
ATOM     34  C   UNL     1       7.176  -5.720  -8.213  0.00  0.00    +0.032 C 
ENDBRANCH  22  34
ENDBRANCH  21  26
ENDBRANCH   6  21
TORSDOF 5
