REMARK  Name = ZINC12071268
REMARK  11 active torsions:
REMARK  status: ('A' for Active; 'I' for Inactive)
REMARK    1  A    between atoms: C_1  and  C_2
REMARK    2  A    between atoms: C_2  and  C_3
REMARK    3  A    between atoms: C_2  and  N_58
REMARK    4  A    between atoms: C_9  and  N_14
REMARK    5  A    between atoms: C_10  and  C_11
REMARK    6  A    between atoms: C_15  and  C_17
REMARK    7  A    between atoms: C_17  and  C_18
REMARK    8  A    between atoms: C_21  and  S_24
REMARK    9  A    between atoms: S_24  and  C_25
REMARK   10  A    between atoms: C_25  and  C_26
REMARK   11  A    between atoms: C_25  and  C_27
REMARK                            x       y       z     vdW  Elec       q    Type
REMARK                         _______ _______ _______ _____ _____    ______ ____
ROOT
ATOM      1  C   UNL     1       1.259   8.379   7.251  0.00  0.00    -0.073 C 
ATOM      2  C   UNL     1       1.720   8.578   5.805  0.00  0.00    +0.018 C 
ATOM      3  C   UNL     1       1.666   7.228   5.099  0.00  0.00    -0.027 A 
ATOM      4  C   UNL     1       1.608   6.086   5.822  0.00  0.00    -0.021 A 
ATOM      5  S   UNL     1       1.559   4.792   4.619  0.00  0.00    -0.079 S 
ATOM      6  C   UNL     1       1.615   5.749   3.175  0.00  0.00    +0.084 A 
ATOM      7  C   UNL     1       1.677   7.049   3.660  0.00  0.00    +0.068 A 
ATOM      8  C   UNL     1       1.593   5.980   7.315  0.00  0.00    -0.035 C 
ATOM      9  N   UNL     1       2.036   7.284   7.867  0.00  0.00    +0.384 N 
ATOM     10  H   UNL     1       3.031   7.417   7.652  0.00  0.00    -0.081 HD
ENDROOT
BRANCH   7  11
ATOM     11  C   UNL     1       1.745   8.198   2.751  0.00  0.00    +0.244 C 
ATOM     12  O   UNL     1       0.720   8.729   2.363  0.00  0.00    -0.270 OA
ATOM     13  N   UNL     1       2.942   8.666   2.345  0.00  0.00    -0.325 N 
ATOM     14  H   UNL     1       3.758   8.243   2.654  0.00  0.00    +0.145 HD
ATOM     15  H   UNL     1       2.987   9.426   1.744  0.00  0.00    +0.145 HD
ENDBRANCH   7  11
BRANCH   6  16
ATOM     16  N   UNL     1       1.607   5.321   1.856  0.00  0.00    -0.279 N 
ATOM     17  C   UNL     1       1.549   4.004   1.576  0.00  0.00    +0.222 C 
ATOM     18  O   UNL     1       1.504   3.194   2.477  0.00  0.00    -0.275 OA
ATOM     19  H   UNL     1       1.643   5.969   1.136  0.00  0.00    +0.155 HD
BRANCH  17  20
ATOM     20  C   UNL     1       1.540   3.539   0.143  0.00  0.00    +0.131 C 
BRANCH  20  21
ATOM     21  C   UNL     1       1.471   2.034   0.103  0.00  0.00    -0.039 A 
ATOM     22  C   UNL     1       0.242   1.400   0.075  0.00  0.00    +0.005 A 
ATOM     23  C   UNL     1       0.175   0.021   0.040  0.00  0.00    +0.015 A 
ATOM     24  C   UNL     1       1.344  -0.730   0.032  0.00  0.00    +0.008 A 
ATOM     25  C   UNL     1       2.577  -0.089   0.060  0.00  0.00    +0.015 A 
ATOM     26  C   UNL     1       2.636   1.290   0.096  0.00  0.00    +0.005 A 
BRANCH  24  27
ATOM     27  S   UNL     1       1.264  -2.489  -0.013  0.00  0.00    -0.122 S 
BRANCH  27  28
ATOM     28  C   UNL     1       1.081  -2.875  -1.776  0.00  0.00    +0.045 C 
ATOM     29  C   UNL     1       2.365  -2.495  -2.517  0.00  0.00    +0.019 C 
ATOM     30  C   UNL     1       0.819  -4.373  -1.946  0.00  0.00    +0.019 C 
ENDBRANCH  27  28
ENDBRANCH  24  27
ENDBRANCH  20  21
ENDBRANCH  17  20
ENDBRANCH   6  16
BRANCH   9  32
ATOM     31  C   UNL     1       0.385   7.083   9.696  0.00  0.00    -0.014 C 
ATOM     32  C   UNL     1       1.856   7.299   9.335  0.00  0.00    -0.074 C 
ATOM     33  C   UNL     1       2.701   6.182   9.951  0.00  0.00    -0.014 C 
ENDBRANCH   9  32
TORSDOF 7
