REMARK  Name = ZINC64502976
REMARK  3 active torsions:
REMARK  status: ('A' for Active; 'I' for Inactive)
REMARK    1  A    between atoms: C_4  and  N_7
REMARK    2  A    between atoms: C_12  and  N_15
REMARK    3  A    between atoms: C_21  and  C_23
REMARK                            x       y       z     vdW  Elec       q    Type
REMARK                         _______ _______ _______ _____ _____    ______ ____
ROOT
ATOM      1  N   UNL     1       4.795  -3.972   0.778  0.00  0.00    -0.280 NA
ATOM      2  C   UNL     1       5.879  -4.514   1.608  0.00  0.00    +0.105 C 
ATOM      3  C   UNL     1       6.017  -6.017   1.345  0.00  0.00    +0.123 C 
ATOM      4  N   UNL     1       4.704  -6.649   1.546  0.00  0.00    -0.297 N 
ATOM      5  C   UNL     1       3.542  -6.074   0.852  0.00  0.00    +0.123 C 
ATOM      6  C   UNL     1       3.501  -4.569   1.135  0.00  0.00    +0.105 C 
ATOM      7  C   UNL     1       4.569  -7.726   2.344  0.00  0.00    +0.242 C 
ATOM      8  O   UNL     1       5.539  -8.188   2.909  0.00  0.00    -0.273 OA
ENDROOT
BRANCH   7   9
ATOM      9  C   UNL     1       3.215  -8.358   2.536  0.00  0.00    +0.190 C 
ATOM     10  C   UNL     1       2.268  -7.373   3.185  0.00  0.00    +0.016 C 
ATOM     11  C   UNL     1       1.891  -7.932   4.357  0.00  0.00    -0.002 A 
ATOM     12  C   UNL     1       0.996  -7.482   5.431  0.00  0.00    +0.029 A 
ATOM     13  C   UNL     1       0.812  -8.280   6.508  0.00  0.00    +0.042 A 
ATOM     14  C   UNL     1       1.452  -9.522   6.624  0.00  0.00    +0.022 A 
ATOM     15  C   UNL     1       2.287 -10.003   5.679  0.00  0.00    +0.027 A 
ATOM     16  C   UNL     1       2.554  -9.247   4.504  0.00  0.00    +0.043 A 
ATOM     17  N   UNL     1       3.312  -9.493   3.461  0.00  0.00    -0.370 N 
ATOM     18 CL   UNL     1      -0.245  -7.751   7.780  0.00  0.00    -0.084 Cl
ATOM     19  H   UNL     1       3.847 -10.290   3.324  0.00  0.00    +0.161 HD
ENDBRANCH   7   9
BRANCH   1  25
ATOM     20  N   UNL     1       3.621  -0.650  -0.037  0.00  0.00    -0.200 N 
ATOM     21  C   UNL     1       4.771   0.047  -0.142  0.00  0.00    +0.257 C 
ATOM     22  O   UNL     1       4.752   1.257  -0.261  0.00  0.00    -0.269 OA
ATOM     23  C   UNL     1       6.052  -0.684  -0.109  0.00  0.00    +0.068 C 
ATOM     24  C   UNL     1       6.047  -1.927   0.381  0.00  0.00    +0.014 C 
ATOM     25  C   UNL     1       4.743  -2.507   0.871  0.00  0.00    +0.166 C 
ATOM     26  N   UNL     1       3.635  -2.008   0.058  0.00  0.00    -0.212 NA
ATOM     27  H   UNL     1       3.640  -2.435  -0.856  0.00  0.00    +0.147 HD
BRANCH  20  31
ATOM     28  C   UNL     1      -0.016   1.379   0.010  0.00  0.00    +0.000 A 
ATOM     29  C   UNL     1       1.018   1.798   0.827  0.00  0.00    +0.002 A 
ATOM     30  C   UNL     1       2.225   1.127   0.814  0.00  0.00    +0.025 A 
ATOM     31  C   UNL     1       2.400   0.031  -0.021  0.00  0.00    +0.053 A 
ATOM     32  C   UNL     1       1.359  -0.387  -0.841  0.00  0.00    +0.025 A 
ATOM     33  C   UNL     1       0.154   0.289  -0.823  0.00  0.00    +0.002 A 
ENDBRANCH  20  31
ENDBRANCH   1  25
TORSDOF 3
