REMARK  Name = ZINC12368215
REMARK  7 active torsions:
REMARK  status: ('A' for Active; 'I' for Inactive)
REMARK    1  A    between atoms: C_4  and  C_7
REMARK    2  A    between atoms: C_8  and  C_9
REMARK    3  A    between atoms: N_11  and  N_12
REMARK    4  A    between atoms: C_13  and  C_15
REMARK    5  A    between atoms: C_15  and  S_16
REMARK    6  A    between atoms: S_16  and  C_17
REMARK    7  A    between atoms: C_17  and  C_18
REMARK                            x       y       z     vdW  Elec       q    Type
REMARK                         _______ _______ _______ _____ _____    ______ ____
ROOT
ATOM      1  N   UNL     1       0.631   1.686  -2.127  0.00  0.00    -0.233 N 
ATOM      2  C   UNL     1       1.770   1.062  -2.489  0.00  0.00    +0.239 C 
ATOM      3  O   UNL     1       1.935  -0.107  -2.209  0.00  0.00    -0.273 OA
ATOM      4  H   UNL     1       0.499   2.621  -2.351  0.00  0.00    +0.173 HD
ENDROOT
BRANCH   1   7
ATOM      5  C   UNL     1      -1.501   1.609  -1.072  0.00  0.00    +0.253 C 
ATOM      6  O   UNL     1      -1.667   2.781  -1.353  0.00  0.00    -0.269 OA
ATOM      7  N   UNL     1      -0.360   0.986  -1.429  0.00  0.00    -0.231 N 
ATOM      8  H   UNL     1      -0.228   0.051  -1.205  0.00  0.00    +0.173 HD
BRANCH   5  10
ATOM      9  C   UNL     1      -3.619   1.528   0.129  0.00  0.00    +0.013 C 
ATOM     10  C   UNL     1      -2.540   0.875  -0.347  0.00  0.00    +0.069 C 
BRANCH   9  14
ATOM     11  C   UNL     1      -3.691   5.770   0.154  0.00  0.00    +0.000 A 
ATOM     12  C   UNL     1      -4.809   5.065  -0.256  0.00  0.00    +0.001 A 
ATOM     13  C   UNL     1      -4.793   3.686  -0.267  0.00  0.00    +0.008 A 
ATOM     14  C   UNL     1      -3.644   3.000   0.138  0.00  0.00    -0.025 A 
ATOM     15  C   UNL     1      -2.520   3.720   0.555  0.00  0.00    +0.008 A 
ATOM     16  C   UNL     1      -2.549   5.098   0.555  0.00  0.00    +0.001 A 
ENDBRANCH   9  14
ENDBRANCH   5  10
ENDBRANCH   1   7
BRANCH   2  17
ATOM     17  C   UNL     1       2.837   1.815  -3.240  0.00  0.00    +0.166 C 
BRANCH  17  18
ATOM     18  S   UNL     1       4.234   0.709  -3.579  0.00  0.00    -0.147 S 
BRANCH  18  19
ATOM     19  C   UNL     1       5.414   1.754  -4.476  0.00  0.00    +0.105 C 
BRANCH  19  20
ATOM     20  C   UNL     1       6.638   0.946  -4.823  0.00  0.00    -0.030 A 
ATOM     21  C   UNL     1       6.698   0.265  -6.000  0.00  0.00    +0.005 A 
ATOM     22  C   UNL     1       7.821  -0.487  -6.337  0.00  0.00    +0.001 A 
ATOM     23  C   UNL     1       8.892  -0.562  -5.500  0.00  0.00    +0.008 A 
ATOM     24  C   UNL     1       8.867   0.128  -4.277  0.00  0.00    -0.018 A 
ATOM     25  C   UNL     1       7.726   0.897  -3.935  0.00  0.00    -0.014 A 
ATOM     26  C   UNL     1       7.700   1.584  -2.709  0.00  0.00    +0.009 A 
ATOM     27  C   UNL     1       8.770   1.508  -1.872  0.00  0.00    +0.001 A 
ATOM     28  C   UNL     1       9.894   0.755  -2.209  0.00  0.00    +0.001 A 
ATOM     29  C   UNL     1       9.953   0.074  -3.386  0.00  0.00    +0.008 A 
ENDBRANCH  19  20
ENDBRANCH  18  19
ENDBRANCH  17  18
ENDBRANCH   2  17
TORSDOF 7
