REMARK  Name = ZINC29617900
REMARK  12 active torsions:
REMARK  status: ('A' for Active; 'I' for Inactive)
REMARK    1  A    between atoms: C_1  and  C_2
REMARK    2  A    between atoms: C_2  and  N_3
REMARK    3  A    between atoms: C_6  and  N_9
REMARK    4  A    between atoms: C_10  and  C_12
REMARK    5  A    between atoms: C_12  and  S_13
REMARK    6  A    between atoms: S_13  and  C_14
REMARK    7  A    between atoms: C_17  and  S_19
REMARK    8  A    between atoms: S_19  and  C_20
REMARK    9  A    between atoms: C_20  and  C_21
REMARK   10  A    between atoms: C_24  and  C_27
REMARK   11  A    between atoms: C_27  and  C_28
REMARK   12  A    between atoms: C_27  and  C_29
REMARK                            x       y       z     vdW  Elec       q    Type
REMARK                         _______ _______ _______ _____ _____    ______ ____
ROOT
ATOM      1  C   UNL     1       1.280  -7.217  -1.777  0.00  0.00    +0.160 A 
ATOM      2  N   UNL     1       1.283  -6.648  -0.587  0.00  0.00    -0.134 NA
ATOM      3  N   UNL     1       1.266  -5.277  -0.484  0.00  0.00    -0.134 NA
ATOM      4  C   UNL     1       1.246  -4.536  -1.575  0.00  0.00    +0.160 A 
ATOM      5  S   UNL     1       1.243  -5.788  -2.849  0.00  0.00    -0.033 S 
ENDROOT
BRANCH   1   6
ATOM      6  S   UNL     1       1.298  -8.928  -2.198  0.00  0.00    -0.088 S 
BRANCH   6   7
ATOM      7  C   UNL     1       1.325  -9.774  -0.593  0.00  0.00    +0.172 C 
BRANCH   7   9
ATOM      8  N   UNL     1       1.363 -12.100   0.246  0.00  0.00    -0.312 N 
ATOM      9  C   UNL     1       1.342 -11.265  -0.811  0.00  0.00    +0.223 C 
ATOM     10  O   UNL     1       1.337 -11.713  -1.938  0.00  0.00    -0.275 OA
ATOM     11  H   UNL     1       1.368 -11.694   1.268  0.00  0.00    +0.149 HD
BRANCH   8  15
ATOM     12  N   UNL     1       0.578 -16.190   0.884  0.00  0.00    +0.380 N 
ATOM     13  C   UNL     1       1.971 -15.754   1.047  0.00  0.00    -0.077 C 
ATOM     14  C   UNL     1       2.011 -14.237   1.248  0.00  0.00    +0.003 C 
ATOM     15  C   UNL     1       1.381 -13.550   0.034  0.00  0.00    +0.069 C 
ATOM     16  C   UNL     1      -0.053 -14.058  -0.143  0.00  0.00    +0.003 C 
ATOM     17  C   UNL     1      -0.034 -15.580  -0.303  0.00  0.00    -0.077 C 
ATOM     18  H   UNL     1       0.015 -15.849   1.765  0.00  0.00    -0.082 HD
BRANCH  12  20
ATOM     19  C   UNL     1      -0.925 -18.065   0.410  0.00  0.00    -0.017 C 
ATOM     20  C   UNL     1       0.489 -17.655   0.827  0.00  0.00    -0.082 C 
ENDBRANCH  12  20
ENDBRANCH   8  15
ENDBRANCH   7   9
ENDBRANCH   6   7
ENDBRANCH   1   6
BRANCH   4  21
ATOM     21  S   UNL     1       1.220  -2.782  -1.734  0.00  0.00    -0.092 S 
BRANCH  21  22
ATOM     22  C   UNL     1       1.229  -2.186  -0.021  0.00  0.00    +0.111 C 
BRANCH  22  23
ATOM     23  C   UNL     1       1.208  -0.679  -0.013  0.00  0.00    -0.037 A 
ATOM     24  C   UNL     1       0.002  -0.004   0.002  0.00  0.00    +0.005 A 
ATOM     25  C   UNL     1      -0.017   1.378   0.010  0.00  0.00    +0.004 A 
ATOM     26  C   UNL     1       1.171   2.086   0.002  0.00  0.00    -0.045 A 
ATOM     27  C   UNL     1       2.377   1.411  -0.015  0.00  0.00    +0.004 A 
ATOM     28  C   UNL     1       2.396   0.029  -0.022  0.00  0.00    +0.005 A 
BRANCH  26  29
ATOM     29  C   UNL     1       1.151   3.592   0.010  0.00  0.00    +0.013 C 
ATOM     30  C   UNL     1       1.876   4.106   1.255  0.00  0.00    +0.012 C 
ATOM     31  C   UNL     1       1.853   4.119  -1.243  0.00  0.00    +0.012 C 
ENDBRANCH  26  29
ENDBRANCH  22  23
ENDBRANCH  21  22
ENDBRANCH   4  21
TORSDOF 9
