REMARK  Name = ZINC62862383
REMARK  7 active torsions:
REMARK  status: ('A' for Active; 'I' for Inactive)
REMARK    1  A    between atoms: C_1  and  C_2
REMARK    2  A    between atoms: C_2  and  C_3
REMARK    3  A    between atoms: C_3  and  C_9
REMARK    4  A    between atoms: C_9  and  N_10
REMARK    5  A    between atoms: N_10  and  C_11
REMARK    6  A    between atoms: N_10  and  C_12
REMARK    7  A    between atoms: C_12  and  C_13
REMARK                            x       y       z     vdW  Elec       q    Type
REMARK                         _______ _______ _______ _____ _____    ______ ____
ROOT
ATOM      1  C   UNL     1      -0.070   0.344   2.433  0.00  0.00    +0.089 C 
ENDROOT
BRANCH   1   2
ATOM      2  C   UNL     1       0.141   0.824   0.996  0.00  0.00    -0.032 C 
ATOM      3  C   UNL     1       1.233   1.898   0.969  0.00  0.00    +0.004 C 
ATOM      4  C   UNL     1       1.490   2.315  -0.482  0.00  0.00    -0.019 C 
ATOM      5  C   UNL     1       1.871   1.080  -1.302  0.00  0.00    -0.083 C 
ATOM      6  N   UNL     1       0.777   0.103  -1.258  0.00  0.00    +0.379 N 
ATOM      7  C   UNL     1       0.573  -0.355   0.121  0.00  0.00    -0.075 C 
ATOM      8  H   UNL     1      -0.070   0.532  -1.598  0.00  0.00    -0.086 HD
ATOM      9  H   UNL     1       1.009  -0.686  -1.843  0.00  0.00    -0.086 HD
BRANCH   2  11
ATOM     10  C   UNL     1      -1.563   2.626   1.294  0.00  0.00    +0.004 C 
ATOM     11  C   UNL     1      -1.165   1.410   0.456  0.00  0.00    +0.003 C 
ENDBRANCH   2  11
ENDBRANCH   1   2
BRANCH   1  12
ATOM     12  N   UNL     1      -1.223  -0.565   2.481  0.00  0.00    -0.301 NA
ATOM     13  C   UNL     1      -0.817  -1.946   2.186  0.00  0.00    +0.105 C 
BRANCH  12  14
ATOM     14  C   UNL     1      -1.904  -0.482   3.780  0.00  0.00    +0.120 C 
BRANCH  14  15
ATOM     15  C   UNL     1      -3.243  -1.168   3.690  0.00  0.00    -0.019 A 
ATOM     16  C   UNL     1      -4.329  -0.497   3.160  0.00  0.00    +0.006 A 
ATOM     17  C   UNL     1      -5.557  -1.127   3.077  0.00  0.00    +0.000 A 
ATOM     18  C   UNL     1      -5.699  -2.427   3.523  0.00  0.00    +0.001 A 
ATOM     19  C   UNL     1      -4.614  -3.099   4.053  0.00  0.00    +0.015 A 
ATOM     20  C   UNL     1      -3.383  -2.471   4.132  0.00  0.00    +0.022 A 
ATOM     21 BR   UNL     1      -1.896  -3.392   4.851  0.00  0.00    -0.050 Br
ENDBRANCH  14  15
ENDBRANCH  12  14
ENDBRANCH   1  12
TORSDOF 5
