REMARK  Name = ZINC01424688
REMARK  5 active torsions:
REMARK  status: ('A' for Active; 'I' for Inactive)
REMARK    1  A    between atoms: C_1  and  C_2
REMARK    2  A    between atoms: C_5  and  N_8
REMARK    3  A    between atoms: C_13  and  C_25
REMARK    4  A    between atoms: C_15  and  C_23
REMARK    5  A    between atoms: C_16  and  N_22
REMARK                            x       y       z     vdW  Elec       q    Type
REMARK                         _______ _______ _______ _____ _____    ______ ____
ROOT
ATOM      1  N   UNL     1       0.041  -4.415  -0.482  0.00  0.00    -0.209 N 
ATOM      2  C   UNL     1       0.063  -4.996   0.746  0.00  0.00    +0.232 C 
ATOM      3  O   UNL     1      -0.139  -4.455   1.812  0.00  0.00    -0.274 OA
ATOM      4  C   UNL     1       0.385  -6.437   0.516  0.00  0.00    +0.113 C 
ATOM      5  C   UNL     1      -0.174  -7.487   1.435  0.00  0.00    +0.111 C 
ATOM      6  C   UNL     1       0.237  -8.856   0.964  0.00  0.00    +0.067 C 
ATOM      7  C   UNL     1       0.621  -9.201  -0.286  0.00  0.00    +0.074 C 
ATOM      8  S   UNL     1       0.682  -8.030  -1.614  0.00  0.00    -0.096 S 
ATOM      9  C   UNL     1      -0.253  -6.649  -0.892  0.00  0.00    +0.152 C 
ATOM     10  C   UNL     1       0.035  -5.308  -1.505  0.00  0.00    +0.240 C 
ATOM     11  O   UNL     1       0.227  -5.072  -2.679  0.00  0.00    -0.274 OA
ENDROOT
BRANCH   1  16
ATOM     12  C   UNL     1      -0.044   1.206  -1.263  0.00  0.00    +0.044 C 
ATOM     13  C   UNL     1      -0.021  -0.286  -1.056  0.00  0.00    -0.050 A 
ATOM     14  C   UNL     1      -0.027  -1.135  -2.147  0.00  0.00    +0.005 A 
ATOM     15  C   UNL     1      -0.007  -2.503  -1.961  0.00  0.00    +0.024 A 
ATOM     16  C   UNL     1       0.021  -3.026  -0.675  0.00  0.00    +0.044 A 
ATOM     17  C   UNL     1       0.027  -2.172   0.419  0.00  0.00    +0.024 A 
ATOM     18  C   UNL     1       0.011  -0.804   0.226  0.00  0.00    +0.005 A 
ENDBRANCH   1  16
BRANCH   5  19
ATOM     19  C   UNL     1      -1.678  -7.394   1.444  0.00  0.00    +0.114 A 
ATOM     20  C   UNL     1      -2.427  -6.851   2.420  0.00  0.00    +0.045 A 
ATOM     21  C   UNL     1      -3.777  -6.977   2.019  0.00  0.00    +0.041 A 
ATOM     22  C   UNL     1      -3.772  -7.589   0.821  0.00  0.00    +0.195 A 
ATOM     23  O   UNL     1      -2.498  -7.834   0.475  0.00  0.00    -0.467 OA
ENDBRANCH   5  19
BRANCH   7  24
ATOM     24  N   UNL     1       0.976 -10.505  -0.535  0.00  0.00    -0.352 N 
ATOM     25  H   UNL     1       0.949 -11.160   0.180  0.00  0.00    +0.143 HD
ATOM     26  H   UNL     1       1.254 -10.771  -1.426  0.00  0.00    +0.143 HD
ENDBRANCH   7  24
BRANCH   6  27
ATOM     27  C   UNL     1       0.219  -9.902   1.941  0.00  0.00    +0.098 C 
ATOM     28  N   UNL     1       0.205 -10.732   2.717  0.00  0.00    -0.191 NA
ENDBRANCH   6  27
TORSDOF 4
