REMARK  Name = ZINC20829927
REMARK  10 active torsions:
REMARK  status: ('A' for Active; 'I' for Inactive)
REMARK    1  A    between atoms: C_1  and  C_2
REMARK    2  A    between atoms: N_7  and  S_9
REMARK    3  A    between atoms: S_9  and  C_12
REMARK    4  A    between atoms: C_15  and  N_18
REMARK    5  A    between atoms: C_19  and  C_21
REMARK    6  A    between atoms: C_21  and  S_22
REMARK    7  A    between atoms: S_22  and  C_23
REMARK    8  A    between atoms: C_26  and  C_31
REMARK    9  A    between atoms: N_27  and  C_28
REMARK   10  A    between atoms: C_28  and  C_29
REMARK                            x       y       z     vdW  Elec       q    Type
REMARK                         _______ _______ _______ _____ _____    ______ ____
ROOT
ATOM      1  N   UNL     1       0.445  -1.448   6.173  0.00  0.00    -0.285 N 
ATOM      2  C   UNL     1      -0.625  -2.178   6.546  0.00  0.00    +0.227 C 
ATOM      3  O   UNL     1      -1.476  -2.466   5.731  0.00  0.00    -0.275 OA
ATOM      4  H   UNL     1       1.258  -1.258   6.889  0.00  0.00    +0.155 HD
ENDROOT
BRANCH   1   8
ATOM      5  C   UNL     1       0.673   0.088   2.307  0.00  0.00    +0.106 A 
ATOM      6  C   UNL     1       1.825  -0.307   2.961  0.00  0.00    +0.030 A 
ATOM      7  C   UNL     1       1.754  -0.811   4.245  0.00  0.00    +0.025 A 
ATOM      8  C   UNL     1       0.521  -0.932   4.874  0.00  0.00    +0.034 A 
ATOM      9  C   UNL     1      -0.634  -0.539   4.212  0.00  0.00    +0.025 A 
ATOM     10  C   UNL     1      -0.555  -0.031   2.931  0.00  0.00    +0.030 A 
BRANCH   5  11
ATOM     11  S   UNL     1       0.769   0.737   0.671  0.00  0.00    +0.061 S 
ATOM     12  O   UNL     1      -0.501   0.519   0.072  0.00  0.00    -0.153 OA
ATOM     13  O   UNL     1       1.974   0.237   0.107  0.00  0.00    -0.153 OA
BRANCH  11  19
ATOM     14  C   UNL     1       3.704   4.604   2.153  0.00  0.00    +0.009 C 
ATOM     15  C   UNL     1       2.363   3.868   2.127  0.00  0.00    +0.002 C 
ATOM     16  C   UNL     1       1.221   4.886   2.084  0.00  0.00    +0.006 C 
ATOM     17  C   UNL     1      -0.121   4.150   2.092  0.00  0.00    +0.017 C 
ATOM     18  C   UNL     1      -0.218   3.262   0.843  0.00  0.00    +0.109 C 
ATOM     19  N   UNL     1       0.954   2.377   0.806  0.00  0.00    -0.176 NA
ATOM     20  C   UNL     1       2.293   2.976   0.884  0.00  0.00    +0.112 C 
ENDBRANCH  11  19
ENDBRANCH   5  11
ENDBRANCH   1   8
BRANCH   2  21
ATOM     21  C   UNL     1      -0.764  -2.635   7.975  0.00  0.00    +0.173 C 
BRANCH  21  22
ATOM     22  S   UNL     1      -2.294  -3.586   8.158  0.00  0.00    -0.077 S 
BRANCH  22  23
ATOM     23  C   UNL     1      -2.204  -3.982   9.873  0.00  0.00    +0.193 A 
ATOM     24  N   UNL     1      -1.247  -3.635  10.704  0.00  0.00    -0.122 NA
ATOM     25  N   UNL     1      -1.496  -4.091  11.880  0.00  0.00    -0.128 NA
ATOM     26  C   UNL     1      -2.628  -4.757  11.871  0.00  0.00    +0.167 A 
ATOM     27  N   UNL     1      -3.118  -4.703  10.586  0.00  0.00    -0.298 N 
BRANCH  26  28
ATOM     28  C   UNL     1      -3.259  -5.432  13.025  0.00  0.00    +0.037 A 
ATOM     29  C   UNL     1      -4.236  -6.414  12.827  0.00  0.00    +0.014 A 
ATOM     30  C   UNL     1      -4.795  -7.016  13.941  0.00  0.00    +0.020 A 
ATOM     31  C   UNL     1      -4.375  -6.631  15.201  0.00  0.00    +0.111 A 
ATOM     32  N   UNL     1      -3.451  -5.702  15.357  0.00  0.00    -0.263 NA
ATOM     33  C   UNL     1      -2.886  -5.104  14.329  0.00  0.00    +0.122 A 
ENDBRANCH  26  28
BRANCH  27  34
ATOM     34  C   UNL     1      -4.361  -5.297  10.088  0.00  0.00    +0.152 C 
BRANCH  34  35
ATOM     35  C   UNL     1      -4.065  -6.641   9.475  0.00  0.00    -0.013 C 
ATOM     36  C   UNL     1      -4.726  -7.701   9.870  0.00  0.00    +0.005 C 
ENDBRANCH  34  35
ENDBRANCH  27  34
ENDBRANCH  22  23
ENDBRANCH  21  22
ENDBRANCH   2  21
TORSDOF 9
