REMARK  Name = ZINC09278755
REMARK  8 active torsions:
REMARK  status: ('A' for Active; 'I' for Inactive)
REMARK    1  A    between atoms: C_1  and  C_2
REMARK    2  A    between atoms: C_6  and  C_15
REMARK    3  A    between atoms: C_13  and  C_14
REMARK    4  A    between atoms: C_15  and  C_16
REMARK    5  A    between atoms: C_16  and  N_17
REMARK    6  A    between atoms: N_17  and  C_18
REMARK    7  A    between atoms: C_18  and  N_20
REMARK    8  A    between atoms: N_20  and  C_21
REMARK                            x       y       z     vdW  Elec       q    Type
REMARK                         _______ _______ _______ _____ _____    ______ ____
ROOT
ATOM      1  C   UNL     1      -5.388   3.186   0.079  0.00  0.00    +0.059 C 
ENDROOT
BRANCH   1   7
ATOM      2  C   UNL     1       1.749   1.066  -0.358  0.00  0.00    +0.044 C 
ATOM      3  C   UNL     1       0.290   0.739  -0.171  0.00  0.00    -0.047 A 
ATOM      4  C   UNL     1      -0.638   1.741  -0.201  0.00  0.00    +0.013 A 
ATOM      5  C   UNL     1      -1.992   1.438  -0.027  0.00  0.00    -0.001 A 
ATOM      6  C   UNL     1      -3.013   2.487  -0.053  0.00  0.00    +0.019 A 
ATOM      7  C   UNL     1      -4.312   2.131   0.105  0.00  0.00    +0.019 A 
ATOM      8  C   UNL     1      -4.659   0.778   0.306  0.00  0.00    +0.252 A 
ATOM      9  O   UNL     1      -5.831   0.482   0.456  0.00  0.00    -0.268 OA
ATOM     10  N   UNL     1      -3.728  -0.192   0.336  0.00  0.00    -0.322 N 
ATOM     11  H   UNL     1      -4.001  -1.112   0.476  0.00  0.00    +0.169 HD
ATOM     12  C   UNL     1      -2.391   0.102   0.171  0.00  0.00    +0.049 A 
ATOM     13  C   UNL     1      -1.428  -0.900   0.203  0.00  0.00    +0.030 A 
ATOM     14  C   UNL     1      -0.099  -0.578   0.030  0.00  0.00    -0.046 A 
ATOM     15  C   UNL     1       0.942  -1.667   0.058  0.00  0.00    +0.044 C 
ENDBRANCH   1   7
BRANCH   1  16
ATOM     16  C   UNL     1      -5.976   3.280  -1.331  0.00  0.00    +0.108 C 
BRANCH  16  17
ATOM     17  N   UNL     1      -7.022   4.305  -1.356  0.00  0.00    -0.326 N 
ATOM     18  H   UNL     1      -7.237   4.798  -0.549  0.00  0.00    +0.148 HD
BRANCH  17  19
ATOM     19  C   UNL     1      -7.684   4.563  -2.501  0.00  0.00    +0.135 C 
ATOM     20  S   UNL     1      -7.304   3.693  -3.925  0.00  0.00    -0.019 S 
BRANCH  19  21
ATOM     21  N   UNL     1      -8.647   5.506  -2.525  0.00  0.00    -0.297 N 
ATOM     22  H   UNL     1      -8.905   5.957  -1.705  0.00  0.00    +0.154 HD
BRANCH  21  23
ATOM     23  C   UNL     1      -9.273   5.837  -3.732  0.00  0.00    +0.033 A 
ATOM     24  C   UNL     1      -9.473   7.169  -4.070  0.00  0.00    +0.024 A 
ATOM     25  C   UNL     1     -10.087   7.492  -5.264  0.00  0.00    +0.017 A 
ATOM     26  C   UNL     1     -10.512   6.490  -6.118  0.00  0.00    +0.018 A 
ATOM     27  C   UNL     1     -10.319   5.162  -5.781  0.00  0.00    +0.017 A 
ATOM     28  C   UNL     1      -9.701   4.833  -4.591  0.00  0.00    +0.024 A 
ATOM     29 BR   UNL     1     -11.359   6.936  -7.749  0.00  0.00    -0.050 Br
ENDBRANCH  21  23
ENDBRANCH  19  21
ENDBRANCH  17  19
ENDBRANCH  16  17
ENDBRANCH   1  16
TORSDOF 6
