REMARK  Name = ZINC01877047
REMARK  7 active torsions:
REMARK  status: ('A' for Active; 'I' for Inactive)
REMARK    1  A    between atoms: C_1  and  C_2
REMARK    2  A    between atoms: C_2  and  C_38
REMARK    3  A    between atoms: N_11  and  C_29
REMARK    4  A    between atoms: C_14  and  S_17
REMARK    5  A    between atoms: S_17  and  C_18
REMARK    6  A    between atoms: C_18  and  C_19
REMARK    7  A    between atoms: N_21  and  C_22
REMARK                            x       y       z     vdW  Elec       q    Type
REMARK                         _______ _______ _______ _____ _____    ______ ____
ROOT
ATOM      1  C   UNL     1      -0.071   1.005  -0.649  0.00  0.00    +0.041 C 
ATOM      2  C   UNL     1      -0.036  -0.519  -0.518  0.00  0.00    +0.068 C 
ATOM      3  C   UNL     1       0.679  -1.117  -1.735  0.00  0.00    +0.071 C 
ATOM      4  C   UNL     1       0.917  -2.595  -1.457  0.00  0.00    -0.018 A 
ATOM      5  C   UNL     1       0.839  -3.069  -0.195  0.00  0.00    +0.021 A 
ATOM      6  S   UNL     1       1.178  -4.796  -0.346  0.00  0.00    -0.072 S 
ATOM      7  C   UNL     1       1.413  -4.891  -2.000  0.00  0.00    +0.102 A 
ATOM      8  C   UNL     1       1.236  -3.594  -2.473  0.00  0.00    +0.075 A 
ATOM      9  C   UNL     1       1.391  -3.398  -3.932  0.00  0.00    +0.268 A 
ATOM     10  O   UNL     1       1.252  -2.290  -4.418  0.00  0.00    -0.266 OA
ATOM     11  N   UNL     1       1.687  -4.446  -4.718  0.00  0.00    -0.245 N 
ATOM     12  C   UNL     1       1.852  -5.718  -4.193  0.00  0.00    +0.245 A 
ATOM     13  N   UNL     1       1.717  -5.936  -2.847  0.00  0.00    -0.249 N 
ATOM     14  C   UNL     1       1.932  -7.269  -2.614  0.00  0.00    +0.198 A 
ATOM     15  N   UNL     1       2.188  -7.846  -3.763  0.00  0.00    -0.120 NA
ATOM     16  N   UNL     1       2.138  -6.866  -4.762  0.00  0.00    -0.109 NA
ATOM     17  C   UNL     1       0.530  -2.265   1.029  0.00  0.00    +0.203 C 
ATOM     18  O   UNL     1       0.652  -0.876   0.683  0.00  0.00    -0.368 OA
ATOM     19  C   UNL     1      -1.468  -1.056  -0.461  0.00  0.00    +0.041 C 
ENDROOT
BRANCH  11  20
ATOM     20  C   UNL     1       1.831  -4.250  -6.097  0.00  0.00    +0.054 A 
ATOM     21  C   UNL     1       1.059  -4.984  -6.989  0.00  0.00    +0.026 A 
ATOM     22  C   UNL     1       1.203  -4.789  -8.348  0.00  0.00    +0.003 A 
ATOM     23  C   UNL     1       2.115  -3.864  -8.823  0.00  0.00    +0.020 A 
ATOM     24  C   UNL     1       2.886  -3.131  -7.938  0.00  0.00    +0.043 A 
ATOM     25  C   UNL     1       2.742  -3.318  -6.575  0.00  0.00    +0.046 A 
ATOM     26 CL   UNL     1       4.030  -1.972  -8.538  0.00  0.00    -0.083 Cl
ENDBRANCH  11  20
BRANCH  14  27
ATOM     27  S   UNL     1       1.875  -8.068  -1.045  0.00  0.00    -0.076 S 
BRANCH  27  28
ATOM     28  C   UNL     1       2.243  -9.803  -1.422  0.00  0.00    +0.173 C 
BRANCH  28  29
ATOM     29  C   UNL     1       2.226 -10.609  -0.149  0.00  0.00    +0.227 C 
ATOM     30  O   UNL     1       1.988 -10.066   0.909  0.00  0.00    -0.275 OA
ATOM     31  N   UNL     1       2.474 -11.933  -0.186  0.00  0.00    -0.285 N 
ATOM     32  H   UNL     1       2.744 -12.353  -1.018  0.00  0.00    +0.155 HD
BRANCH  31  33
ATOM     33  C   UNL     1       2.343 -12.703   0.976  0.00  0.00    +0.033 A 
ATOM     34  C   UNL     1       3.200 -13.771   1.203  0.00  0.00    +0.025 A 
ATOM     35  C   UNL     1       3.069 -14.529   2.350  0.00  0.00    +0.022 A 
ATOM     36  C   UNL     1       2.084 -14.224   3.273  0.00  0.00    +0.041 A 
ATOM     37  C   UNL     1       1.229 -13.159   3.050  0.00  0.00    +0.022 A 
ATOM     38  C   UNL     1       1.360 -12.395   1.907  0.00  0.00    +0.025 A 
ATOM     39 CL   UNL     1       1.921 -15.178   4.714  0.00  0.00    -0.084 Cl
ENDBRANCH  31  33
ENDBRANCH  28  29
ENDBRANCH  27  28
ENDBRANCH  14  27
TORSDOF 5
