REMARK  Name = ZINC32902685
REMARK  9 active torsions:
REMARK  status: ('A' for Active; 'I' for Inactive)
REMARK    1  A    between atoms: C_1  and  C_2
REMARK    2  A    between atoms: N_4  and  C_5
REMARK    3  A    between atoms: C_13  and  C_16
REMARK    4  A    between atoms: C_17  and  C_18
REMARK    5  A    between atoms: C_23  and  O_34
REMARK    6  A    between atoms: C_26  and  O_32
REMARK    7  A    between atoms: C_28  and  O_31
REMARK    8  A    between atoms: O_32  and  C_33
REMARK    9  A    between atoms: O_34  and  C_35
REMARK                            x       y       z     vdW  Elec       q    Type
REMARK                         _______ _______ _______ _____ _____    ______ ____
ROOT
ATOM      1  C   UNL     1       6.014  -0.414  -0.770  0.00  0.00    +0.240 C 
ATOM      2  O   UNL     1       7.041   0.239  -0.783  0.00  0.00    -0.271 OA
ATOM      3  N   UNL     1       4.912   0.075  -0.168  0.00  0.00    -0.291 N 
ATOM      4  C   UNL     1       3.635  -0.645  -0.213  0.00  0.00    +0.147 C 
ATOM      5  C   UNL     1       2.517   0.322  -0.512  0.00  0.00    +0.021 A 
ATOM      6  C   UNL     1       1.266  -0.207  -0.823  0.00  0.00    +0.125 A 
ATOM      7  C   UNL     1       0.197   0.629  -1.096  0.00  0.00    +0.049 A 
ATOM      8  C   UNL     1       0.372   1.999  -1.056  0.00  0.00    +0.049 A 
ATOM      9  C   UNL     1       1.614   2.526  -0.748  0.00  0.00    +0.126 A 
ATOM     10  C   UNL     1       2.694   1.686  -0.479  0.00  0.00    +0.032 A 
ATOM     11  C   UNL     1       4.019   2.330  -0.168  0.00  0.00    +0.166 C 
ATOM     12  C   UNL     1       4.941   1.354   0.561  0.00  0.00    +0.144 C 
ENDROOT
BRANCH   1  14
ATOM     13  C   UNL     1       7.089  -2.190  -1.972  0.00  0.00    +0.033 C 
ATOM     14  C   UNL     1       5.976  -1.688  -1.388  0.00  0.00    +0.069 C 
BRANCH  13  21
ATOM     15  C   UNL     1       2.439  -6.894  -2.887  0.00  0.00    +0.110 C 
ATOM     16  C   UNL     1       3.575  -5.904  -2.890  0.00  0.00    +0.223 C 
ATOM     17  O   UNL     1       3.387  -4.764  -2.521  0.00  0.00    -0.275 OA
ATOM     18  N   UNL     1       4.800  -6.285  -3.303  0.00  0.00    -0.219 N 
ATOM     19  C   UNL     1       5.874  -5.410  -3.195  0.00  0.00    +0.172 A 
ATOM     20  N   UNL     1       5.924  -4.223  -2.624  0.00  0.00    -0.225 NA
ATOM     21  C   UNL     1       7.051  -3.509  -2.611  0.00  0.00    +0.073 A 
ATOM     22  C   UNL     1       8.175  -4.028  -3.213  0.00  0.00    +0.076 A 
ATOM     23  S   UNL     1       7.547  -5.598  -3.793  0.00  0.00    -0.059 S 
BRANCH  18  24
ATOM     24  C   UNL     1       4.991  -7.565  -3.840  0.00  0.00    +0.043 A 
ATOM     25  C   UNL     1       5.084  -7.735  -5.215  0.00  0.00    +0.024 A 
ATOM     26  C   UNL     1       5.277  -8.997  -5.742  0.00  0.00    +0.002 A 
ATOM     27  C   UNL     1       5.367 -10.092  -4.902  0.00  0.00    +0.000 A 
ATOM     28  C   UNL     1       5.270  -9.927  -3.533  0.00  0.00    +0.002 A 
ATOM     29  C   UNL     1       5.082  -8.666  -3.000  0.00  0.00    +0.024 A 
ENDBRANCH  18  24
ENDBRANCH  13  21
ENDBRANCH   1  14
BRANCH  11  30
ATOM     30  O   UNL     1       4.639   2.741  -1.388  0.00  0.00    -0.385 OA
ATOM     31  H   UNL     1       5.621   3.236  -1.367  0.00  0.00    +0.210 HD
ENDBRANCH  11  30
BRANCH   9  32
ATOM     32  O   UNL     1       1.783   3.874  -0.708  0.00  0.00    -0.495 OA
ATOM     33  C   UNL     1       0.638   4.681  -0.993  0.00  0.00    +0.277 C 
ENDBRANCH   9  32
BRANCH   6  34
ATOM     34  O   UNL     1       1.094  -1.556  -0.859  0.00  0.00    -0.495 OA
ATOM     35  C   UNL     1      -0.213  -2.034  -1.184  0.00  0.00    +0.277 C 
ENDBRANCH   6  34
TORSDOF 6
