REMARK  Name = ZINC39711238
REMARK  10 active torsions:
REMARK  status: ('A' for Active; 'I' for Inactive)
REMARK    1  A    between atoms: C_1  and  C_2
REMARK    2  A    between atoms: C_6  and  C_15
REMARK    3  A    between atoms: C_13  and  C_14
REMARK    4  A    between atoms: C_15  and  C_17
REMARK    5  A    between atoms: C_15  and  N_28
REMARK    6  A    between atoms: N_22  and  C_23
REMARK    7  A    between atoms: N_28  and  C_29
REMARK    8  A    between atoms: N_28  and  C_36
REMARK    9  A    between atoms: C_29  and  C_30
REMARK   10  A    between atoms: C_36  and  C_37
REMARK                            x       y       z     vdW  Elec       q    Type
REMARK                         _______ _______ _______ _____ _____    ______ ____
ROOT
ATOM      1  C   UNL     1       1.328  -4.715  -2.651  0.00  0.00    -0.009 C 
ENDROOT
BRANCH   1   7
ATOM      2  C   UNL     1       0.414   0.987   1.551  0.00  0.00    +0.044 C 
ATOM      3  C   UNL     1       0.158  -0.442   1.147  0.00  0.00    -0.047 A 
ATOM      4  C   UNL     1       0.376  -0.818  -0.139  0.00  0.00    +0.013 A 
ATOM      5  C   UNL     1       0.124  -2.208  -0.520  0.00  0.00    -0.007 A 
ATOM      6  C   UNL     1       0.329  -2.631  -1.800  0.00  0.00    -0.006 C 
ATOM      7  C   UNL     1       0.043  -4.089  -2.104  0.00  0.00    +0.088 C 
ATOM      8  C   UNL     1      -0.445  -4.954  -0.965  0.00  0.00    +0.223 C 
ATOM      9  O   UNL     1      -0.690  -6.131  -1.153  0.00  0.00    -0.275 OA
ATOM     10  N   UNL     1      -0.606  -4.427   0.237  0.00  0.00    -0.285 N 
ATOM     11  C   UNL     1      -0.355  -3.146   0.510  0.00  0.00    +0.041 A 
ATOM     12  C   UNL     1      -0.548  -2.654   1.814  0.00  0.00    +0.027 A 
ATOM     13  C   UNL     1      -0.291  -1.352   2.104  0.00  0.00    -0.046 A 
ATOM     14  C   UNL     1      -0.506  -0.870   3.516  0.00  0.00    +0.044 C 
ATOM     15  H   UNL     1      -0.920  -4.999   0.955  0.00  0.00    +0.155 HD
ENDBRANCH   1   7
BRANCH   1  16
ATOM     16  C   UNL     1       1.649  -4.109  -4.019  0.00  0.00    +0.205 C 
ATOM     17  N   UNL     1       3.003  -4.488  -4.442  0.00  0.00    -0.152 NA
ATOM     18  N   UNL     1       3.680  -3.467  -4.575  0.00  0.00    -0.070 NA
ATOM     19  N   UNL     1       2.968  -2.303  -4.289  0.00  0.00    -0.179 N 
ATOM     20  N   UNL     1       1.684  -2.634  -3.934  0.00  0.00    -0.185 NA
ATOM     21  H   UNL     1       3.323  -1.401  -4.334  0.00  0.00    +0.191 HD
BRANCH  20  22
ATOM     22  C   UNL     1       0.709  -2.030  -4.853  0.00  0.00    +0.080 C 
ATOM     23  C   UNL     1       1.067  -2.385  -6.311  0.00  0.00    +0.021 C 
ATOM     24  C   UNL     1       0.721  -1.103  -7.109  0.00  0.00    +0.002 C 
ATOM     25  C   UNL     1       1.154   0.028  -6.144  0.00  0.00    +0.002 C 
ATOM     26  C   UNL     1       0.764  -0.496  -4.747  0.00  0.00    +0.021 C 
ENDBRANCH  20  22
ENDBRANCH   1  16
BRANCH   1  27
ATOM     27  N   UNL     1       1.145  -6.166  -2.789  0.00  0.00    +0.392 N 
ATOM     28  H   UNL     1       0.868  -6.556  -1.900  0.00  0.00    -0.080 HD
BRANCH  27  29
ATOM     29  C   UNL     1       0.103  -6.435  -3.788  0.00  0.00    -0.042 C 
BRANCH  29  30
ATOM     30  C   UNL     1      -0.192  -7.913  -3.820  0.00  0.00    -0.064 A 
ATOM     31  C   UNL     1       0.519  -8.741  -4.669  0.00  0.00    +0.002 A 
ATOM     32  C   UNL     1       0.248 -10.096  -4.699  0.00  0.00    +0.000 A 
ATOM     33  C   UNL     1      -0.733 -10.624  -3.879  0.00  0.00    +0.000 A 
ATOM     34  C   UNL     1      -1.442  -9.796  -3.030  0.00  0.00    +0.000 A 
ATOM     35  C   UNL     1      -1.169  -8.441  -2.998  0.00  0.00    +0.002 A 
ENDBRANCH  29  30
ENDBRANCH  27  29
BRANCH  27  36
ATOM     36  C   UNL     1       2.408  -6.779  -3.220  0.00  0.00    -0.002 C 
BRANCH  36  37
ATOM     37  C   UNL     1       3.474  -6.515  -2.188  0.00  0.00    +0.089 A 
ATOM     38  C   UNL     1       3.818  -7.340  -1.183  0.00  0.00    +0.042 A 
ATOM     39  C   UNL     1       4.853  -6.700  -0.464  0.00  0.00    +0.041 A 
ATOM     40  C   UNL     1       5.080  -5.522  -1.072  0.00  0.00    +0.195 A 
ATOM     41  O   UNL     1       4.245  -5.418  -2.119  0.00  0.00    -0.470 OA
ENDBRANCH  36  37
ENDBRANCH  27  36
ENDBRANCH   1  27
TORSDOF 8
