REMARK  Name = ZINC20899382
REMARK  7 active torsions:
REMARK  status: ('A' for Active; 'I' for Inactive)
REMARK    1  A    between atoms: C_1  and  C_2
REMARK    2  A    between atoms: C_4  and  C_32
REMARK    3  A    between atoms: N_13  and  C_26
REMARK    4  A    between atoms: C_14  and  C_17
REMARK    5  A    between atoms: C_22  and  N_23
REMARK    6  A    between atoms: C_32  and  O_33
REMARK    7  A    between atoms: O_33  and  C_34
REMARK                            x       y       z     vdW  Elec       q    Type
REMARK                         _______ _______ _______ _____ _____    ______ ____
ROOT
ATOM      1  C   UNL     1       0.725  -4.215   6.029  0.00  0.00    +0.065 C 
ATOM      2  C   UNL     1       0.190  -3.468   4.835  0.00  0.00    +0.040 A 
ATOM      3  C   UNL     1       0.335  -4.026   3.576  0.00  0.00    +0.029 A 
ATOM      4  C   UNL     1      -0.133  -3.400   2.437  0.00  0.00    -0.009 A 
ATOM      5  C   UNL     1      -0.772  -2.147   2.636  0.00  0.00    +0.035 A 
ATOM      6  C   UNL     1      -1.351  -1.302   1.611  0.00  0.00    +0.058 A 
ATOM      7  C   UNL     1      -1.899  -0.099   2.048  0.00  0.00    +0.098 A 
ATOM      8  S   UNL     1      -1.697  -0.111   3.803  0.00  0.00    -0.062 S 
ATOM      9  C   UNL     1      -0.865  -1.662   3.969  0.00  0.00    +0.111 A 
ATOM     10  N   UNL     1      -0.405  -2.297   5.025  0.00  0.00    -0.245 NA
ATOM     11  C   UNL     1      -2.486   0.853   1.194  0.00  0.00    +0.257 C 
ATOM     12  O   UNL     1      -3.111   1.809   1.615  0.00  0.00    -0.269 OA
ATOM     13  N   UNL     1      -2.305   0.627  -0.135  0.00  0.00    -0.271 N 
ATOM     14  C   UNL     1      -1.366  -0.400  -0.579  0.00  0.00    +0.195 C 
ATOM     15  N   UNL     1      -1.414  -1.611   0.242  0.00  0.00    -0.320 N 
ATOM     16  H   UNL     1      -1.489  -2.598  -0.238  0.00  0.00    +0.148 HD
ENDROOT
BRANCH  14  17
ATOM     17  C   UNL     1       0.030   0.165  -0.528  0.00  0.00    +0.021 A 
ATOM     18  C   UNL     1       0.318   1.222   0.316  0.00  0.00    +0.009 A 
ATOM     19  C   UNL     1       1.599   1.740   0.363  0.00  0.00    +0.001 A 
ATOM     20  C   UNL     1       2.591   1.203  -0.436  0.00  0.00    +0.002 A 
ATOM     21  C   UNL     1       2.304   0.146  -1.279  0.00  0.00    +0.033 A 
ATOM     22  C   UNL     1       1.023  -0.372  -1.325  0.00  0.00    +0.133 A 
BRANCH  22  23
ATOM     23  N   UNL     1       0.715  -1.504  -2.228  0.00  0.00    +0.057 N 
ATOM     24  O   UNL     1       1.556  -1.902  -3.015  0.00  0.00    -0.126 OA
ATOM     25  O   UNL     1      -0.379  -2.037  -2.185  0.00  0.00    -0.126 OA
ENDBRANCH  22  23
ENDBRANCH  14  17
BRANCH  13  26
ATOM     26  C   UNL     1      -3.052   1.413  -1.121  0.00  0.00    +0.078 C 
ATOM     27  C   UNL     1      -2.688   2.892  -0.975  0.00  0.00    +0.022 C 
ATOM     28  C   UNL     1      -3.468   3.713  -2.004  0.00  0.00    +0.002 C 
ATOM     29  C   UNL     1      -4.969   3.531  -1.770  0.00  0.00    +0.000 C 
ATOM     30  C   UNL     1      -5.333   2.052  -1.916  0.00  0.00    +0.002 C 
ATOM     31  C   UNL     1      -4.553   1.231  -0.887  0.00  0.00    +0.022 C 
ENDBRANCH  13  26
BRANCH   4  32
ATOM     32  C   UNL     1       0.024  -4.008   1.067  0.00  0.00    +0.195 C 
BRANCH  32  33
ATOM     33  O   UNL     1       0.808  -5.200   1.163  0.00  0.00    -0.378 OA
ATOM     34  C   UNL     1       1.018  -5.859  -0.087  0.00  0.00    +0.194 C 
ENDBRANCH  32  33
ENDBRANCH   4  32
TORSDOF 5
