REMARK  Name = ZINC40456114
REMARK  3 active torsions:
REMARK  status: ('A' for Active; 'I' for Inactive)
REMARK    1  A    between atoms: C_6  and  O_7
REMARK    2  A    between atoms: O_7  and  C_8
REMARK    3  A    between atoms: C_11  and  N_14
REMARK                            x       y       z     vdW  Elec       q    Type
REMARK                         _______ _______ _______ _____ _____    ______ ____
ROOT
ATOM      1  C   UNL     1      -1.101  -2.050  -0.102  0.00  0.00    +0.323 A 
ATOM      2  N   UNL     1       0.082  -2.640  -0.108  0.00  0.00    -0.201 NA
ATOM      3  C   UNL     1       0.184  -3.955  -0.216  0.00  0.00    +0.140 A 
ATOM      4  C   UNL     1      -0.976  -4.717  -0.324  0.00  0.00    +0.062 A 
ATOM      5  C   UNL     1      -2.203  -4.059  -0.314  0.00  0.00    +0.140 A 
ATOM      6  N   UNL     1      -2.225  -2.741  -0.198  0.00  0.00    -0.201 NA
ENDROOT
BRANCH   4   7
ATOM      7  N   UNL     1      -0.910  -6.110  -0.440  0.00  0.00    -0.356 N 
ATOM      8  H   UNL     1      -0.049  -6.557  -0.446  0.00  0.00    +0.142 HD
ATOM      9  H   UNL     1      -1.726  -6.630  -0.515  0.00  0.00    +0.142 HD
ENDBRANCH   4   7
BRANCH   1  10
ATOM     10  O   UNL     1      -1.165  -0.701   0.010  0.00  0.00    -0.424 OA
BRANCH  10  16
ATOM     11  C   UNL     1       0.737   0.080  -1.187  0.00  0.00    +0.047 A 
ATOM     12  C   UNL     1       1.922   0.790  -1.209  0.00  0.00    +0.018 A 
ATOM     13  C   UNL     1       2.374   1.419  -0.063  0.00  0.00    +0.014 A 
ATOM     14  C   UNL     1       1.642   1.337   1.108  0.00  0.00    +0.018 A 
ATOM     15  C   UNL     1       0.457   0.628   1.135  0.00  0.00    +0.047 A 
ATOM     16  C   UNL     1       0.001  -0.003  -0.014  0.00  0.00    +0.132 A 
ATOM     17  I   UNL     1       4.171   2.495  -0.100  0.00  0.00    -0.044 I 
ENDBRANCH  10  16
ENDBRANCH   1  10
TORSDOF 3
