REMARK  Name = ZINC59015739
REMARK  5 active torsions:
REMARK  status: ('A' for Active; 'I' for Inactive)
REMARK    1  A    between atoms: C_11  and  C_13
REMARK    2  A    between atoms: C_13  and  S_14
REMARK    3  A    between atoms: S_14  and  C_15
REMARK    4  A    between atoms: N_20  and  N_21
REMARK    5  A    between atoms: C_22  and  C_23
REMARK                            x       y       z     vdW  Elec       q    Type
REMARK                         _______ _______ _______ _____ _____    ______ ____
ROOT
ATOM      1  C   UNL     1       6.723  -7.644  -0.102  0.00  0.00    +0.211 A 
ATOM      2  N   UNL     1       7.920  -8.240  -0.111  0.00  0.00    -0.186 NA
ATOM      3  C   UNL     1       7.764  -9.547  -0.117  0.00  0.00    +0.232 A 
ATOM      4  N   UNL     1       6.439  -9.809  -0.112  0.00  0.00    -0.245 N 
ATOM      5  N   UNL     1       5.789  -8.565  -0.097  0.00  0.00    -0.144 NA
ATOM      6  N   UNL     1       8.778 -10.488  -0.127  0.00  0.00    -0.205 N 
ATOM      7  H   UNL     1       8.563 -11.433  -0.132  0.00  0.00    +0.177 HD
ATOM      8  H   UNL     1       6.020 -10.683  -0.114  0.00  0.00    +0.192 HD
ENDROOT
BRANCH   6   9
ATOM      9  N   UNL     1      10.117 -10.074  -0.132  0.00  0.00    -0.188 NA
ATOM     10  C   UNL     1      11.069 -10.956  -0.142  0.00  0.00    +0.139 C 
BRANCH  10  11
ATOM     11  C   UNL     1      12.477 -10.521  -0.147  0.00  0.00    +0.014 A 
ATOM     12  C   UNL     1      13.505 -11.468  -0.163  0.00  0.00    +0.011 A 
ATOM     13  C   UNL     1      14.820 -11.054  -0.167  0.00  0.00    +0.002 A 
ATOM     14  C   UNL     1      15.126  -9.705  -0.156  0.00  0.00    +0.021 A 
ATOM     15  C   UNL     1      14.114  -8.759  -0.139  0.00  0.00    +0.060 A 
ATOM     16  C   UNL     1      12.791  -9.159  -0.141  0.00  0.00    +0.068 A 
ATOM     17 CL   UNL     1      11.524  -7.973  -0.128  0.00  0.00    -0.081 Cl
ATOM     18 CL   UNL     1      14.509  -7.069  -0.124  0.00  0.00    -0.082 Cl
ENDBRANCH  10  11
ENDBRANCH   6   9
BRANCH   1  19
ATOM     19  S   UNL     1       6.447  -5.904  -0.090  0.00  0.00    -0.075 S 
BRANCH  19  20
ATOM     20  C   UNL     1       4.639  -5.747  -0.072  0.00  0.00    +0.173 C 
BRANCH  20  31
ATOM     21  C   UNL     1      -0.017   1.366   0.010  0.00  0.00    +0.002 A 
ATOM     22  C   UNL     1       1.157   2.107   0.002  0.00  0.00    +0.001 A 
ATOM     23  C   UNL     1       2.373   1.450  -0.013  0.00  0.00    +0.017 A 
ATOM     24  C   UNL     1       2.401   0.077  -0.020  0.00  0.00    +0.041 A 
ATOM     25  C   UNL     1       1.227  -0.710  -0.013  0.00  0.00    +0.080 A 
ATOM     26  C   UNL     1       0.002  -0.004   0.002  0.00  0.00    +0.029 A 
ATOM     27  N   UNL     1       1.420  -2.047  -0.022  0.00  0.00    -0.225 NA
ATOM     28  C   UNL     1       2.616  -2.587  -0.037  0.00  0.00    +0.165 A 
ATOM     29  S   UNL     1       3.682  -1.153  -0.039  0.00  0.00    -0.052 S 
ATOM     30  N   UNL     1       2.963  -3.929  -0.047  0.00  0.00    -0.264 N 
ATOM     31  C   UNL     1       4.262  -4.288  -0.061  0.00  0.00    +0.229 C 
ATOM     32  O   UNL     1       5.126  -3.438  -0.065  0.00  0.00    -0.275 OA
ATOM     33  H   UNL     1       2.271  -4.609  -0.043  0.00  0.00    +0.157 HD
ENDBRANCH  20  31
ENDBRANCH  19  20
ENDBRANCH   1  19
TORSDOF 5
