REMARK  Name = ZINC22238442
REMARK  5 active torsions:
REMARK  status: ('A' for Active; 'I' for Inactive)
REMARK    1  A    between atoms: C_1  and  C_2
REMARK    2  A    between atoms: C_2  and  C_3
REMARK    3  A    between atoms: C_13  and  C_18
REMARK    4  A    between atoms: C_13  and  C_19
REMARK    5  A    between atoms: C_15  and  C_17
REMARK                            x       y       z     vdW  Elec       q    Type
REMARK                         _______ _______ _______ _____ _____    ______ ____
ROOT
ATOM      1  C   UNL     1       0.707  -0.490  -1.238  0.00  0.00    -0.047 A 
ATOM      2  C   UNL     1      -0.025  -0.716  -2.396  0.00  0.00    +0.009 A 
ATOM      3  C   UNL     1       0.619  -1.156  -3.524  0.00  0.00    -0.022 A 
ATOM      4  C   UNL     1       1.997  -1.366  -3.480  0.00  0.00    +0.048 A 
ATOM      5  C   UNL     1       2.728  -1.147  -2.333  0.00  0.00    +0.030 A 
ATOM      6  C   UNL     1       2.078  -0.699  -1.205  0.00  0.00    +0.013 A 
ATOM      7  C   UNL     1       4.142  -1.494  -2.705  0.00  0.00    +0.227 C 
ATOM      8  C   UNL     1       4.080  -1.909  -4.158  0.00  0.00    +0.272 C 
ATOM      9  O   UNL     1       5.013  -2.267  -4.845  0.00  0.00    -0.270 OA
ATOM     10  N   UNL     1       2.803  -1.807  -4.543  0.00  0.00    -0.261 N 
ATOM     11  C   UNL     1       2.186  -2.079  -5.853  0.00  0.00    +0.037 C 
ATOM     12  C   UNL     1       0.932  -1.208  -5.986  0.00  0.00    +0.033 C 
ATOM     13  C   UNL     1      -0.055  -1.443  -4.839  0.00  0.00    +0.020 C 
ATOM     14  C   UNL     1      -1.260  -0.515  -5.007  0.00  0.00    +0.012 C 
ATOM     15  C   UNL     1       3.174  -1.733  -6.969  0.00  0.00    +0.032 C 
ATOM     16  C   UNL     1       1.800  -3.556  -5.944  0.00  0.00    +0.032 C 
ATOM     17  N   UNL     1       5.039  -0.334  -2.533  0.00  0.00    -0.275 NA
ATOM     18  C   UNL     1       6.378  -0.983  -2.429  0.00  0.00    +0.112 C 
ATOM     19  C   UNL     1       6.063  -2.300  -1.686  0.00  0.00    +0.178 C 
ATOM     20  O   UNL     1       4.660  -2.546  -1.890  0.00  0.00    -0.346 OA
ATOM     21  H   UNL     1       4.996   0.279  -3.333  0.00  0.00    +0.125 HD
ENDROOT
BRANCH   1  23
ATOM     22  C   UNL     1      -0.019   1.526   0.010  0.00  0.00    +0.009 C 
ATOM     23  C   UNL     1       0.002  -0.004   0.002  0.00  0.00    +0.032 C 
ENDBRANCH   1  23
TORSDOF 1
