REMARK  Name = ZINC00657725
REMARK  9 active torsions:
REMARK  status: ('A' for Active; 'I' for Inactive)
REMARK    1  A    between atoms: C_1  and  O_2
REMARK    2  A    between atoms: O_2  and  C_3
REMARK    3  A    between atoms: C_5  and  C_19
REMARK    4  A    between atoms: C_8  and  O_9
REMARK    5  A    between atoms: O_9  and  C_10
REMARK    6  A    between atoms: C_10  and  C_11
REMARK    7  A    between atoms: N_20  and  N_21
REMARK    8  A    between atoms: N_21  and  C_22
REMARK    9  A    between atoms: C_22  and  N_24
REMARK                            x       y       z     vdW  Elec       q    Type
REMARK                         _______ _______ _______ _____ _____    ______ ____
ROOT
ATOM      1  C   UNL     1      -5.518   1.752  -1.168  0.00  0.00    +0.164 A 
ATOM      2  C   UNL     1      -6.786   1.201  -1.167  0.00  0.00    +0.059 A 
ATOM      3  C   UNL     1      -7.421   0.920   0.045  0.00  0.00    -0.000 A 
ATOM      4  C   UNL     1      -6.770   1.191   1.250  0.00  0.00    +0.033 A 
ATOM      5  C   UNL     1      -5.502   1.735   1.242  0.00  0.00    +0.087 A 
ATOM      6  C   UNL     1      -4.871   2.014   0.037  0.00  0.00    +0.181 A 
ATOM      7 CL   UNL     1      -4.693   2.071   2.741  0.00  0.00    -0.080 Cl
ENDROOT
BRANCH   1   9
ATOM      8  C   UNL     1      -5.621   1.738  -3.544  0.00  0.00    +0.277 C 
ATOM      9  O   UNL     1      -4.899   2.032  -2.347  0.00  0.00    -0.491 OA
ENDBRANCH   1   9
BRANCH   3  10
ATOM     10  C   UNL     1      -8.776   0.339   0.051  0.00  0.00    +0.138 C 
ATOM     11  N   UNL     1      -9.365   0.078   1.178  0.00  0.00    -0.188 NA
BRANCH  11  12
ATOM     12  N   UNL     1     -10.653  -0.474   1.184  0.00  0.00    -0.219 N 
ATOM     13  H   UNL     1     -11.104  -0.661   0.347  0.00  0.00    +0.176 HD
BRANCH  12  14
ATOM     14  C   UNL     1     -11.264  -0.744   2.355  0.00  0.00    +0.147 C 
ATOM     15  S   UNL     1     -12.838  -1.419   2.362  0.00  0.00    -0.017 S 
BRANCH  14  16
ATOM     16  N   UNL     1     -10.637  -0.483   3.519  0.00  0.00    -0.339 N 
ATOM     17  H   UNL     1      -9.746  -0.101   3.514  0.00  0.00    +0.144 HD
ATOM     18  H   UNL     1     -11.078  -0.678   4.361  0.00  0.00    +0.144 HD
ENDBRANCH  14  16
ENDBRANCH  12  14
ENDBRANCH  11  12
ENDBRANCH   3  10
BRANCH   6  19
ATOM     19  O   UNL     1      -3.622   2.551   0.033  0.00  0.00    -0.482 OA
BRANCH  19  20
ATOM     20  C   UNL     1      -2.524   1.637   0.023  0.00  0.00    +0.266 C 
BRANCH  20  21
ATOM     21  C   UNL     1      -1.228   2.407   0.021  0.00  0.00    +0.008 A 
ATOM     22  C   UNL     1      -1.247   3.789   0.033  0.00  0.00    +0.008 A 
ATOM     23  C   UNL     1      -0.059   4.497   0.025  0.00  0.00    +0.000 A 
ATOM     24  C   UNL     1       1.148   3.822   0.011  0.00  0.00    +0.001 A 
ATOM     25  C   UNL     1       1.167   2.440   0.004  0.00  0.00    +0.020 A 
ATOM     26  C   UNL     1      -0.021   1.732   0.012  0.00  0.00    +0.047 A 
ATOM     27 CL   UNL     1       0.002  -0.004   0.002  0.00  0.00    -0.083 Cl
ENDBRANCH  20  21
ENDBRANCH  19  20
ENDBRANCH   6  19
TORSDOF 8
