REMARK  Name = ZINC48396833
REMARK  10 active torsions:
REMARK  status: ('A' for Active; 'I' for Inactive)
REMARK    1  A    between atoms: C_1  and  C_2
REMARK    2  A    between atoms: C_2  and  C_4
REMARK    3  A    between atoms: C_2  and  N_13
REMARK    4  A    between atoms: C_7  and  O_11
REMARK    5  A    between atoms: O_11  and  C_12
REMARK    6  A    between atoms: N_16  and  C_17
REMARK    7  A    between atoms: C_17  and  C_18
REMARK    8  A    between atoms: C_18  and  C_19
REMARK    9  A    between atoms: C_19  and  C_20
REMARK   10  A    between atoms: C_19  and  C_21
REMARK                            x       y       z     vdW  Elec       q    Type
REMARK                         _______ _______ _______ _____ _____    ______ ____
ROOT
ATOM      1  C   UNL     1      -0.019   1.526   0.010  0.00  0.00    +0.033 C 
ATOM      2  C   UNL     1       0.002  -0.004   0.002  0.00  0.00    +0.102 C 
ENDROOT
BRANCH   2   3
ATOM      3  C   UNL     1       0.731  -0.503   1.223  0.00  0.00    -0.026 A 
ATOM      4  C   UNL     1       2.114  -0.513   1.245  0.00  0.00    +0.009 A 
ATOM      5  C   UNL     1       2.784  -0.971   2.363  0.00  0.00    +0.047 A 
ATOM      6  C   UNL     1       2.070  -1.420   3.464  0.00  0.00    +0.134 A 
ATOM      7  C   UNL     1       0.682  -1.409   3.439  0.00  0.00    +0.060 A 
ATOM      8  C   UNL     1       0.016  -0.945   2.321  0.00  0.00    +0.024 A 
ATOM      9 BR   UNL     1      -0.295  -2.021   4.938  0.00  0.00    -0.047 Br
BRANCH   6  10
ATOM     10  O   UNL     1       2.728  -1.871   4.564  0.00  0.00    -0.494 OA
ATOM     11  C   UNL     1       4.156  -1.854   4.519  0.00  0.00    +0.277 C 
ENDBRANCH   6  10
ENDBRANCH   2   3
BRANCH   2  12
ATOM     12  N   UNL     1       0.688  -0.476  -1.203  0.00  0.00    -0.293 N 
ATOM     13  C   UNL     1       0.006  -0.608  -2.358  0.00  0.00    +0.300 C 
ATOM     14  O   UNL     1      -1.178  -0.335  -2.400  0.00  0.00    -0.253 OA
ATOM     15  N   UNL     1       0.637  -1.043  -3.467  0.00  0.00    -0.299 N 
ATOM     16  H   UNL     1       1.632  -0.695  -1.170  0.00  0.00    +0.151 HD
ATOM     17  H   UNL     1       1.582  -1.261  -3.434  0.00  0.00    +0.150 HD
BRANCH  15  18
ATOM     18  C   UNL     1      -0.104  -1.186  -4.723  0.00  0.00    +0.106 C 
BRANCH  18  19
ATOM     19  C   UNL     1       0.839  -1.692  -5.817  0.00  0.00    +0.022 C 
BRANCH  19  20
ATOM     20  C   UNL     1       0.065  -1.841  -7.128  0.00  0.00    -0.016 C 
ATOM     21  C   UNL     1      -0.404  -0.464  -7.603  0.00  0.00    +0.007 C 
ATOM     22  C   UNL     1       0.975  -2.463  -8.189  0.00  0.00    +0.007 C 
ENDBRANCH  19  20
ENDBRANCH  18  19
ENDBRANCH  15  18
ENDBRANCH   2  12
TORSDOF 6
