REMARK  Name = ZINC39359155
REMARK  6 active torsions:
REMARK  status: ('A' for Active; 'I' for Inactive)
REMARK    1  A    between atoms: C_1  and  C_2
REMARK    2  A    between atoms: C_2  and  C_3
REMARK    3  A    between atoms: C_2  and  C_4
REMARK    4  A    between atoms: C_7  and  C_10
REMARK    5  A    between atoms: C_13  and  O_32
REMARK    6  A    between atoms: C_24  and  C_27
REMARK                            x       y       z     vdW  Elec       q    Type
REMARK                         _______ _______ _______ _____ _____    ______ ____
ROOT
ATOM      1  C   UNL     1       2.707  -1.868  -4.752  0.00  0.00    +0.089 C 
ATOM      2  C   UNL     1       2.753  -3.366  -4.759  0.00  0.00    +0.048 C 
ATOM      3  C   UNL     1       2.073  -4.314  -4.151  0.00  0.00    +0.235 C 
ATOM      4  N   UNL     1       2.620  -5.531  -4.420  0.00  0.00    -0.114 NA
ATOM      5  N   UNL     1       3.586  -5.499  -5.194  0.00  0.00    -0.157 NA
ATOM      6  C   UNL     1       3.786  -4.110  -5.612  0.00  0.00    +0.245 C 
ATOM      7  N   UNL     1       5.070  -3.563  -5.167  0.00  0.00    -0.321 N 
ATOM      8  C   UNL     1       5.191  -2.212  -4.952  0.00  0.00    +0.014 C 
ATOM      9  C   UNL     1       4.147  -1.377  -4.758  0.00  0.00    +0.023 C 
ATOM     10  C   UNL     1       4.337  -0.001  -4.549  0.00  0.00    +0.162 C 
ATOM     11  O   UNL     1       3.370   0.712  -4.366  0.00  0.00    -0.292 OA
ATOM     12  C   UNL     1       5.711   0.611  -4.548  0.00  0.00    +0.088 C 
ATOM     13  C   UNL     1       6.622  -0.231  -5.447  0.00  0.00    +0.039 C 
ATOM     14  C   UNL     1       6.608  -1.675  -4.930  0.00  0.00    +0.060 C 
ATOM     15  H   UNL     1       5.829  -4.150  -5.025  0.00  0.00    +0.148 HD
ENDROOT
BRANCH   1  19
ATOM     16  C   UNL     1       0.707  -0.490  -1.238  0.00  0.00    -0.045 A 
ATOM     17  C   UNL     1       0.222  -0.151  -2.487  0.00  0.00    +0.004 A 
ATOM     18  C   UNL     1       0.869  -0.597  -3.624  0.00  0.00    +0.005 A 
ATOM     19  C   UNL     1       2.002  -1.381  -3.513  0.00  0.00    -0.035 A 
ATOM     20  C   UNL     1       2.488  -1.720  -2.263  0.00  0.00    +0.005 A 
ATOM     21  C   UNL     1       1.843  -1.270  -1.126  0.00  0.00    +0.004 A 
BRANCH  16  23
ATOM     22  C   UNL     1      -0.019   1.526   0.010  0.00  0.00    +0.012 C 
ATOM     23  C   UNL     1       0.002  -0.004   0.002  0.00  0.00    +0.013 C 
ATOM     24  C   UNL     1      -1.433  -0.534   0.013  0.00  0.00    +0.012 C 
ENDBRANCH  16  23
ENDBRANCH   1  19
BRANCH  13  25
ATOM     25  C   UNL     1       8.027   0.312  -5.398  0.00  0.00    -0.006 A 
ATOM     26  C   UNL     1       8.790   0.798  -6.407  0.00  0.00    +0.011 A 
ATOM     27  C   UNL     1      10.066   1.249  -6.126  0.00  0.00    +0.008 A 
ATOM     28  C   UNL     1      10.517   1.191  -4.849  0.00  0.00    +0.045 A 
ATOM     29  S   UNL     1       9.115   0.490  -3.994  0.00  0.00    -0.101 S 
ENDBRANCH  13  25
BRANCH   3  30
ATOM     30  O   UNL     1       0.983  -4.107  -3.367  0.00  0.00    -0.491 OA
ATOM     31  H   UNL     1       0.605  -4.916  -2.998  0.00  0.00    +0.294 HD
ENDBRANCH   3  30
TORSDOF 4
