REMARK  Name = ZINC17960748
REMARK  7 active torsions:
REMARK  status: ('A' for Active; 'I' for Inactive)
REMARK    1  A    between atoms: C_1  and  C_2
REMARK    2  A    between atoms: C_4  and  C_30
REMARK    3  A    between atoms: C_5  and  N_9
REMARK    4  A    between atoms: C_6  and  C_8
REMARK    5  A    between atoms: C_10  and  C_12
REMARK    6  A    between atoms: C_12  and  N_13
REMARK    7  A    between atoms: C_14  and  C_16
REMARK                            x       y       z     vdW  Elec       q    Type
REMARK                         _______ _______ _______ _____ _____    ______ ____
ROOT
ATOM      1  N   UNL     1       3.247   0.278   0.034  0.00  0.00    -0.306 N 
ATOM      2  C   UNL     1       2.475   0.485  -1.051  0.00  0.00    +0.225 C 
ATOM      3  O   UNL     1       2.442   1.580  -1.571  0.00  0.00    -0.275 OA
ATOM      4  H   UNL     1       3.274  -0.597   0.451  0.00  0.00    +0.149 HD
ENDROOT
BRANCH   2   5
ATOM      5  C   UNL     1       1.653  -0.644  -1.617  0.00  0.00    +0.142 C 
ATOM      6  C   UNL     1       0.698  -1.139  -0.565  0.00  0.00    +0.011 A 
ATOM      7  C   UNL     1       1.167  -1.964   0.443  0.00  0.00    +0.008 A 
ATOM      8  C   UNL     1       0.306  -2.429   1.418  0.00  0.00    +0.001 A 
ATOM      9  C   UNL     1      -1.029  -2.072   1.390  0.00  0.00    +0.004 A 
ATOM     10  C   UNL     1      -1.502  -1.249   0.388  0.00  0.00    +0.046 A 
ATOM     11  C   UNL     1      -0.638  -0.778  -0.595  0.00  0.00    +0.133 A 
ATOM     12  O   UNL     1      -1.122   0.028  -1.570  0.00  0.00    -0.455 OA
ATOM     13  C   UNL     1      -0.448   0.158  -2.738  0.00  0.00    +0.133 A 
ATOM     14  C   UNL     1       0.899  -0.153  -2.823  0.00  0.00    +0.011 A 
ATOM     15  C   UNL     1       1.564  -0.012  -4.028  0.00  0.00    +0.008 A 
ATOM     16  C   UNL     1       0.888   0.436  -5.147  0.00  0.00    +0.001 A 
ATOM     17  C   UNL     1      -0.457   0.747  -5.066  0.00  0.00    +0.004 A 
ATOM     18  C   UNL     1      -1.125   0.609  -3.866  0.00  0.00    +0.046 A 
ENDBRANCH   2   5
BRANCH   1  19
ATOM     19  C   UNL     1       4.046   1.376   0.585  0.00  0.00    +0.200 C 
BRANCH  19  21
ATOM     20  N   UNL     1       5.621   1.728   2.459  0.00  0.00    -0.284 N 
ATOM     21  C   UNL     1       4.813   0.886   1.786  0.00  0.00    +0.234 C 
ATOM     22  O   UNL     1       4.703  -0.267   2.147  0.00  0.00    -0.274 OA
ATOM     23  H   UNL     1       5.750   2.635   2.140  0.00  0.00    +0.155 HD
BRANCH  20  28
ATOM     24  C   UNL     1       8.267  -0.027   7.160  0.00  0.00    +0.044 C 
ATOM     25  C   UNL     1       7.564   0.439   5.912  0.00  0.00    -0.050 A 
ATOM     26  C   UNL     1       8.289   1.027   4.891  0.00  0.00    +0.008 A 
ATOM     27  C   UNL     1       7.647   1.455   3.745  0.00  0.00    -0.029 A 
ATOM     28  C   UNL     1       6.274   1.295   3.619  0.00  0.00    +0.039 A 
ATOM     29  C   UNL     1       5.548   0.709   4.648  0.00  0.00    -0.029 A 
ATOM     30  C   UNL     1       6.196   0.278   5.789  0.00  0.00    +0.008 A 
ATOM     31  C   UNL     1       4.057   0.538   4.517  0.00  0.00    +0.045 C 
ATOM     32  C   UNL     1       8.438   2.096   2.633  0.00  0.00    +0.045 C 
ENDBRANCH  20  28
ENDBRANCH  19  21
ENDBRANCH   1  19
TORSDOF 4
