REMARK  Name = ZINC64021140
REMARK  7 active torsions:
REMARK  status: ('A' for Active; 'I' for Inactive)
REMARK    1  A    between atoms: C_1  and  N_2
REMARK    2  A    between atoms: N_2  and  C_3
REMARK    3  A    between atoms: N_2  and  S_15
REMARK    4  A    between atoms: C_3  and  C_4
REMARK    5  A    between atoms: C_9  and  O_10
REMARK    6  A    between atoms: O_10  and  C_11
REMARK    7  A    between atoms: S_15  and  C_18
REMARK                            x       y       z     vdW  Elec       q    Type
REMARK                         _______ _______ _______ _____ _____    ______ ____
ROOT
ATOM      1  S   UNL     1      -0.143  -0.815  -1.423  0.00  0.00    +0.061 S 
ATOM      2  O   UNL     1      -0.858  -2.009  -1.138  0.00  0.00    -0.153 OA
ATOM      3  O   UNL     1      -0.587   0.126  -2.392  0.00  0.00    -0.153 OA
ENDROOT
BRANCH   1   4
ATOM      4  C   UNL     1       1.482  -1.301  -1.900  0.00  0.00    +0.107 A 
ATOM      5  C   UNL     1       2.248  -0.431  -2.701  0.00  0.00    +0.030 A 
ATOM      6  C   UNL     1       3.501  -0.745  -3.102  0.00  0.00    +0.027 A 
ATOM      7  C   UNL     1       4.072  -1.984  -2.710  0.00  0.00    +0.055 A 
ATOM      8  N   UNL     1       5.290  -2.316  -3.084  0.00  0.00    -0.276 N 
ATOM      9  C   UNL     1       5.811  -3.499  -2.699  0.00  0.00    +0.304 C 
ATOM     10  O   UNL     1       6.934  -3.812  -3.040  0.00  0.00    -0.265 OA
ATOM     11  C   UNL     1       4.998  -4.422  -1.849  0.00  0.00    +0.304 C 
ATOM     12  O   UNL     1       5.455  -5.490  -1.495  0.00  0.00    -0.265 OA
ATOM     13  N   UNL     1       3.752  -4.060  -1.477  0.00  0.00    -0.276 N 
ATOM     14  C   UNL     1       3.264  -2.901  -1.865  0.00  0.00    +0.057 A 
ATOM     15  C   UNL     1       1.958  -2.495  -1.483  0.00  0.00    +0.053 A 
ATOM     16  H   UNL     1       3.218  -4.653  -0.926  0.00  0.00    +0.155 HD
ATOM     17  H   UNL     1       5.810  -1.712  -3.636  0.00  0.00    +0.155 HD
ENDBRANCH   1   4
BRANCH   1  19
ATOM     18  C   UNL     1       0.086   1.471   0.005  0.00  0.00    +0.132 C 
ATOM     19  N   UNL     1      -0.008   0.009   0.007  0.00  0.00    -0.175 NA
BRANCH  19  20
ATOM     20  C   UNL     1       0.018  -0.725   1.275  0.00  0.00    +0.147 C 
BRANCH  20  21
ATOM     21  C   UNL     1      -1.369  -0.762   1.863  0.00  0.00    +0.010 A 
ATOM     22  C   UNL     1      -2.436  -0.254   1.149  0.00  0.00    +0.008 A 
ATOM     23  C   UNL     1      -3.709  -0.286   1.688  0.00  0.00    +0.001 A 
ATOM     24  C   UNL     1      -3.917  -0.828   2.943  0.00  0.00    +0.004 A 
ATOM     25  C   UNL     1      -2.853  -1.338   3.662  0.00  0.00    +0.046 A 
ATOM     26  C   UNL     1      -1.575  -1.311   3.120  0.00  0.00    +0.134 A 
BRANCH  26  27
ATOM     27  O   UNL     1      -0.528  -1.817   3.823  0.00  0.00    -0.405 OA
BRANCH  27  28
ATOM     28  C   UNL     1      -0.815  -2.366   5.110  0.00  0.00    +0.575 C 
ATOM     29  F   UNL     1      -1.722  -3.422   4.975  0.00  0.00    -0.133 F 
ATOM     30  F   UNL     1       0.368  -2.838   5.690  0.00  0.00    -0.133 F 
ATOM     31  F   UNL     1      -1.371  -1.375   5.926  0.00  0.00    -0.133 F 
ENDBRANCH  27  28
ENDBRANCH  26  27
ENDBRANCH  20  21
ENDBRANCH  19  20
ENDBRANCH   1  19
TORSDOF 6
