REMARK  Name = ZINC20417674
REMARK  7 active torsions:
REMARK  status: ('A' for Active; 'I' for Inactive)
REMARK    1  A    between atoms: C_1  and  C_2
REMARK    2  A    between atoms: C_6  and  N_9
REMARK    3  A    between atoms: C_7  and  C_8
REMARK    4  A    between atoms: N_11  and  C_12
REMARK    5  A    between atoms: C_15  and  O_18
REMARK    6  A    between atoms: O_18  and  C_19
REMARK    7  A    between atoms: C_24  and  C_26
REMARK                            x       y       z     vdW  Elec       q    Type
REMARK                         _______ _______ _______ _____ _____    ______ ____
ROOT
ATOM      1  N   UNL     1       1.332   3.459   0.190  0.00  0.00    -0.286 N 
ATOM      2  C   UNL     1       0.151   4.149   0.334  0.00  0.00    +0.190 C 
ATOM      3  N   UNL     1      -0.977   3.495   0.478  0.00  0.00    -0.328 N 
ATOM      4  N   UNL     1       0.153   5.526   0.326  0.00  0.00    -0.236 N 
ATOM      5  C   UNL     1      -0.925   6.382   0.328  0.00  0.00    +0.140 A 
ATOM      6  N   UNL     1      -2.164   5.934   0.339  0.00  0.00    -0.283 NA
ATOM      7  C   UNL     1      -0.642   7.746   0.323  0.00  0.00    +0.058 A 
ATOM      8  C   UNL     1       0.662   8.103   0.305  0.00  0.00    +0.007 A 
ATOM      9  S   UNL     1       1.493   6.585   0.303  0.00  0.00    -0.008 S 
ATOM     10  C   UNL     1       1.251   9.490   0.290  0.00  0.00    +0.053 C 
ATOM     11  H   UNL     1       1.490   2.519   0.740  0.00  0.00    +0.155 HD
ATOM     12  H   UNL     1      -2.906   6.558   0.341  0.00  0.00    +0.188 HD
ATOM     13  H   UNL     1      -1.908   4.043   0.685  0.00  0.00    +0.169 HD
ENDROOT
BRANCH   1  19
ATOM     14  C   UNL     1       6.052   3.540  -1.180  0.00  0.00    +0.044 C 
ATOM     15  C   UNL     1       4.629   4.009  -1.341  0.00  0.00    -0.046 A 
ATOM     16  C   UNL     1       4.310   4.928  -2.324  0.00  0.00    +0.004 A 
ATOM     17  C   UNL     1       3.006   5.360  -2.474  0.00  0.00    +0.002 A 
ATOM     18  C   UNL     1       2.016   4.875  -1.642  0.00  0.00    +0.023 A 
ATOM     19  C   UNL     1       2.332   3.952  -0.654  0.00  0.00    +0.037 A 
ATOM     20  C   UNL     1       3.644   3.519  -0.506  0.00  0.00    -0.026 A 
ATOM     21  C   UNL     1       3.991   2.517   0.565  0.00  0.00    +0.046 C 
ENDBRANCH   1  19
BRANCH   3  22
ATOM     22  C   UNL     1      -0.996   2.129   0.370  0.00  0.00    +0.042 A 
ATOM     23  C   UNL     1      -0.388   1.504  -0.720  0.00  0.00    +0.029 A 
ATOM     24  C   UNL     1      -0.405   0.128  -0.821  0.00  0.00    +0.047 A 
ATOM     25  C   UNL     1      -1.034  -0.634   0.153  0.00  0.00    +0.120 A 
ATOM     26  C   UNL     1      -1.645  -0.016   1.236  0.00  0.00    +0.047 A 
ATOM     27  C   UNL     1      -1.628   1.358   1.348  0.00  0.00    +0.029 A 
BRANCH  25  28
ATOM     28  O   UNL     1      -1.053  -1.989   0.047  0.00  0.00    -0.495 OA
ATOM     29  C   UNL     1      -0.313  -2.566  -1.032  0.00  0.00    +0.277 C 
ENDBRANCH  25  28
ENDBRANCH   3  22
TORSDOF 3
