REMARK  Name = ZINC63707979
REMARK  5 active torsions:
REMARK  status: ('A' for Active; 'I' for Inactive)
REMARK    1  A    between atoms: C_7  and  C_10
REMARK    2  A    between atoms: C_10  and  C_11
REMARK    3  A    between atoms: C_25  and  S_26
REMARK    4  A    between atoms: S_26  and  C_27
REMARK    5  A    between atoms: C_27  and  C_28
REMARK                            x       y       z     vdW  Elec       q    Type
REMARK                         _______ _______ _______ _____ _____    ______ ____
ROOT
ATOM      1  C   UNL     1       0.457  -3.653  -1.462  0.00  0.00    +0.198 C 
ATOM      2  C   UNL     1      -0.427  -4.883  -1.483  0.00  0.00    +0.252 C 
ATOM      3  O   UNL     1      -0.194  -5.962  -0.982  0.00  0.00    -0.272 OA
ATOM      4  N   UNL     1      -1.530  -4.523  -2.177  0.00  0.00    -0.200 N 
ATOM      5  C   UNL     1      -1.429  -3.205  -2.590  0.00  0.00    +0.139 C 
ATOM      6  N   UNL     1      -0.309  -2.649  -2.212  0.00  0.00    -0.255 NA
ATOM      7  C   UNL     1      -2.559  -2.651  -3.367  0.00  0.00    +0.041 A 
ATOM      8  C   UNL     1      -2.550  -1.338  -3.826  0.00  0.00    +0.013 A 
ATOM      9  C   UNL     1      -3.626  -0.862  -4.547  0.00  0.00    +0.001 A 
ATOM     10  C   UNL     1      -4.711  -1.683  -4.816  0.00  0.00    +0.002 A 
ATOM     11  C   UNL     1      -4.738  -2.986  -4.371  0.00  0.00    +0.028 A 
ATOM     12  C   UNL     1      -3.660  -3.489  -3.638  0.00  0.00    +0.077 A 
ATOM     13  N   UNL     1      -3.652  -4.767  -3.183  0.00  0.00    -0.225 NA
ATOM     14  C   UNL     1      -2.654  -5.256  -2.498  0.00  0.00    +0.169 C 
ENDROOT
BRANCH   1  15
ATOM     15  C   UNL     1       0.691  -3.186  -0.024  0.00  0.00    +0.069 C 
BRANCH  15  22
ATOM     16  C   UNL     1      -0.016   1.348   0.009  0.00  0.00    +0.001 A 
ATOM     17  C   UNL     1       1.166   2.101   0.002  0.00  0.00    +0.002 A 
ATOM     18  C   UNL     1       2.391   1.535  -0.013  0.00  0.00    +0.026 A 
ATOM     19  C   UNL     1       2.529   0.120  -0.022  0.00  0.00    +0.043 A 
ATOM     20  N   UNL     1       3.587  -0.654  -0.037  0.00  0.00    -0.380 N 
ATOM     21  C   UNL     1       3.143  -2.053  -0.041  0.00  0.00    +0.144 C 
ATOM     22  C   UNL     1       1.631  -2.008  -0.025  0.00  0.00    -0.039 C 
ATOM     23  C   UNL     1       1.295  -0.698  -0.014  0.00  0.00    -0.001 A 
ATOM     24  C   UNL     1       0.002  -0.004   0.002  0.00  0.00    +0.010 A 
ATOM     25  H   UNL     1       4.509  -0.353  -0.045  0.00  0.00    +0.160 HD
ENDBRANCH  15  22
ENDBRANCH   1  15
BRANCH  14  26
ATOM     26  S   UNL     1      -2.747  -6.930  -1.956  0.00  0.00    -0.080 S 
BRANCH  26  27
ATOM     27  C   UNL     1      -4.351  -7.504  -2.579  0.00  0.00    +0.172 C 
BRANCH  27  28
ATOM     28  C   UNL     1      -4.559  -8.942  -2.180  0.00  0.00    +0.221 C 
ATOM     29  O   UNL     1      -3.709  -9.523  -1.538  0.00  0.00    -0.275 OA
ATOM     30  N   UNL     1      -5.690  -9.584  -2.536  0.00  0.00    -0.329 N 
ATOM     31  H   UNL     1      -6.370  -9.119  -3.050  0.00  0.00    +0.145 HD
ATOM     32  H   UNL     1      -5.824 -10.509  -2.279  0.00  0.00    +0.145 HD
ENDBRANCH  27  28
ENDBRANCH  26  27
ENDBRANCH  14  26
TORSDOF 5
