REMARK  Name = ZINC40157449
REMARK  5 active torsions:
REMARK  status: ('A' for Active; 'I' for Inactive)
REMARK    1  A    between atoms: C_1  and  C_2
REMARK    2  A    between atoms: C_2  and  C_3
REMARK    3  A    between atoms: C_2  and  C_4
REMARK    4  A    between atoms: C_14  and  C_16
REMARK    5  A    between atoms: C_22  and  C_24
REMARK                            x       y       z     vdW  Elec       q    Type
REMARK                         _______ _______ _______ _____ _____    ______ ____
ROOT
ATOM      1  C   UNL     1      -1.409  -0.555  -0.010  0.00  0.00    -0.044 A 
ATOM      2  C   UNL     1      -2.281  -0.160   0.988  0.00  0.00    +0.006 A 
ATOM      3  C   UNL     1      -3.568  -0.657   1.014  0.00  0.00    +0.024 A 
ATOM      4  C   UNL     1      -3.988  -1.553   0.037  0.00  0.00    +0.039 A 
ATOM      5  C   UNL     1      -3.115  -1.946  -0.965  0.00  0.00    -0.026 A 
ATOM      6  C   UNL     1      -1.826  -1.440  -0.985  0.00  0.00    +0.009 A 
ATOM      7  C   UNL     1      -3.538  -2.906  -2.045  0.00  0.00    +0.038 C 
ATOM      8  C   UNL     1      -4.756  -3.715  -1.596  0.00  0.00    +0.024 C 
ATOM      9  C   UNL     1      -5.835  -2.748  -1.091  0.00  0.00    +0.114 C 
ATOM     10  N   UNL     1      -5.298  -2.050   0.085  0.00  0.00    -0.270 N 
ATOM     11  C   UNL     1      -6.052  -1.890   1.190  0.00  0.00    +0.240 C 
ATOM     12  O   UNL     1      -5.565  -1.411   2.192  0.00  0.00    -0.273 OA
ENDROOT
BRANCH  11  13
ATOM     13  C   UNL     1      -7.500  -2.306   1.181  0.00  0.00    +0.163 C 
ATOM     14  C   UNL     1      -8.353  -1.222   0.488  0.00  0.00    +0.033 C 
ATOM     15  C   UNL     1      -9.648  -1.199   1.343  0.00  0.00    +0.021 C 
ATOM     16  C   UNL     1      -9.088  -1.467   2.762  0.00  0.00    +0.109 C 
ATOM     17  N   UNL     1      -7.992  -2.437   2.560  0.00  0.00    -0.283 N 
ATOM     18  C   UNL     1      -7.521  -3.298   3.484  0.00  0.00    +0.283 C 
ATOM     19  O   UNL     1      -6.610  -4.054   3.201  0.00  0.00    -0.267 OA
BRANCH  18  20
ATOM     20  C   UNL     1      -8.105  -3.324   4.828  0.00  0.00    +0.189 A 
ATOM     21  C   UNL     1      -7.721  -4.138   5.855  0.00  0.00    +0.054 A 
ATOM     22  C   UNL     1      -8.544  -3.825   6.948  0.00  0.00    +0.042 A 
ATOM     23  C   UNL     1      -9.384  -2.846   6.546  0.00  0.00    +0.196 A 
ATOM     24  O   UNL     1      -9.113  -2.543   5.270  0.00  0.00    -0.458 OA
ENDBRANCH  18  20
ENDBRANCH  11  13
BRANCH   1  26
ATOM     25  C   UNL     1      -0.045   1.510  -0.158  0.00  0.00    +0.012 C 
ATOM     26  C   UNL     1      -0.003  -0.014  -0.038  0.00  0.00    +0.013 C 
ATOM     27  C   UNL     1       0.720  -0.404   1.253  0.00  0.00    +0.012 C 
ENDBRANCH   1  26
TORSDOF 3
