REMARK  Name = ZINC62039466
REMARK  7 active torsions:
REMARK  status: ('A' for Active; 'I' for Inactive)
REMARK    1  A    between atoms: C_1  and  N_2
REMARK    2  A    between atoms: N_5  and  C_8
REMARK    3  A    between atoms: C_8  and  C_9
REMARK    4  A    between atoms: C_12  and  C_15
REMARK    5  A    between atoms: C_17  and  C_20
REMARK    6  A    between atoms: C_20  and  C_21
REMARK    7  A    between atoms: C_27  and  C_29
REMARK                            x       y       z     vdW  Elec       q    Type
REMARK                         _______ _______ _______ _____ _____    ______ ____
ROOT
ATOM      1  C   UNL     1       1.422  -5.800   6.265  0.00  0.00    +0.109 A 
ATOM      2  N   UNL     1       0.774  -6.056   7.393  0.00  0.00    -0.243 NA
ATOM      3  C   UNL     1       1.409  -6.461   8.467  0.00  0.00    +0.058 A 
ATOM      4  C   UNL     1       2.758  -6.625   8.435  0.00  0.00    +0.071 A 
ATOM      5  S   UNL     1       3.106  -6.168   6.741  0.00  0.00    -0.075 S 
ENDROOT
BRANCH   1   9
ATOM      6  C   UNL     1      -0.094  -4.478   2.524  0.00  0.00    -0.033 A 
ATOM      7  C   UNL     1       1.262  -4.705   2.676  0.00  0.00    +0.005 A 
ATOM      8  C   UNL     1       1.761  -5.134   3.889  0.00  0.00    +0.011 A 
ATOM      9  C   UNL     1       0.895  -5.339   4.963  0.00  0.00    +0.007 A 
ATOM     10  C   UNL     1      -0.472  -5.109   4.803  0.00  0.00    +0.011 A 
ATOM     11  C   UNL     1      -0.958  -4.675   3.586  0.00  0.00    +0.005 A 
BRANCH   6  12
ATOM     12  C   UNL     1      -0.632  -4.009   1.196  0.00  0.00    +0.119 C 
BRANCH  12  17
ATOM     13  C   UNL     1      -0.018   1.465   0.010  0.00  0.00    -0.096 C 
ATOM     14  N   UNL     1       0.002  -0.004   0.002  0.00  0.00    +0.379 N 
ATOM     15  C   UNL     1      -1.376  -0.512   0.011  0.00  0.00    -0.064 C 
ATOM     16  C   UNL     1      -1.356  -2.042  -0.017  0.00  0.00    +0.066 C 
ATOM     17  N   UNL     1      -0.624  -2.541   1.156  0.00  0.00    -0.302 NA
ATOM     18  C   UNL     1       0.750  -2.020   1.175  0.00  0.00    +0.066 C 
ATOM     19  C   UNL     1       0.713  -0.490   1.192  0.00  0.00    -0.064 C 
ATOM     20  H   UNL     1       0.475  -0.329  -0.828  0.00  0.00    -0.082 HD
ENDBRANCH  12  17
ENDBRANCH   6  12
ENDBRANCH   1   9
BRANCH   3  21
ATOM     21  C   UNL     1       0.644  -6.744   9.734  0.00  0.00    +0.152 C 
BRANCH  21  22
ATOM     22  C   UNL     1      -0.163  -5.530  10.115  0.00  0.00    +0.225 C 
ATOM     23  O   UNL     1      -0.122  -4.533   9.425  0.00  0.00    -0.275 OA
ATOM     24  N   UNL     1      -0.932  -5.551  11.222  0.00  0.00    -0.263 N 
ATOM     25  C   UNL     1      -1.677  -4.431  11.574  0.00  0.00    +0.188 A 
ATOM     26  N   UNL     1      -1.770  -3.268  10.959  0.00  0.00    -0.126 NA
ATOM     27  N   UNL     1      -2.496  -2.334  11.404  0.00  0.00    -0.144 NA
ATOM     28  C   UNL     1      -3.181  -2.527  12.513  0.00  0.00    +0.107 A 
ATOM     29  S   UNL     1      -2.703  -4.207  12.893  0.00  0.00    -0.035 S 
ATOM     30  H   UNL     1      -0.965  -6.348  11.774  0.00  0.00    +0.157 HD
BRANCH  28  31
ATOM     31  C   UNL     1      -4.109  -1.597  13.250  0.00  0.00    +0.047 C 
ATOM     32  C   UNL     1      -5.270  -1.203  12.334  0.00  0.00    +0.010 C 
ATOM     33  C   UNL     1      -6.213  -0.258  13.082  0.00  0.00    +0.001 C 
ATOM     34  C   UNL     1      -5.447   0.997  13.504  0.00  0.00    +0.000 C 
ATOM     35  C   UNL     1      -4.286   0.604  14.420  0.00  0.00    +0.001 C 
ATOM     36  C   UNL     1      -3.344  -0.341  13.672  0.00  0.00    +0.010 C 
ENDBRANCH  28  31
ENDBRANCH  21  22
ENDBRANCH   3  21
TORSDOF 6
