REMARK  Name = ZINC39405899
REMARK  8 active torsions:
REMARK  status: ('A' for Active; 'I' for Inactive)
REMARK    1  A    between atoms: C_1  and  C_2
REMARK    2  A    between atoms: C_3  and  C_10
REMARK    3  A    between atoms: N_6  and  C_8
REMARK    4  A    between atoms: C_10  and  N_11
REMARK    5  A    between atoms: C_14  and  C_17
REMARK    6  A    between atoms: C_19  and  C_23
REMARK    7  A    between atoms: C_23  and  C_24
REMARK    8  A    between atoms: C_24  and  C_25
REMARK                            x       y       z     vdW  Elec       q    Type
REMARK                         _______ _______ _______ _____ _____    ______ ____
ROOT
ATOM      1  N   UNL     1      -2.578  -0.617  -1.533  0.00  0.00    +0.382 N 
ATOM      2  C   UNL     1      -2.953  -1.882  -2.176  0.00  0.00    -0.078 C 
ATOM      3  C   UNL     1      -3.471  -1.605  -3.590  0.00  0.00    -0.013 C 
ATOM      4  C   UNL     1      -4.695  -0.689  -3.508  0.00  0.00    +0.016 C 
ATOM      5  C   UNL     1      -4.311   0.596  -2.769  0.00  0.00    -0.013 C 
ATOM      6  C   UNL     1      -3.762   0.238  -1.387  0.00  0.00    -0.078 C 
ATOM      7  H   UNL     1      -1.891  -0.144  -2.100  0.00  0.00    -0.081 HD
ENDROOT
BRANCH   4   8
ATOM      8  C   UNL     1      -5.170  -0.343  -4.921  0.00  0.00    +0.158 C 
ATOM      9  C   UNL     1      -5.472  -1.605  -5.710  0.00  0.00    -0.023 C 
ATOM     10  C   UNL     1      -4.616  -1.557  -6.733  0.00  0.00    +0.136 C 
ATOM     11  N   UNL     1      -3.849  -0.447  -6.665  0.00  0.00    -0.162 NA
ATOM     12  N   UNL     1      -4.087   0.285  -5.696  0.00  0.00    -0.180 NA
BRANCH   9  13
ATOM     13  C   UNL     1      -6.498  -2.666  -5.407  0.00  0.00    +0.039 C 
BRANCH  13  14
ATOM     14  C   UNL     1      -7.849  -2.252  -5.996  0.00  0.00    +0.039 C 
BRANCH  14  15
ATOM     15  C   UNL     1      -8.901  -3.252  -5.591  0.00  0.00    -0.047 A 
ATOM     16  C   UNL     1      -9.149  -4.355  -6.386  0.00  0.00    +0.003 A 
ATOM     17  C   UNL     1     -10.114  -5.272  -6.015  0.00  0.00    +0.000 A 
ATOM     18  C   UNL     1     -10.832  -5.086  -4.848  0.00  0.00    +0.000 A 
ATOM     19  C   UNL     1     -10.584  -3.983  -4.053  0.00  0.00    +0.000 A 
ATOM     20  C   UNL     1      -9.615  -3.068  -4.422  0.00  0.00    +0.003 A 
ENDBRANCH  14  15
ENDBRANCH  13  14
ENDBRANCH   9  13
ENDBRANCH   4   8
BRANCH   1  21
ATOM     21  C   UNL     1      -2.009  -0.894  -0.207  0.00  0.00    -0.043 C 
BRANCH  21  24
ATOM     22  C   UNL     1      -1.670  -3.929   0.012  0.00  0.00    +0.061 C 
ATOM     23  C   UNL     1      -0.554  -2.957  -0.272  0.00  0.00    +0.016 C 
ATOM     24  C   UNL     1      -0.716  -1.652  -0.363  0.00  0.00    -0.035 C 
ATOM     25  C   UNL     1       0.646  -1.062  -0.656  0.00  0.00    +0.192 C 
ATOM     26  N   UNL     1       1.546  -2.231  -0.706  0.00  0.00    -0.211 NA
ATOM     27  N   UNL     1       0.763  -3.323  -0.464  0.00  0.00    -0.281 N 
ATOM     28  C   UNL     1       2.207  -2.331  -2.015  0.00  0.00    +0.129 C 
ATOM     29 CL   UNL     1       1.142   0.064   0.663  0.00  0.00    -0.098 Cl
ATOM     30  H   UNL     1       1.089  -4.236  -0.432  0.00  0.00    +0.166 HD
ENDBRANCH  21  24
ENDBRANCH   1  21
TORSDOF 6
