REMARK  Name = ZINC24717688
REMARK  16 active torsions:
REMARK  status: ('A' for Active; 'I' for Inactive)
REMARK    1  A    between atoms: C_1  and  C_2
REMARK    2  A    between atoms: C_2  and  C_3
REMARK    3  A    between atoms: C_2  and  N_4
REMARK    4  A    between atoms: N_4  and  S_5
REMARK    5  A    between atoms: S_5  and  C_8
REMARK    6  A    between atoms: C_8  and  C_9
REMARK    7  A    between atoms: C_14  and  C_15
REMARK    8  A    between atoms: C_15  and  N_16
REMARK    9  A    between atoms: N_16  and  C_17
REMARK   10  A    between atoms: C_20  and  S_26
REMARK   11  A    between atoms: C_22  and  N_23
REMARK   12  A    between atoms: S_26  and  N_29
REMARK   13  A    between atoms: N_29  and  C_30
REMARK   14  A    between atoms: C_30  and  C_31
REMARK   15  A    between atoms: C_30  and  C_32
REMARK   16  A    between atoms: C_30  and  C_33
REMARK                            x       y       z     vdW  Elec       q    Type
REMARK                         _______ _______ _______ _____ _____    ______ ____
ROOT
ATOM      1  N   UNL     1      -0.710   5.199  -3.913  0.00  0.00    -0.338 N 
ATOM      2  H   UNL     1      -1.555   5.098  -4.611  0.00  0.00    +0.146 HD
ENDROOT
BRANCH   1   3
ATOM      3  C   UNL     1      -0.619   4.359  -2.801  0.00  0.00    +0.058 A 
ATOM      4  C   UNL     1       0.360   4.579  -1.840  0.00  0.00    +0.027 A 
ATOM      5  C   UNL     1       0.444   3.750  -0.739  0.00  0.00    +0.030 A 
ATOM      6  C   UNL     1      -0.438   2.695  -0.598  0.00  0.00    +0.108 A 
ATOM      7  C   UNL     1      -1.414   2.472  -1.552  0.00  0.00    +0.063 A 
ATOM      8  C   UNL     1      -1.507   3.301  -2.653  0.00  0.00    +0.149 A 
BRANCH   8   9
ATOM      9  N   UNL     1      -2.552   3.062  -3.674  0.00  0.00    +0.058 N 
ATOM     10  O   UNL     1      -3.395   2.202  -3.493  0.00  0.00    -0.126 OA
ATOM     11  O   UNL     1      -2.568   3.726  -4.695  0.00  0.00    -0.126 OA
ENDBRANCH   8   9
BRANCH   6  12
ATOM     12  S   UNL     1      -0.323   1.635   0.805  0.00  0.00    +0.059 S 
ATOM     13  O   UNL     1      -1.514   0.860   0.828  0.00  0.00    -0.153 OA
ATOM     14  O   UNL     1       0.077   2.450   1.898  0.00  0.00    -0.153 OA
BRANCH  12  15
ATOM     15  N   UNL     1       0.922   0.580   0.521  0.00  0.00    -0.185 NA
ATOM     16  H   UNL     1       1.754   0.525   1.238  0.00  0.00    +0.149 HD
BRANCH  15  17
ATOM     17  C   UNL     1       0.809  -0.416  -0.548  0.00  0.00    +0.032 C 
ATOM     18  C   UNL     1       0.403   0.278  -1.850  0.00  0.00    +0.029 C 
ATOM     19  C   UNL     1       2.157  -1.113  -0.740  0.00  0.00    +0.029 C 
ATOM     20  C   UNL     1      -0.251  -1.452  -0.169  0.00  0.00    +0.029 C 
ENDBRANCH  15  17
ENDBRANCH  12  15
ENDBRANCH   6  12
ENDBRANCH   1   3
BRANCH   1  21
ATOM     21  C   UNL     1       0.319   6.213  -4.151  0.00  0.00    +0.137 C 
BRANCH  21  27
ATOM     22  C   UNL     1      -0.952   7.992  -5.370  0.00  0.00    -0.020 A 
ATOM     23  C   UNL     1      -1.255   8.695  -6.521  0.00  0.00    +0.005 A 
ATOM     24  C   UNL     1      -0.617   8.386  -7.708  0.00  0.00    +0.000 A 
ATOM     25  C   UNL     1       0.323   7.373  -7.744  0.00  0.00    +0.000 A 
ATOM     26  C   UNL     1       0.630   6.674  -6.592  0.00  0.00    +0.005 A 
ATOM     27  C   UNL     1      -0.011   6.980  -5.406  0.00  0.00    -0.026 A 
BRANCH  22  28
ATOM     28  C   UNL     1      -1.647   8.329  -4.076  0.00  0.00    +0.220 C 
BRANCH  28  29
ATOM     29  S   UNL     1      -0.695   9.595  -3.191  0.00  0.00    +0.034 S 
ATOM     30  O   UNL     1       0.544   9.057  -2.750  0.00  0.00    -0.158 OA
ATOM     31  O   UNL     1      -0.739  10.825  -3.900  0.00  0.00    -0.158 OA
BRANCH  29  32
ATOM     32  N   UNL     1      -1.551   9.877  -1.802  0.00  0.00    -0.192 NA
ATOM     33  H   UNL     1      -2.140  10.802  -1.712  0.00  0.00    +0.148 HD
BRANCH  32  35
ATOM     34  C   UNL     1      -0.615   8.970   0.267  0.00  0.00    +0.025 C 
ATOM     35  C   UNL     1      -1.697   8.816  -0.803  0.00  0.00    +0.070 C 
ATOM     36  C   UNL     1      -3.077   8.916  -0.150  0.00  0.00    +0.025 C 
ENDBRANCH  32  35
ENDBRANCH  29  32
ENDBRANCH  28  29
ENDBRANCH  22  28
ENDBRANCH  21  27
ENDBRANCH   1  21
TORSDOF 11
