REMARK  Name = ZINC41515184
REMARK  7 active torsions:
REMARK  status: ('A' for Active; 'I' for Inactive)
REMARK    1  A    between atoms: C_1  and  C_2
REMARK    2  A    between atoms: C_4  and  O_32
REMARK    3  A    between atoms: C_5  and  C_21
REMARK    4  A    between atoms: C_11  and  C_12
REMARK    5  A    between atoms: C_21  and  N_22
REMARK    6  A    between atoms: C_24  and  C_31
REMARK    7  A    between atoms: C_27  and  C_30
REMARK                            x       y       z     vdW  Elec       q    Type
REMARK                         _______ _______ _______ _____ _____    ______ ____
ROOT
ATOM      1  C   UNL     1      -0.018   1.503   0.010  0.00  0.00    +0.045 C 
ATOM      2  C   UNL     1       0.002  -0.004   0.002  0.00  0.00    -0.033 A 
ATOM      3  C   UNL     1       0.006  -0.682  -1.184  0.00  0.00    +0.050 A 
ATOM      4  C   UNL     1       0.024  -2.074  -1.194  0.00  0.00    +0.122 A 
ATOM      5  C   UNL     1       0.039  -2.787  -0.007  0.00  0.00    +0.020 A 
ATOM      6  C   UNL     1       0.036  -2.114   1.208  0.00  0.00    +0.145 A 
ATOM      7  C   UNL     1       0.023  -0.709   1.206  0.00  0.00    +0.071 A 
ATOM      8  C   UNL     1       0.031  -0.291   2.619  0.00  0.00    +0.232 C 
ATOM      9  O   UNL     1       0.019   0.845   3.061  0.00  0.00    -0.283 OA
ATOM     10  C   UNL     1       0.055  -1.551   3.377  0.00  0.00    +0.176 C 
ATOM     11  C   UNL     1       0.070  -1.674   4.728  0.00  0.00    +0.062 C 
ATOM     12  O   UNL     1       0.048  -2.567   2.481  0.00  0.00    -0.451 OA
ENDROOT
BRANCH  11  13
ATOM     13  C   UNL     1       0.061  -0.475   5.575  0.00  0.00    +0.032 A 
ATOM     14  C   UNL     1       0.970   0.566   5.333  0.00  0.00    +0.132 A 
ATOM     15  C   UNL     1       0.953   1.690   6.135  0.00  0.00    +0.039 A 
ATOM     16  C   UNL     1       0.045   1.791   7.174  0.00  0.00    +0.004 A 
ATOM     17  C   UNL     1      -0.855   0.768   7.420  0.00  0.00    +0.021 A 
ATOM     18  C   UNL     1      -0.858  -0.360   6.626  0.00  0.00    +0.051 A 
ATOM     19 CL   UNL     1      -1.993  -1.638   6.933  0.00  0.00    -0.083 Cl
ATOM     20  F   UNL     1       1.858   0.469   4.319  0.00  0.00    -0.205 F 
ENDBRANCH  11  13
BRANCH   4  21
ATOM     21  O   UNL     1       0.027  -2.738  -2.378  0.00  0.00    -0.506 OA
ATOM     22  H   UNL     1       0.911  -2.919  -2.726  0.00  0.00    +0.292 HD
ENDBRANCH   4  21
BRANCH   5  23
ATOM     23  C   UNL     1       0.059  -4.294  -0.033  0.00  0.00    -0.036 C 
BRANCH  23  24
ATOM     24  N   UNL     1       1.450  -4.766  -0.048  0.00  0.00    +0.383 N 
ATOM     25  C   UNL     1       2.096  -4.339  -1.295  0.00  0.00    -0.075 C 
ATOM     26  C   UNL     1       3.567  -4.757  -1.281  0.00  0.00    -0.031 C 
ATOM     27  C   UNL     1       3.658  -6.281  -1.153  0.00  0.00    +0.003 C 
ATOM     28  C   UNL     1       2.917  -6.721   0.113  0.00  0.00    -0.031 C 
ATOM     29  C   UNL     1       1.469  -6.230   0.047  0.00  0.00    -0.075 C 
ATOM     30  C   UNL     1       2.935  -8.248   0.210  0.00  0.00    +0.005 C 
ATOM     31  C   UNL     1       4.238  -4.313  -2.583  0.00  0.00    +0.005 C 
ATOM     32  H   UNL     1       1.946  -4.372   0.737  0.00  0.00    -0.081 HD
ENDBRANCH  23  24
ENDBRANCH   5  23
TORSDOF 4
