REMARK  Name = ZINC39344711
REMARK  14 active torsions:
REMARK  status: ('A' for Active; 'I' for Inactive)
REMARK    1  A    between atoms: C_1  and  C_2
REMARK    2  A    between atoms: C_2  and  C_3
REMARK    3  A    between atoms: C_2  and  C_4
REMARK    4  A    between atoms: C_4  and  C_5
REMARK    5  A    between atoms: C_5  and  N_6
REMARK    6  A    between atoms: N_6  and  C_7
REMARK    7  A    between atoms: N_13  and  C_26
REMARK    8  A    between atoms: C_14  and  C_22
REMARK    9  A    between atoms: C_16  and  N_18
REMARK   10  A    between atoms: C_19  and  C_21
REMARK   11  A    between atoms: C_22  and  O_24
REMARK   12  A    between atoms: O_24  and  C_25
REMARK   13  A    between atoms: C_26  and  C_27
REMARK   14  A    between atoms: C_27  and  C_28
REMARK                            x       y       z     vdW  Elec       q    Type
REMARK                         _______ _______ _______ _____ _____    ______ ____
ROOT
ATOM      1  C   UNL     1       4.214   0.347  -2.354  0.00  0.00    +0.044 A 
ATOM      2  C   UNL     1       4.775  -0.288  -3.461  0.00  0.00    +0.033 A 
ATOM      3  C   UNL     1       6.138  -0.181  -3.661  0.00  0.00    +0.015 A 
ATOM      4  C   UNL     1       6.917   0.546  -2.771  0.00  0.00    +0.105 A 
ATOM      5  N   UNL     1       6.339   1.138  -1.726  0.00  0.00    -0.348 N 
ATOM      6  C   UNL     1       5.043   1.064  -1.505  0.00  0.00    +0.107 A 
ATOM      7  N   UNL     1       8.260   0.536  -3.141  0.00  0.00    -0.301 N 
ATOM      8  C   UNL     1       8.441  -0.246  -4.367  0.00  0.00    +0.208 C 
ATOM      9  C   UNL     1       7.034  -0.741  -4.741  0.00  0.00    +0.138 C 
ATOM     10  H   UNL     1       6.892   1.644  -1.109  0.00  0.00    +0.167 HD
ENDROOT
BRANCH   9  11
ATOM     11  N   UNL     1       6.640  -0.220  -6.053  0.00  0.00    -0.306 N 
ATOM     12  C   UNL     1       5.678  -0.842  -6.763  0.00  0.00    +0.210 C 
ATOM     13  O   UNL     1       5.138  -1.832  -6.317  0.00  0.00    -0.276 OA
ATOM     14  C   UNL     1       5.273  -0.306  -8.112  0.00  0.00    +0.109 C 
ATOM     15  H   UNL     1       7.072   0.572  -6.410  0.00  0.00    +0.149 HD
ENDBRANCH   9  11
BRANCH   1  16
ATOM     16  N   UNL     1       2.838   0.269  -2.108  0.00  0.00    -0.343 N 
ATOM     17  H   UNL     1       2.266  -0.235  -2.709  0.00  0.00    +0.146 HD
BRANCH  16  18
ATOM     18  C   UNL     1       2.261   0.947  -0.945  0.00  0.00    +0.102 C 
BRANCH  18  19
ATOM     19  C   UNL     1       0.751   0.704  -0.909  0.00  0.00    +0.021 C 
BRANCH  19  21
ATOM     20  C   UNL     1       0.313   2.926   0.147  0.00  0.00    +0.007 C 
ATOM     21  C   UNL     1       0.150   1.413   0.307  0.00  0.00    -0.016 C 
ATOM     22  C   UNL     1      -1.337   1.068   0.413  0.00  0.00    +0.007 C 
ENDBRANCH  19  21
ENDBRANCH  18  19
ENDBRANCH  16  18
ENDBRANCH   1  16
BRANCH   8  23
ATOM     23  C   UNL     1       9.358  -1.414  -4.111  0.00  0.00    +0.330 C 
ATOM     24  O   UNL     1       9.449  -1.878  -3.000  0.00  0.00    -0.249 OA
BRANCH  23  25
ATOM     25  O   UNL     1      10.073  -1.939  -5.119  0.00  0.00    -0.467 OA
ATOM     26  C   UNL     1      10.921  -3.045  -4.805  0.00  0.00    +0.280 C 
ENDBRANCH  23  25
ENDBRANCH   8  23
BRANCH   7  27
ATOM     27  C   UNL     1       9.335   1.210  -2.410  0.00  0.00    +0.112 C 
BRANCH  27  28
ATOM     28  C   UNL     1       9.458   2.654  -2.901  0.00  0.00    +0.056 C 
BRANCH  28  29
ATOM     29  C   UNL     1      10.591   3.336  -2.178  0.00  0.00    -0.021 A 
ATOM     30  C   UNL     1      12.008   3.296  -2.545  0.00  0.00    +0.003 A 
ATOM     31  C   UNL     1      12.728   2.685  -3.573  0.00  0.00    +0.010 A 
ATOM     32  C   UNL     1      14.083   2.845  -3.642  0.00  0.00    +0.001 A 
ATOM     33  C   UNL     1      14.751   3.611  -2.696  0.00  0.00    +0.002 A 
ATOM     34  C   UNL     1      14.060   4.224  -1.673  0.00  0.00    +0.026 A 
ATOM     35  C   UNL     1      12.681   4.074  -1.584  0.00  0.00    +0.047 A 
ATOM     36  N   UNL     1      11.730   4.545  -0.706  0.00  0.00    -0.360 N 
ATOM     37  C   UNL     1      10.491   4.100  -1.079  0.00  0.00    +0.087 A 
ATOM     38  H   UNL     1      11.912   5.112   0.060  0.00  0.00    +0.165 HD
ENDBRANCH  28  29
ENDBRANCH  27  28
ENDBRANCH   7  27
TORSDOF 10
