REMARK  Name = ZINC38849136
REMARK  4 active torsions:
REMARK  status: ('A' for Active; 'I' for Inactive)
REMARK    1  A    between atoms: C_10  and  C_11
REMARK    2  A    between atoms: C_11  and  N_12
REMARK    3  A    between atoms: C_15  and  C_18
REMARK    4  A    between atoms: N_20  and  C_21
REMARK                            x       y       z     vdW  Elec       q    Type
REMARK                         _______ _______ _______ _____ _____    ______ ____
ROOT
ATOM      1  N   UNL     1       5.270   0.612   1.317  0.00  0.00    +0.382 N 
ATOM      2  C   UNL     1       5.513  -0.554   2.174  0.00  0.00    -0.078 C 
ATOM      3  C   UNL     1       5.757  -0.093   3.613  0.00  0.00    -0.006 C 
ATOM      4  C   UNL     1       6.977   0.831   3.647  0.00  0.00    +0.071 C 
ATOM      5  C   UNL     1       6.743   2.006   2.693  0.00  0.00    -0.006 C 
ATOM      6  C   UNL     1       6.463   1.467   1.289  0.00  0.00    -0.078 C 
ATOM      7  H   UNL     1       4.490   1.138   1.682  0.00  0.00    -0.081 HD
ENDROOT
BRANCH   4   8
ATOM      8  C   UNL     1       7.176   1.351   5.048  0.00  0.00    +0.216 C 
ATOM      9  O   UNL     1       6.417   1.017   5.932  0.00  0.00    -0.276 OA
ATOM     10  N   UNL     1       8.197   2.188   5.317  0.00  0.00    -0.312 N 
ATOM     11  H   UNL     1       8.805   2.456   4.609  0.00  0.00    +0.149 HD
BRANCH  10  12
ATOM     12  C   UNL     1       8.391   2.694   6.678  0.00  0.00    +0.076 C 
ATOM     13  C   UNL     1       7.572   3.988   6.894  0.00  0.00    +0.026 C 
ATOM     14  C   UNL     1       8.638   5.079   7.218  0.00  0.00    -0.009 C 
ATOM     15  C   UNL     1       9.147   4.715   8.646  0.00  0.00    +0.004 C 
ATOM     16  C   UNL     1       9.964   3.417   8.451  0.00  0.00    +0.005 C 
ATOM     17  C   UNL     1       9.874   3.123   6.893  0.00  0.00    +0.010 C 
ATOM     18  C   UNL     1       9.834   4.590   6.328  0.00  0.00    +0.009 C 
ENDBRANCH  10  12
ENDBRANCH   4   8
BRANCH   1  19
ATOM     19  C   UNL     1       4.960   0.161  -0.046  0.00  0.00    -0.042 C 
BRANCH  19  29
ATOM     20  C   UNL     1      -0.016   1.357   0.009  0.00  0.00    +0.001 A 
ATOM     21  C   UNL     1       1.169   2.091   0.002  0.00  0.00    +0.001 A 
ATOM     22  C   UNL     1       2.378   1.468  -0.013  0.00  0.00    +0.009 A 
ATOM     23  C   UNL     1       2.438   0.064  -0.021  0.00  0.00    -0.017 A 
ATOM     24  C   UNL     1       1.233  -0.683  -0.013  0.00  0.00    -0.018 A 
ATOM     25  C   UNL     1       0.002  -0.004   0.002  0.00  0.00    +0.008 A 
ATOM     26  C   UNL     1       1.292  -2.087  -0.021  0.00  0.00    +0.008 A 
ATOM     27  C   UNL     1       2.502  -2.709  -0.036  0.00  0.00    +0.001 A 
ATOM     28  C   UNL     1       3.687  -1.976  -0.043  0.00  0.00    +0.002 A 
ATOM     29  C   UNL     1       3.668  -0.615  -0.037  0.00  0.00    -0.056 A 
ENDBRANCH  19  29
ENDBRANCH   1  19
TORSDOF 4
