REMARK  Name = ZINC62320534
REMARK  3 active torsions:
REMARK  status: ('A' for Active; 'I' for Inactive)
REMARK    1  A    between atoms: C_6  and  C_7
REMARK    2  A    between atoms: N_11  and  S_13
REMARK    3  A    between atoms: S_13  and  C_16
REMARK                            x       y       z     vdW  Elec       q    Type
REMARK                         _______ _______ _______ _____ _____    ______ ____
ROOT
ATOM      1  C   UNL     1      -1.294  -0.774   0.010  0.00  0.00    +0.036 C 
ATOM      2  C   UNL     1      -2.167  -0.366   1.226  0.00  0.00    +0.026 C 
ATOM      3  C   UNL     1      -3.591  -0.684   0.707  0.00  0.00    +0.110 C 
ATOM      4  N   UNL     1      -3.563  -0.319  -0.721  0.00  0.00    -0.176 NA
ATOM      5  C   UNL     1      -2.170  -0.380  -1.198  0.00  0.00    +0.117 C 
ENDROOT
BRANCH   1  11
ATOM      6  C   UNL     1      -0.017   1.378   0.010  0.00  0.00    +0.008 A 
ATOM      7  C   UNL     1       1.170   2.088   0.002  0.00  0.00    +0.050 A 
ATOM      8  C   UNL     1       2.380   1.416  -0.013  0.00  0.00    +0.166 A 
ATOM      9  C   UNL     1       2.399   0.023  -0.021  0.00  0.00    +0.166 A 
ATOM     10  C   UNL     1       1.207  -0.682  -0.014  0.00  0.00    +0.053 A 
ATOM     11  C   UNL     1       0.002  -0.004   0.002  0.00  0.00    -0.039 A 
ATOM     12  O   UNL     1       3.698  -0.395  -0.036  0.00  0.00    -0.453 OA
ATOM     13  C   UNL     1       4.466   0.750  -0.450  0.00  0.00    +0.466 C 
ATOM     14  O   UNL     1       3.668   1.870  -0.024  0.00  0.00    -0.453 OA
ENDBRANCH   1  11
BRANCH   4  15
ATOM     15  S   UNL     1      -4.879   0.089  -1.639  0.00  0.00    +0.062 S 
ATOM     16  O   UNL     1      -4.531  -0.181  -2.990  0.00  0.00    -0.153 OA
ATOM     17  O   UNL     1      -6.010  -0.500  -1.012  0.00  0.00    -0.153 OA
BRANCH  15  18
ATOM     18  C   UNL     1      -5.084   1.834  -1.511  0.00  0.00    +0.124 A 
ATOM     19  C   UNL     1      -5.872   2.376  -0.506  0.00  0.00    +0.033 A 
ATOM     20  C   UNL     1      -6.005   3.754  -0.444  0.00  0.00    +0.042 A 
ATOM     21  C   UNL     1      -5.352   4.538  -1.379  0.00  0.00    +0.129 A 
ATOM     22  N   UNL     1      -4.611   3.986  -2.321  0.00  0.00    -0.242 NA
ATOM     23  C   UNL     1      -4.458   2.679  -2.407  0.00  0.00    +0.141 A 
ATOM     24 CL   UNL     1      -5.510   6.265  -1.312  0.00  0.00    -0.062 Cl
ENDBRANCH  15  18
ENDBRANCH   4  15
TORSDOF 3
