REMARK  Name = ZINC14279936
REMARK  8 active torsions:
REMARK  status: ('A' for Active; 'I' for Inactive)
REMARK    1  A    between atoms: C_8  and  C_13
REMARK    2  A    between atoms: C_13  and  C_14
REMARK    3  A    between atoms: C_14  and  C_15
REMARK    4  A    between atoms: N_17  and  N_18
REMARK    5  A    between atoms: C_19  and  C_21
REMARK    6  A    between atoms: C_24  and  C_27
REMARK    7  A    between atoms: C_27  and  S_28
REMARK    8  A    between atoms: S_28  and  C_29
REMARK                            x       y       z     vdW  Elec       q    Type
REMARK                         _______ _______ _______ _____ _____    ______ ____
ROOT
ATOM      1  N   UNL     1       2.865   0.981   5.911  0.00  0.00    -0.230 N 
ATOM      2  C   UNL     1       3.144   0.040   6.835  0.00  0.00    +0.260 C 
ATOM      3  O   UNL     1       3.113  -1.137   6.533  0.00  0.00    -0.269 OA
ATOM      4  H   UNL     1       2.890   1.920   6.152  0.00  0.00    +0.173 HD
ENDROOT
BRANCH   2   5
ATOM      5  C   UNL     1       3.488   0.440   8.216  0.00  0.00    +0.038 A 
ATOM      6  C   UNL     1       3.530   1.791   8.565  0.00  0.00    +0.013 A 
ATOM      7  C   UNL     1       3.848   2.157   9.857  0.00  0.00    +0.005 A 
ATOM      8  C   UNL     1       4.134   1.188  10.803  0.00  0.00    -0.037 A 
ATOM      9  C   UNL     1       4.098  -0.152  10.462  0.00  0.00    +0.005 A 
ATOM     10  C   UNL     1       3.778  -0.532   9.175  0.00  0.00    +0.013 A 
BRANCH   8  11
ATOM     11  C   UNL     1       4.485   1.596  12.211  0.00  0.00    +0.109 C 
BRANCH  11  12
ATOM     12  S   UNL     1       6.279   1.825  12.344  0.00  0.00    -0.121 S 
BRANCH  12  13
ATOM     13  C   UNL     1       6.526   2.293  14.025  0.00  0.00    +0.008 A 
ATOM     14  C   UNL     1       5.438   2.406  14.882  0.00  0.00    +0.016 A 
ATOM     15  C   UNL     1       5.635   2.768  16.201  0.00  0.00    +0.021 A 
ATOM     16  C   UNL     1       6.912   3.028  16.665  0.00  0.00    +0.041 A 
ATOM     17  C   UNL     1       7.997   2.921  15.812  0.00  0.00    +0.021 A 
ATOM     18  C   UNL     1       7.807   2.555  14.494  0.00  0.00    +0.016 A 
ATOM     19 CL   UNL     1       7.155   3.488  18.321  0.00  0.00    -0.084 Cl
ENDBRANCH  12  13
ENDBRANCH  11  12
ENDBRANCH   8  11
ENDBRANCH   2   5
BRANCH   1  22
ATOM     20  C   UNL     1       2.260   1.543   3.678  0.00  0.00    +0.229 C 
ATOM     21  O   UNL     1       2.291   2.717   3.980  0.00  0.00    -0.274 OA
ATOM     22  N   UNL     1       2.539   0.602   4.602  0.00  0.00    -0.234 N 
ATOM     23  H   UNL     1       2.514  -0.337   4.361  0.00  0.00    +0.173 HD
BRANCH  20  24
ATOM     24  C   UNL     1       1.909   1.135   2.270  0.00  0.00    +0.098 C 
BRANCH  24  25
ATOM     25  C   UNL     1       1.640   2.385   1.430  0.00  0.00    +0.022 C 
BRANCH  25  33
ATOM     26  C   UNL     1      -1.322   6.012  -0.250  0.00  0.00    +0.000 A 
ATOM     27  C   UNL     1      -2.445   5.310   0.148  0.00  0.00    +0.002 A 
ATOM     28  C   UNL     1      -2.408   3.932   0.228  0.00  0.00    +0.023 A 
ATOM     29  C   UNL     1      -1.240   3.250  -0.091  0.00  0.00    +0.037 A 
ATOM     30  C   UNL     1      -0.119   3.957  -0.501  0.00  0.00    -0.025 A 
ATOM     31  C   UNL     1      -0.161   5.336  -0.575  0.00  0.00    +0.005 A 
ATOM     32  C   UNL     1       1.145   3.222  -0.869  0.00  0.00    +0.049 C 
ATOM     33  C   UNL     1       1.284   1.972   0.000  0.00  0.00    +0.080 C 
ATOM     34  C   UNL     1      -0.014   1.209   0.009  0.00  0.00    +0.221 C 
ATOM     35  O   UNL     1       0.002  -0.004   0.002  0.00  0.00    -0.275 OA
ATOM     36  N   UNL     1      -1.191   1.858   0.018  0.00  0.00    -0.285 N 
ATOM     37  H   UNL     1      -2.016   1.355   0.105  0.00  0.00    +0.155 HD
ENDBRANCH  25  33
ENDBRANCH  24  25
ENDBRANCH  20  24
ENDBRANCH   1  22
TORSDOF 8
