REMARK  Name = ZINC66382843
REMARK  8 active torsions:
REMARK  status: ('A' for Active; 'I' for Inactive)
REMARK    1  A    between atoms: C_1  and  C_2
REMARK    2  A    between atoms: C_2  and  C_3
REMARK    3  A    between atoms: C_3  and  C_5
REMARK    4  A    between atoms: C_3  and  N_8
REMARK    5  A    between atoms: C_5  and  C_6
REMARK    6  A    between atoms: C_5  and  C_7
REMARK    7  A    between atoms: N_11  and  N_12
REMARK    8  A    between atoms: C_13  and  C_15
REMARK                            x       y       z     vdW  Elec       q    Type
REMARK                         _______ _______ _______ _____ _____    ______ ____
ROOT
ATOM      1  N   UNL     1       2.148  -0.104   1.172  0.00  0.00    -0.295 N 
ATOM      2  C   UNL     1       2.518   1.116   1.608  0.00  0.00    +0.316 C 
ATOM      3  O   UNL     1       1.686   1.879   2.060  0.00  0.00    -0.251 OA
ATOM      4  N   UNL     1       3.812   1.491   1.544  0.00  0.00    -0.218 N 
ATOM      5  H   UNL     1       2.812  -0.712   0.811  0.00  0.00    +0.151 HD
ATOM      6  H   UNL     1       4.078   2.369   1.858  0.00  0.00    +0.174 HD
ENDROOT
BRANCH   4   7
ATOM      7  N   UNL     1       4.770   0.612   1.023  0.00  0.00    -0.229 N 
ATOM      8  C   UNL     1       6.063   0.986   0.959  0.00  0.00    +0.261 C 
ATOM      9  O   UNL     1       6.398   2.087   1.353  0.00  0.00    -0.269 OA
ATOM     10  H   UNL     1       4.503  -0.266   0.709  0.00  0.00    +0.173 HD
BRANCH   8  11
ATOM     11  C   UNL     1       7.074   0.060   0.410  0.00  0.00    +0.052 A 
ATOM     12  C   UNL     1       6.692  -1.203  -0.048  0.00  0.00    +0.017 A 
ATOM     13  C   UNL     1       7.639  -2.064  -0.560  0.00  0.00    +0.039 A 
ATOM     14  C   UNL     1       8.970  -1.678  -0.620  0.00  0.00    +0.124 A 
ATOM     15  C   UNL     1       9.356  -0.427  -0.167  0.00  0.00    +0.054 A 
ATOM     16  C   UNL     1       8.415   0.445   0.342  0.00  0.00    +0.033 A 
ATOM     17 BR   UNL     1       8.942   2.155   0.954  0.00  0.00    -0.049 Br
ATOM     18  F   UNL     1       9.894  -2.526  -1.123  0.00  0.00    -0.205 F 
ENDBRANCH   8  11
ENDBRANCH   4   7
BRANCH   1  19
ATOM     19  C   UNL     1       0.742  -0.511   1.242  0.00  0.00    +0.077 C 
BRANCH  19  20
ATOM     20  C   UNL     1       0.655  -2.037   1.299  0.00  0.00    +0.003 C 
ATOM     21  C   UNL     1       1.395  -2.544   2.538  0.00  0.00    +0.009 C 
ATOM     22  C   UNL     1      -0.812  -2.462   1.372  0.00  0.00    +0.009 C 
ENDBRANCH  19  20
BRANCH  19  24
ATOM     23  C   UNL     1      -0.019   1.526   0.010  0.00  0.00    +0.006 C 
ATOM     24  C   UNL     1       0.002  -0.004   0.002  0.00  0.00    +0.019 C 
ENDBRANCH  19  24
ENDBRANCH   1  19
TORSDOF 5
