REMARK  Name = ZINC16677755
REMARK  11 active torsions:
REMARK  status: ('A' for Active; 'I' for Inactive)
REMARK    1  A    between atoms: C_1  and  C_2
REMARK    2  A    between atoms: C_7  and  N_8
REMARK    3  A    between atoms: C_9  and  C_13
REMARK    4  A    between atoms: C_13  and  C_15
REMARK    5  A    between atoms: C_13  and  N_21
REMARK    6  A    between atoms: N_21  and  C_22
REMARK    7  A    between atoms: N_21  and  C_23
REMARK    8  A    between atoms: C_23  and  C_24
REMARK    9  A    between atoms: C_28  and  O_31
REMARK   10  A    between atoms: C_29  and  O_30
REMARK   11  A    between atoms: O_31  and  C_32
REMARK                            x       y       z     vdW  Elec       q    Type
REMARK                         _______ _______ _______ _____ _____    ______ ____
ROOT
ATOM      1  C   UNL     1       0.580  -2.199   3.937  0.00  0.00    +0.157 C 
ENDROOT
BRANCH   1   2
ATOM      2  C   UNL     1       2.009  -2.457   4.339  0.00  0.00    -0.023 A 
ATOM      3  C   UNL     1       2.415  -2.221   5.639  0.00  0.00    +0.005 A 
ATOM      4  C   UNL     1       3.725  -2.457   6.008  0.00  0.00    +0.000 A 
ATOM      5  C   UNL     1       4.631  -2.931   5.078  0.00  0.00    +0.000 A 
ATOM      6  C   UNL     1       4.226  -3.168   3.778  0.00  0.00    +0.000 A 
ATOM      7  C   UNL     1       2.914  -2.936   3.409  0.00  0.00    +0.005 A 
ENDBRANCH   1   2
BRANCH   1   9
ATOM      8  N   UNL     1       0.250  -0.133   2.477  0.00  0.00    -0.195 N 
ATOM      9  C   UNL     1       0.388  -0.726   3.682  0.00  0.00    +0.178 A 
ATOM     10  N   UNL     1       0.324   0.214   4.588  0.00  0.00    -0.111 NA
ATOM     11  N   UNL     1       0.154   1.362   4.037  0.00  0.00    -0.023 NA
ATOM     12  N   UNL     1       0.105   1.238   2.755  0.00  0.00    -0.039 NA
BRANCH   8  19
ATOM     13  C   UNL     1       1.974   0.916   0.470  0.00  0.00    +0.046 C 
ATOM     14  C   UNL     1       1.081  -0.271   0.211  0.00  0.00    -0.025 A 
ATOM     15  C   UNL     1       1.089  -0.885  -1.026  0.00  0.00    +0.005 A 
ATOM     16  C   UNL     1       0.271  -1.974  -1.264  0.00  0.00    +0.000 A 
ATOM     17  C   UNL     1      -0.558  -2.451  -0.265  0.00  0.00    +0.002 A 
ATOM     18  C   UNL     1      -0.570  -1.841   0.974  0.00  0.00    +0.028 A 
ATOM     19  C   UNL     1       0.255  -0.751   1.218  0.00  0.00    +0.072 A 
ENDBRANCH   8  19
ENDBRANCH   1   9
BRANCH   1  20
ATOM     20  N   UNL     1      -0.318  -2.631   5.016  0.00  0.00    -0.288 NA
ATOM     21  C   UNL     1      -1.716  -2.309   4.698  0.00  0.00    +0.106 C 
BRANCH  20  22
ATOM     22  C   UNL     1      -0.158  -4.065   5.291  0.00  0.00    +0.124 C 
BRANCH  22  23
ATOM     23  C   UNL     1      -0.903  -4.421   6.552  0.00  0.00    +0.013 A 
ATOM     24  C   UNL     1      -0.220  -4.546   7.747  0.00  0.00    +0.024 A 
ATOM     25  C   UNL     1      -0.901  -4.872   8.906  0.00  0.00    +0.022 A 
ATOM     26  C   UNL     1      -2.269  -5.073   8.874  0.00  0.00    +0.064 A 
ATOM     27  C   UNL     1      -2.959  -4.949   7.679  0.00  0.00    +0.163 A 
ATOM     28  C   UNL     1      -2.274  -4.616   6.514  0.00  0.00    +0.163 A 
ATOM     29 BR   UNL     1       0.040  -5.042  10.537  0.00  0.00    -0.050 Br
BRANCH  28  30
ATOM     30  O   UNL     1      -2.949  -4.488   5.340  0.00  0.00    -0.503 OA
ATOM     31  H   UNL     1      -3.017  -5.309   4.834  0.00  0.00    +0.292 HD
ENDBRANCH  28  30
BRANCH  27  32
ATOM     32  O   UNL     1      -4.304  -5.148   7.645  0.00  0.00    -0.491 OA
ATOM     33  C   UNL     1      -4.942  -5.482   8.880  0.00  0.00    +0.277 C 
ENDBRANCH  27  32
ENDBRANCH  22  23
ENDBRANCH  20  22
ENDBRANCH   1  20
TORSDOF 8
