REMARK  Name = ZINC15044266
REMARK  10 active torsions:
REMARK  status: ('A' for Active; 'I' for Inactive)
REMARK    1  A    between atoms: C_1  and  O_2
REMARK    2  A    between atoms: O_2  and  C_3
REMARK    3  A    between atoms: C_6  and  N_9
REMARK    4  A    between atoms: C_10  and  C_12
REMARK    5  A    between atoms: C_12  and  C_13
REMARK    6  A    between atoms: C_13  and  C_14
REMARK    7  A    between atoms: C_14  and  C_15
REMARK    8  A    between atoms: C_15  and  C_16
REMARK    9  A    between atoms: C_16  and  N_17
REMARK   10  A    between atoms: C_21  and  C_22
REMARK                            x       y       z     vdW  Elec       q    Type
REMARK                         _______ _______ _______ _____ _____    ______ ____
ROOT
ATOM      1  C   UNL     1      -0.751   1.352   1.220  0.00  0.00    +0.019 C 
ENDROOT
BRANCH   1   2
ATOM      2  C   UNL     1      -0.960  -0.147   1.448  0.00  0.00    +0.002 C 
BRANCH   2   3
ATOM      3  C   UNL     1      -0.130  -0.938   0.435  0.00  0.00    +0.009 C 
BRANCH   3   4
ATOM      4  C   UNL     1      -0.340  -2.436   0.663  0.00  0.00    +0.096 C 
BRANCH   4   6
ATOM      5  N   UNL     1       0.450  -4.562  -0.324  0.00  0.00    -0.285 N 
ATOM      6  C   UNL     1       0.478  -3.215  -0.335  0.00  0.00    +0.217 C 
ATOM      7  O   UNL     1       1.161  -2.629  -1.149  0.00  0.00    -0.275 OA
ATOM      8  H   UNL     1      -0.026  -5.032   0.379  0.00  0.00    +0.155 HD
BRANCH   5  12
ATOM      9  C   UNL     1       2.408  -6.713  -3.312  0.00  0.00    +0.120 A 
ATOM     10  C   UNL     1       2.940  -5.516  -2.858  0.00  0.00    +0.047 A 
ATOM     11  C   UNL     1       2.292  -4.803  -1.868  0.00  0.00    +0.027 A 
ATOM     12  C   UNL     1       1.108  -5.285  -1.328  0.00  0.00    +0.034 A 
ATOM     13  C   UNL     1       0.578  -6.487  -1.779  0.00  0.00    +0.027 A 
ATOM     14  C   UNL     1       1.224  -7.196  -2.773  0.00  0.00    +0.047 A 
BRANCH   9  16
ATOM     15  C   UNL     1       2.442  -8.640  -4.706  0.00  0.00    +0.277 C 
ATOM     16  O   UNL     1       3.046  -7.415  -4.286  0.00  0.00    -0.495 OA
ENDBRANCH   9  16
ENDBRANCH   5  12
ENDBRANCH   4   6
ENDBRANCH   3   4
ENDBRANCH   2   3
ENDBRANCH   1   2
BRANCH   1  17
ATOM     17  C   UNL     1      -1.581   2.142   2.234  0.00  0.00    +0.115 C 
BRANCH  17  18
ATOM     18  N   UNL     1      -1.380   3.577   2.016  0.00  0.00    -0.255 N 
ATOM     19  C   UNL     1      -2.179   4.222   1.183  0.00  0.00    +0.258 C 
ATOM     20  O   UNL     1      -3.078   3.655   0.591  0.00  0.00    -0.269 OA
ATOM     21  C   UNL     1      -1.924   5.668   1.007  0.00  0.00    +0.077 C 
ATOM     22  C   UNL     1      -2.572   6.572   0.231  0.00  0.00    +0.028 C 
ATOM     23  S   UNL     1      -0.528   5.896   2.100  0.00  0.00    -0.061 S 
ATOM     24  C   UNL     1      -0.388   4.211   2.673  0.00  0.00    +0.121 C 
ATOM     25  S   UNL     1       0.736   3.557   3.787  0.00  0.00    -0.027 S 
BRANCH  22  26
ATOM     26  C   UNL     1      -2.245   8.001   0.339  0.00  0.00    -0.024 A 
ATOM     27  C   UNL     1      -1.552   8.481   1.455  0.00  0.00    +0.009 A 
ATOM     28  C   UNL     1      -1.244   9.822   1.546  0.00  0.00    +0.016 A 
ATOM     29  C   UNL     1      -1.629  10.694   0.542  0.00  0.00    +0.018 A 
ATOM     30  C   UNL     1      -2.320  10.227  -0.564  0.00  0.00    +0.016 A 
ATOM     31  C   UNL     1      -2.630   8.888  -0.673  0.00  0.00    +0.009 A 
ATOM     32 BR   UNL     1      -1.208  12.533   0.680  0.00  0.00    -0.050 Br
ENDBRANCH  22  26
ENDBRANCH  17  18
ENDBRANCH   1  17
TORSDOF 9
