REMARK  Name = ZINC13327694
REMARK  6 active torsions:
REMARK  status: ('A' for Active; 'I' for Inactive)
REMARK    1  A    between atoms: C_1  and  C_2
REMARK    2  A    between atoms: C_2  and  C_3
REMARK    3  A    between atoms: C_4  and  C_9
REMARK    4  A    between atoms: C_5  and  C_8
REMARK    5  A    between atoms: N_11  and  C_12
REMARK    6  A    between atoms: C_13  and  C_23
REMARK                            x       y       z     vdW  Elec       q    Type
REMARK                         _______ _______ _______ _____ _____    ______ ____
ROOT
ATOM      1  C   UNL     1      -2.370   1.877   3.318  0.00  0.00    +0.090 A 
ATOM      2  C   UNL     1      -1.620   2.964   2.921  0.00  0.00    +0.084 A 
ATOM      3  C   UNL     1      -0.691   2.797   1.798  0.00  0.00    -0.018 A 
ATOM      4  C   UNL     1      -0.743   1.584   1.224  0.00  0.00    -0.004 A 
ATOM      5  S   UNL     1      -1.892   0.647   2.199  0.00  0.00    -0.077 S 
ATOM      6  C   UNL     1      -0.013   1.086   0.008  0.00  0.00    +0.043 C 
ATOM      7  C   UNL     1      -0.784   1.609  -1.217  0.00  0.00    +0.005 C 
ATOM      8  C   UNL     1      -0.935   3.129  -1.077  0.00  0.00    +0.000 C 
ATOM      9  C   UNL     1       0.477   3.675  -1.077  0.00  0.00    +0.000 C 
ATOM     10  C   UNL     1       1.164   3.618   0.277  0.00  0.00    +0.005 C 
ATOM     11  C   UNL     1       0.225   3.964   1.426  0.00  0.00    +0.037 C 
ENDROOT
BRANCH   1  14
ATOM     12  C   UNL     1      -3.934   0.633   4.590  0.00  0.00    +0.254 C 
ATOM     13  O   UNL     1      -3.714  -0.338   3.892  0.00  0.00    -0.270 OA
ATOM     14  N   UNL     1      -3.288   1.792   4.355  0.00  0.00    -0.275 N 
ATOM     15  H   UNL     1      -3.463   2.567   4.912  0.00  0.00    +0.156 HD
BRANCH  12  17
ATOM     16  C   UNL     1      -6.354   0.817   5.663  0.00  0.00    +0.096 A 
ATOM     17  C   UNL     1      -4.909   0.543   5.692  0.00  0.00    +0.102 A 
ATOM     18  C   UNL     1      -4.690   0.189   7.001  0.00  0.00    +0.147 A 
ATOM     19  O   UNL     1      -5.876   0.256   7.611  0.00  0.00    -0.359 OA
ATOM     20  N   UNL     1      -6.770   0.594   6.874  0.00  0.00    -0.082 NA
ATOM     21  C   UNL     1      -3.374  -0.199   7.625  0.00  0.00    +0.090 C 
BRANCH  16  23
ATOM     22  C   UNL     1      -7.710   0.029   3.742  0.00  0.00    +0.010 C 
ATOM     23  C   UNL     1      -7.177   1.258   4.480  0.00  0.00    +0.056 C 
ENDBRANCH  16  23
ENDBRANCH  12  17
ENDBRANCH   1  14
BRANCH   2  24
ATOM     24  C   UNL     1      -1.740   4.223   3.594  0.00  0.00    +0.102 C 
ATOM     25  N   UNL     1      -1.835   5.221   4.128  0.00  0.00    -0.191 NA
ENDBRANCH   2  24
TORSDOF 4
