REMARK  Name = ZINC06878184
REMARK  5 active torsions:
REMARK  status: ('A' for Active; 'I' for Inactive)
REMARK    1  A    between atoms: C_1  and  C_2
REMARK    2  A    between atoms: C_7  and  S_15
REMARK    3  A    between atoms: C_12  and  C_14
REMARK    4  A    between atoms: S_15  and  N_18
REMARK    5  A    between atoms: N_18  and  C_19
REMARK                            x       y       z     vdW  Elec       q    Type
REMARK                         _______ _______ _______ _____ _____    ______ ____
ROOT
ATOM      1  C   UNL     1       1.585   2.477  -1.598  0.00  0.00    +0.029 C 
ATOM      2  C   UNL     1       1.325   1.939  -0.190  0.00  0.00    +0.083 C 
ATOM      3  C   UNL     1      -0.152   1.542  -0.035  0.00  0.00    +0.059 C 
ATOM      4  C   UNL     1      -0.117   0.061   0.271  0.00  0.00    -0.022 A 
ATOM      5  C   UNL     1      -1.139  -0.839   0.507  0.00  0.00    +0.034 A 
ATOM      6  C   UNL     1      -0.849  -2.165   0.768  0.00  0.00    +0.106 A 
ATOM      7  C   UNL     1       0.467  -2.590   0.792  0.00  0.00    +0.030 A 
ATOM      8  C   UNL     1       1.489  -1.696   0.555  0.00  0.00    +0.026 A 
ATOM      9  C   UNL     1       1.204  -0.355   0.291  0.00  0.00    +0.040 A 
ATOM     10  N   UNL     1       2.081   0.703   0.029  0.00  0.00    -0.268 N 
ATOM     11  C   UNL     1       3.424   0.600  -0.015  0.00  0.00    +0.217 C 
ATOM     12  O   UNL     1       3.955  -0.480   0.139  0.00  0.00    -0.276 OA
ATOM     13  C   UNL     1       4.266   1.826  -0.257  0.00  0.00    +0.109 C 
ENDROOT
BRANCH   6  14
ATOM     14  S   UNL     1      -2.152  -3.312   1.070  0.00  0.00    +0.059 S 
ATOM     15  O   UNL     1      -3.315  -2.776   0.453  0.00  0.00    -0.153 OA
ATOM     16  O   UNL     1      -1.644  -4.599   0.749  0.00  0.00    -0.153 OA
BRANCH  14  17
ATOM     17  N   UNL     1      -2.438  -3.310   2.701  0.00  0.00    -0.187 NA
ATOM     18  H   UNL     1      -2.267  -4.108   3.225  0.00  0.00    +0.148 HD
BRANCH  17  19
ATOM     19  C   UNL     1      -2.950  -2.102   3.354  0.00  0.00    +0.077 C 
ATOM     20  C   UNL     1      -1.759  -1.284   3.896  0.00  0.00    +0.020 C 
ATOM     21  C   UNL     1      -2.207   0.140   4.090  0.00  0.00    +0.002 C 
ATOM     22  C   UNL     1      -2.680   0.415   5.531  0.00  0.00    +0.000 C 
ATOM     23  C   UNL     1      -3.537  -0.728   6.107  0.00  0.00    +0.000 C 
ATOM     24  C   UNL     1      -4.518  -1.274   5.105  0.00  0.00    +0.002 C 
ATOM     25  C   UNL     1      -3.878  -2.491   4.405  0.00  0.00    +0.020 C 
ENDBRANCH  17  19
ENDBRANCH  14  17
ENDBRANCH   6  14
TORSDOF 3
