REMARK  Name = ZINC02105021
REMARK  8 active torsions:
REMARK  status: ('A' for Active; 'I' for Inactive)
REMARK    1  A    between atoms: C_1  and  O_2
REMARK    2  A    between atoms: O_2  and  C_3
REMARK    3  A    between atoms: C_7  and  C_11
REMARK    4  A    between atoms: C_8  and  O_9
REMARK    5  A    between atoms: O_9  and  C_10
REMARK    6  A    between atoms: N_30  and  C_33
REMARK    7  A    between atoms: C_33  and  C_34
REMARK    8  A    between atoms: C_34  and  C_35
REMARK                            x       y       z     vdW  Elec       q    Type
REMARK                         _______ _______ _______ _____ _____    ______ ____
ROOT
ATOM      1  C   UNL     1      -1.336   4.868   0.030  0.00  0.00    +0.158 C 
ATOM      2  C   UNL     1      -0.416   3.669   0.078  0.00  0.00    +0.046 A 
ATOM      3  C   UNL     1      -0.853   2.392   0.060  0.00  0.00    -0.015 A 
ATOM      4  C   UNL     1       0.319   1.541   0.108  0.00  0.00    +0.003 A 
ATOM      5  C   UNL     1       0.483   0.153   0.113  0.00  0.00    +0.010 A 
ATOM      6  C   UNL     1       1.770  -0.320   0.173  0.00  0.00    +0.001 A 
ATOM      7  C   UNL     1       2.864   0.529   0.227  0.00  0.00    +0.002 A 
ATOM      8  C   UNL     1       2.731   1.907   0.225  0.00  0.00    +0.026 A 
ATOM      9  C   UNL     1       1.435   2.415   0.164  0.00  0.00    +0.047 A 
ATOM     10  N   UNL     1       0.952   3.692   0.145  0.00  0.00    -0.356 N 
ATOM     11  H   UNL     1       1.496   4.495   0.174  0.00  0.00    +0.166 HD
ATOM     12  C   UNL     1      -2.302   1.982  -0.011  0.00  0.00    +0.069 C 
ATOM     13  C   UNL     1      -3.134   3.182  -0.486  0.00  0.00    +0.167 C 
ATOM     14  N   UNL     1      -2.714   4.377   0.244  0.00  0.00    -0.276 N 
ATOM     15  C   UNL     1      -3.513   5.034   1.087  0.00  0.00    +0.234 C 
ATOM     16  O   UNL     1      -3.043   5.972   1.696  0.00  0.00    -0.274 OA
ATOM     17  C   UNL     1      -4.946   4.693   1.333  0.00  0.00    +0.203 C 
ATOM     18  N   UNL     1      -5.388   3.572   0.519  0.00  0.00    -0.291 N 
ATOM     19  C   UNL     1      -4.588   2.890  -0.299  0.00  0.00    +0.237 C 
ATOM     20  O   UNL     1      -5.070   1.975  -0.932  0.00  0.00    -0.274 OA
ENDROOT
BRANCH   1  25
ATOM     21  C   UNL     1      -1.598   7.452  -2.723  0.00  0.00    +0.162 A 
ATOM     22  C   UNL     1      -1.043   6.767  -3.792  0.00  0.00    +0.049 A 
ATOM     23  C   UNL     1      -0.586   5.473  -3.621  0.00  0.00    +0.004 A 
ATOM     24  C   UNL     1      -0.677   4.862  -2.384  0.00  0.00    +0.010 A 
ATOM     25  C   UNL     1      -1.234   5.539  -1.315  0.00  0.00    +0.024 A 
ATOM     26  C   UNL     1      -1.694   6.835  -1.479  0.00  0.00    +0.167 A 
BRANCH  21  28
ATOM     27  C   UNL     1      -1.917   9.294  -4.193  0.00  0.00    +0.277 C 
ATOM     28  O   UNL     1      -2.048   8.725  -2.889  0.00  0.00    -0.491 OA
ENDBRANCH  21  28
BRANCH  26  29
ATOM     29  O   UNL     1      -2.238   7.504  -0.427  0.00  0.00    -0.491 OA
ATOM     30  C   UNL     1      -1.370   8.364   0.314  0.00  0.00    +0.277 C 
ENDBRANCH  26  29
ENDBRANCH   1  25
BRANCH  18  31
ATOM     31  C   UNL     1      -6.794   3.169   0.604  0.00  0.00    +0.112 C 
BRANCH  31  32
ATOM     32  C   UNL     1      -7.608   3.936  -0.440  0.00  0.00    +0.049 C 
BRANCH  32  33
ATOM     33  C   UNL     1      -9.054   3.522  -0.353  0.00  0.00    -0.072 C 
ATOM     34  C   UNL     1      -9.851   4.246   0.366  0.00  0.00    -0.028 C 
ATOM     35  C   UNL     1     -11.310   3.955   0.555  0.00  0.00    +0.027 C 
ATOM     36  C   UNL     1     -11.798   2.981  -0.520  0.00  0.00    +0.004 C 
ATOM     37  C   UNL     1     -10.827   1.795  -0.576  0.00  0.00    +0.005 C 
ATOM     38  C   UNL     1      -9.482   2.299  -1.110  0.00  0.00    +0.030 C 
ENDBRANCH  32  33
ENDBRANCH  31  32
ENDBRANCH  18  31
TORSDOF 6
