REMARK  Name = ZINC23153254
REMARK  9 active torsions:
REMARK  status: ('A' for Active; 'I' for Inactive)
REMARK    1  A    between atoms: C_1  and  C_2
REMARK    2  A    between atoms: C_2  and  C_3
REMARK    3  A    between atoms: C_2  and  C_4
REMARK    4  A    between atoms: C_2  and  C_5
REMARK    5  A    between atoms: C_5  and  N_6
REMARK    6  A    between atoms: C_12  and  C_14
REMARK    7  A    between atoms: C_14  and  C_15
REMARK    8  A    between atoms: N_17  and  C_18
REMARK    9  A    between atoms: C_18  and  C_19
REMARK                            x       y       z     vdW  Elec       q    Type
REMARK                         _______ _______ _______ _____ _____    ______ ____
ROOT
ATOM      1  C   UNL     1       1.216   3.542   0.493  0.00  0.00    +0.089 C 
ENDROOT
BRANCH   1   8
ATOM      2  N   UNL     1       2.611   1.635  -0.145  0.00  0.00    +0.389 N 
ATOM      3  C   UNL     1       2.817   0.556  -1.125  0.00  0.00    -0.059 C 
ATOM      4  C   UNL     1       1.569  -0.326  -1.154  0.00  0.00    +0.085 C 
ATOM      5  N   UNL     1       0.375   0.500  -1.309  0.00  0.00    -0.318 N 
ATOM      6  C   UNL     1       0.363   1.814  -1.059  0.00  0.00    +0.200 C 
ATOM      7  O   UNL     1      -0.679   2.421  -1.190  0.00  0.00    -0.278 OA
ATOM      8  C   UNL     1       1.587   2.571  -0.629  0.00  0.00    +0.028 C 
ATOM      9  H   UNL     1      -0.569   0.046  -1.646  0.00  0.00    +0.149 HD
ATOM     10  H   UNL     1       2.259   1.191   0.797  0.00  0.00    -0.081 HD
BRANCH   2  11
ATOM     11  C   UNL     1       3.871   2.335   0.140  0.00  0.00    -0.072 C 
BRANCH  11  13
ATOM     12  C   UNL     1       5.035   0.207   0.738  0.00  0.00    +0.009 C 
ATOM     13  C   UNL     1       4.629   1.593   1.243  0.00  0.00    -0.052 C 
ATOM     14  C   UNL     1       5.881   2.385   1.623  0.00  0.00    +0.009 C 
ATOM     15  C   UNL     1       3.727   1.445   2.470  0.00  0.00    +0.009 C 
ENDBRANCH  11  13
ENDBRANCH   2  11
ENDBRANCH   1   8
BRANCH   1  16
ATOM     16  C   UNL     1       0.689   2.768   1.673  0.00  0.00    +0.212 C 
ATOM     17  O   UNL     1       0.647   1.557   1.634  0.00  0.00    -0.276 OA
ATOM     18  N   UNL     1       0.264   3.422   2.772  0.00  0.00    -0.311 N 
ATOM     19  H   UNL     1       0.301   4.521   2.808  0.00  0.00    +0.149 HD
BRANCH  18  20
ATOM     20  C   UNL     1      -0.249   2.670   3.920  0.00  0.00    +0.140 C 
BRANCH  20  21
ATOM     21  C   UNL     1      -0.655   3.629   5.009  0.00  0.00    -0.023 A 
ATOM     22  C   UNL     1       0.173   3.856   6.065  0.00  0.00    +0.006 A 
ATOM     23  C   UNL     1      -0.185   4.740   7.081  0.00  0.00    +0.001 A 
ATOM     24  C   UNL     1      -1.374   5.402   7.047  0.00  0.00    +0.008 A 
ATOM     25  C   UNL     1      -2.256   5.194   5.973  0.00  0.00    -0.018 A 
ATOM     26  C   UNL     1      -1.889   4.299   4.936  0.00  0.00    -0.013 A 
ATOM     27  C   UNL     1      -2.768   4.095   3.859  0.00  0.00    +0.009 A 
ATOM     28  C   UNL     1      -3.954   4.761   3.822  0.00  0.00    +0.001 A 
ATOM     29  C   UNL     1      -4.313   5.644   4.838  0.00  0.00    +0.001 A 
ATOM     30  C   UNL     1      -3.491   5.859   5.902  0.00  0.00    +0.008 A 
ENDBRANCH  20  21
ENDBRANCH  18  20
ENDBRANCH   1  16
TORSDOF 6
