REMARK  Name = ZINC10589433
REMARK  10 active torsions:
REMARK  status: ('A' for Active; 'I' for Inactive)
REMARK    1  A    between atoms: C_1  and  C_2
REMARK    2  A    between atoms: C_2  and  O_3
REMARK    3  A    between atoms: O_3  and  C_4
REMARK    4  A    between atoms: C_7  and  C_10
REMARK    5  A    between atoms: C_10  and  C_11
REMARK    6  A    between atoms: N_13  and  C_14
REMARK    7  A    between atoms: C_15  and  C_28
REMARK    8  A    between atoms: C_23  and  O_25
REMARK    9  A    between atoms: O_25  and  C_26
REMARK   10  A    between atoms: C_26  and  C_27
REMARK                            x       y       z     vdW  Elec       q    Type
REMARK                         _______ _______ _______ _____ _____    ______ ____
ROOT
ATOM      1  C   UNL     1       0.604  -2.055  -1.026  0.00  0.00    +0.082 A 
ATOM      2  C   UNL     1       1.146  -2.911  -1.970  0.00  0.00    +0.039 A 
ATOM      3  C   UNL     1       1.031  -4.340  -1.740  0.00  0.00    -0.023 A 
ATOM      4  C   UNL     1       0.396  -4.711  -0.604  0.00  0.00    +0.013 A 
ATOM      5  S   UNL     1      -0.057  -3.190   0.182  0.00  0.00    -0.076 S 
ATOM      6  C   UNL     1       0.145  -6.109  -0.125  0.00  0.00    +0.153 C 
ATOM      7  N   UNL     1       0.512  -7.020  -1.228  0.00  0.00    -0.262 N 
ATOM      8  C   UNL     1       1.741  -6.716  -1.977  0.00  0.00    +0.116 C 
ATOM      9  C   UNL     1       1.579  -5.384  -2.709  0.00  0.00    +0.056 C 
ATOM     10  C   UNL     1      -0.250  -8.088  -1.536  0.00  0.00    +0.403 C 
ATOM     11  O   UNL     1       0.074  -8.822  -2.448  0.00  0.00    -0.226 OA
ENDROOT
BRANCH   2  12
ATOM     12  C   UNL     1       1.820  -2.388  -3.170  0.00  0.00    +0.112 A 
ATOM     13  N   UNL     1       2.390  -3.053  -4.154  0.00  0.00    -0.239 NA
ATOM     14  C   UNL     1       2.972  -2.435  -5.203  0.00  0.00    +0.079 A 
ATOM     15  C   UNL     1       3.610  -3.026  -6.319  0.00  0.00    +0.029 A 
ATOM     16  C   UNL     1       4.160  -2.247  -7.303  0.00  0.00    +0.002 A 
ATOM     17  C   UNL     1       4.112  -0.862  -7.244  0.00  0.00    +0.001 A 
ATOM     18  C   UNL     1       3.496  -0.251  -6.167  0.00  0.00    +0.017 A 
ATOM     19  C   UNL     1       2.942  -1.022  -5.176  0.00  0.00    +0.040 A 
ATOM     20  S   UNL     1       2.080  -0.688  -3.659  0.00  0.00    -0.067 S 
ENDBRANCH   2  12
BRANCH   1  23
ATOM     21  C   UNL     1       0.002  -0.004   0.002  0.00  0.00    +0.222 C 
ATOM     22  O   UNL     1      -0.506  -0.623   0.913  0.00  0.00    -0.275 OA
ATOM     23  N   UNL     1       0.585  -0.664  -1.018  0.00  0.00    -0.279 N 
ATOM     24  H   UNL     1       0.992  -0.170  -1.747  0.00  0.00    +0.155 HD
BRANCH  21  25
ATOM     25  C   UNL     1      -0.018   1.503   0.010  0.00  0.00    +0.131 C 
BRANCH  25  29
ATOM     26  C   UNL     1      -2.019   2.881   3.526  0.00  0.00    +0.121 A 
ATOM     27  C   UNL     1      -0.648   2.668   3.545  0.00  0.00    +0.046 A 
ATOM     28  C   UNL     1      -0.004   2.222   2.407  0.00  0.00    +0.007 A 
ATOM     29  C   UNL     1      -0.724   1.989   1.250  0.00  0.00    -0.038 A 
ATOM     30  C   UNL     1      -2.089   2.206   1.227  0.00  0.00    +0.007 A 
ATOM     31  C   UNL     1      -2.739   2.646   2.364  0.00  0.00    +0.046 A 
BRANCH  26  32
ATOM     32  O   UNL     1      -2.655   3.319   4.644  0.00  0.00    -0.492 OA
BRANCH  32  34
ATOM     33  C   UNL     1      -4.603   4.007   5.899  0.00  0.00    +0.048 C 
ATOM     34  C   UNL     1      -4.067   3.516   4.552  0.00  0.00    +0.225 C 
ENDBRANCH  32  34
ENDBRANCH  26  32
ENDBRANCH  25  29
ENDBRANCH  21  25
ENDBRANCH   1  23
BRANCH  10  35
ATOM     35  O   UNL     1      -1.370  -8.341  -0.833  0.00  0.00    -0.451 OA
BRANCH  35  36
ATOM     36  C   UNL     1      -2.142  -9.508  -1.220  0.00  0.00    +0.230 C 
ATOM     37  C   UNL     1      -3.369  -9.632  -0.315  0.00  0.00    +0.048 C 
ENDBRANCH  35  36
ENDBRANCH  10  35
TORSDOF 8
