REMARK  Name = ZINC40095204
REMARK  10 active torsions:
REMARK  status: ('A' for Active; 'I' for Inactive)
REMARK    1  A    between atoms: C_1  and  C_2
REMARK    2  A    between atoms: C_7  and  C_12
REMARK    3  A    between atoms: C_12  and  C_14
REMARK    4  A    between atoms: N_18  and  C_28
REMARK    5  A    between atoms: C_19  and  C_21
REMARK    6  A    between atoms: C_28  and  C_29
REMARK    7  A    between atoms: C_29  and  O_30
REMARK    8  A    between atoms: O_30  and  C_31
REMARK    9  A    between atoms: C_31  and  C_32
REMARK   10  A    between atoms: C_32  and  O_33
REMARK                            x       y       z     vdW  Elec       q    Type
REMARK                         _______ _______ _______ _____ _____    ______ ____
ROOT
ATOM      1  C   UNL     1      -1.600  -6.782   3.429  0.00  0.00    +0.076 C 
ATOM      2  C   UNL     1      -1.948  -7.957   4.003  0.00  0.00    +0.249 C 
ATOM      3  C   UNL     1      -1.007  -8.258   5.102  0.00  0.00    +0.288 C 
ATOM      4  O   UNL     1      -1.054  -9.245   5.810  0.00  0.00    -0.266 OA
ATOM      5  N   UNL     1      -0.089  -7.280   5.202  0.00  0.00    -0.281 N 
ATOM      6  C   UNL     1      -0.378  -6.283   4.165  0.00  0.00    +0.146 C 
ATOM      7  O   UNL     1      -2.993  -8.732   3.631  0.00  0.00    -0.282 OA
ENDROOT
BRANCH   6   8
ATOM      8  C   UNL     1       0.787  -6.165   3.215  0.00  0.00    -0.008 A 
ATOM      9  C   UNL     1       1.657  -7.227   3.054  0.00  0.00    +0.007 A 
ATOM     10  C   UNL     1       2.725  -7.120   2.183  0.00  0.00    +0.000 A 
ATOM     11  C   UNL     1       2.923  -5.951   1.472  0.00  0.00    +0.001 A 
ATOM     12  C   UNL     1       2.053  -4.889   1.633  0.00  0.00    +0.015 A 
ATOM     13  C   UNL     1       0.981  -4.997   2.501  0.00  0.00    +0.023 A 
ATOM     14 BR   UNL     1      -0.213  -3.547   2.715  0.00  0.00    -0.050 Br
ENDBRANCH   6   8
BRANCH   1  15
ATOM     15  C   UNL     1      -2.274  -6.123   2.306  0.00  0.00    +0.195 C 
ATOM     16  O   UNL     1      -1.785  -6.169   1.192  0.00  0.00    -0.287 OA
BRANCH  15  22
ATOM     17  C   UNL     1      -8.520  -2.292   1.234  0.00  0.00    +0.052 C 
ATOM     18  C   UNL     1      -7.108  -2.458   1.801  0.00  0.00    +0.175 C 
ATOM     19  C   UNL     1      -6.191  -3.178   0.785  0.00  0.00    +0.083 C 
ATOM     20  C   UNL     1      -5.323  -4.027   1.695  0.00  0.00    -0.002 A 
ATOM     21  C   UNL     1      -4.141  -4.691   1.481  0.00  0.00    +0.019 A 
ATOM     22  C   UNL     1      -3.545  -5.406   2.525  0.00  0.00    +0.023 A 
ATOM     23  C   UNL     1      -4.164  -5.436   3.779  0.00  0.00    +0.015 A 
ATOM     24  C   UNL     1      -5.349  -4.771   3.981  0.00  0.00    +0.046 A 
ATOM     25  C   UNL     1      -5.947  -4.059   2.939  0.00  0.00    +0.124 A 
ATOM     26  O   UNL     1      -7.113  -3.354   2.925  0.00  0.00    -0.488 OA
ENDBRANCH  15  22
ENDBRANCH   1  15
BRANCH   5  27
ATOM     27  C   UNL     1       1.008  -7.223   6.171  0.00  0.00    +0.137 C 
BRANCH  27  28
ATOM     28  C   UNL     1       0.514  -6.568   7.463  0.00  0.00    +0.179 C 
BRANCH  28  29
ATOM     29  O   UNL     1      -0.489  -7.391   8.060  0.00  0.00    -0.376 OA
BRANCH  29  30
ATOM     30  C   UNL     1      -1.099  -6.817   9.218  0.00  0.00    +0.187 C 
BRANCH  30  31
ATOM     31  C   UNL     1      -2.062  -7.828   9.842  0.00  0.00    +0.184 C 
BRANCH  31  32
ATOM     32  O   UNL     1      -1.326  -8.957  10.318  0.00  0.00    -0.393 OA
ATOM     33  H   UNL     1      -1.874  -9.640  10.727  0.00  0.00    +0.209 HD
ENDBRANCH  31  32
ENDBRANCH  30  31
ENDBRANCH  29  30
ENDBRANCH  28  29
ENDBRANCH  27  28
ENDBRANCH   5  27
TORSDOF 9
