REMARK  Name = ZINC14686786
REMARK  10 active torsions:
REMARK  status: ('A' for Active; 'I' for Inactive)
REMARK    1  A    between atoms: C_7  and  C_11
REMARK    2  A    between atoms: C_11  and  C_12
REMARK    3  A    between atoms: C_12  and  C_13
REMARK    4  A    between atoms: C_13  and  C_14
REMARK    5  A    between atoms: N_16  and  C_17
REMARK    6  A    between atoms: C_17  and  C_18
REMARK    7  A    between atoms: C_18  and  N_19
REMARK    8  A    between atoms: C_23  and  C_24
REMARK    9  A    between atoms: C_27  and  O_30
REMARK   10  A    between atoms: O_30  and  C_31
REMARK                            x       y       z     vdW  Elec       q    Type
REMARK                         _______ _______ _______ _____ _____    ______ ____
ROOT
ATOM      1  C   UNL     1       4.116   7.527   0.431  0.00  0.00    +0.136 C 
ENDROOT
BRANCH   1   2
ATOM      2  N   UNL     1       3.825   6.097   0.305  0.00  0.00    -0.227 N 
ATOM      3  C   UNL     1       2.566   5.697   0.230  0.00  0.00    +0.260 C 
ATOM      4  O   UNL     1       1.642   6.488   0.263  0.00  0.00    -0.269 OA
ATOM      5  C   UNL     1       2.340   4.244   0.104  0.00  0.00    +0.080 C 
ATOM      6  C   UNL     1       1.175   3.555   0.009  0.00  0.00    +0.028 C 
ATOM      7  S   UNL     1       4.022   3.640   0.120  0.00  0.00    -0.026 S 
ATOM      8  C   UNL     1       4.846   5.217   0.267  0.00  0.00    +0.286 C 
ATOM      9  O   UNL     1       6.040   5.443   0.326  0.00  0.00    -0.262 OA
BRANCH   6  10
ATOM     10  C   UNL     1       1.193   2.119  -0.298  0.00  0.00    -0.024 A 
ATOM     11  C   UNL     1       0.014   1.367  -0.217  0.00  0.00    +0.011 A 
ATOM     12  C   UNL     1       0.038   0.022  -0.507  0.00  0.00    +0.046 A 
ATOM     13  C   UNL     1       1.229  -0.591  -0.878  0.00  0.00    +0.127 A 
ATOM     14  C   UNL     1       2.402   0.150  -0.960  0.00  0.00    +0.046 A 
ATOM     15  C   UNL     1       2.390   1.496  -0.673  0.00  0.00    +0.011 A 
BRANCH  13  16
ATOM     16  O   UNL     1       1.246  -1.919  -1.163  0.00  0.00    -0.434 OA
BRANCH  16  17
ATOM     17  C   UNL     1       2.503  -2.485  -1.538  0.00  0.00    +0.541 C 
ATOM     18  F   UNL     1       2.977  -1.848  -2.690  0.00  0.00    -0.166 F 
ATOM     19  F   UNL     1       3.422  -2.312  -0.497  0.00  0.00    -0.166 F 
ENDBRANCH  16  17
ENDBRANCH  13  16
ENDBRANCH   6  10
ENDBRANCH   1   2
BRANCH   1  20
ATOM     20  C   UNL     1       4.169   7.908   1.911  0.00  0.00    +0.123 C 
BRANCH  20  23
ATOM     21  C   UNL     1       4.554   9.902   3.258  0.00  0.00    +0.213 C 
ATOM     22  O   UNL     1       4.399   9.225   4.252  0.00  0.00    -0.276 OA
ATOM     23  N   UNL     1       4.460   9.339   2.037  0.00  0.00    -0.314 N 
ATOM     24  H   UNL     1       4.584   9.880   1.242  0.00  0.00    +0.149 HD
BRANCH  21  25
ATOM     25  C   UNL     1       4.853  11.373   3.388  0.00  0.00    +0.096 C 
BRANCH  25  26
ATOM     26  C   UNL     1       4.907  11.755   4.868  0.00  0.00    +0.014 C 
BRANCH  26  27
ATOM     27  C   UNL     1       5.210  13.248   5.000  0.00  0.00    +0.038 C 
BRANCH  27  34
ATOM     28  C   UNL     1       8.598  13.082   8.235  0.00  0.00    +0.001 A 
ATOM     29  C   UNL     1       8.184  13.542   9.477  0.00  0.00    +0.002 A 
ATOM     30  C   UNL     1       6.894  13.987   9.666  0.00  0.00    +0.026 A 
ATOM     31  C   UNL     1       5.996  13.976   8.603  0.00  0.00    +0.047 A 
ATOM     32  C   UNL     1       6.421  13.508   7.347  0.00  0.00    +0.003 A 
ATOM     33  C   UNL     1       7.733  13.062   7.177  0.00  0.00    +0.010 A 
ATOM     34  C   UNL     1       5.263  13.624   6.458  0.00  0.00    -0.022 A 
ATOM     35  C   UNL     1       4.258  14.133   7.188  0.00  0.00    +0.087 A 
ATOM     36  N   UNL     1       4.676  14.345   8.474  0.00  0.00    -0.360 N 
ATOM     37  H   UNL     1       4.125  14.704   9.187  0.00  0.00    +0.165 HD
ENDBRANCH  27  34
ENDBRANCH  26  27
ENDBRANCH  25  26
ENDBRANCH  21  25
ENDBRANCH  20  23
ENDBRANCH   1  20
TORSDOF 10
