REMARK  Name = ZINC06306905
REMARK  9 active torsions:
REMARK  status: ('A' for Active; 'I' for Inactive)
REMARK    1  A    between atoms: C_1  and  C_2
REMARK    2  A    between atoms: C_2  and  C_3
REMARK    3  A    between atoms: C_2  and  C_4
REMARK    4  A    between atoms: C_4  and  C_5
REMARK    5  A    between atoms: C_8  and  C_11
REMARK    6  A    between atoms: C_14  and  C_16
REMARK    7  A    between atoms: C_16  and  C_26
REMARK    8  A    between atoms: C_17  and  N_18
REMARK    9  A    between atoms: N_18  and  C_19
REMARK                            x       y       z     vdW  Elec       q    Type
REMARK                         _______ _______ _______ _____ _____    ______ ____
ROOT
ATOM      1  C   UNL     1      -1.367  -6.270  -0.492  0.00  0.00    +0.079 A 
ATOM      2  C   UNL     1      -1.323  -7.061   0.625  0.00  0.00    +0.075 A 
ATOM      3  S   UNL     1      -1.323  -8.687  -0.119  0.00  0.00    -0.074 S 
ATOM      4  C   UNL     1      -1.381  -8.152  -1.824  0.00  0.00    +0.120 A 
ATOM      5  N   UNL     1      -1.401  -6.835  -1.687  0.00  0.00    -0.238 NA
ENDROOT
BRANCH   1   9
ATOM      6  C   UNL     1      -1.416  -2.035  -0.119  0.00  0.00    -0.047 A 
ATOM      7  C   UNL     1      -1.450  -2.616  -1.374  0.00  0.00    +0.004 A 
ATOM      8  C   UNL     1      -1.434  -3.991  -1.501  0.00  0.00    +0.010 A 
ATOM      9  C   UNL     1      -1.384  -4.793  -0.362  0.00  0.00    +0.001 A 
ATOM     10  C   UNL     1      -1.350  -4.201   0.900  0.00  0.00    +0.010 A 
ATOM     11  C   UNL     1      -1.360  -2.826   1.014  0.00  0.00    +0.004 A 
BRANCH   6  12
ATOM     12  C   UNL     1      -1.433  -0.534   0.013  0.00  0.00    +0.038 C 
BRANCH  12  14
ATOM     13  C   UNL     1      -0.019   1.526   0.010  0.00  0.00    +0.007 C 
ATOM     14  C   UNL     1       0.002  -0.004   0.002  0.00  0.00    -0.013 C 
ATOM     15  C   UNL     1       0.742  -0.511   1.242  0.00  0.00    +0.007 C 
ENDBRANCH  12  14
ENDBRANCH   6  12
ENDBRANCH   1   9
BRANCH   4  16
ATOM     16  C   UNL     1      -1.406  -8.963  -3.057  0.00  0.00    +0.098 C 
ATOM     17  C   UNL     1      -1.385 -10.323  -2.978  0.00  0.00    +0.093 C 
BRANCH  17  18
ATOM     18  N   UNL     1      -1.409 -11.074  -4.120  0.00  0.00    -0.319 N 
ATOM     19  H   UNL     1      -1.440 -10.639  -4.986  0.00  0.00    +0.152 HD
BRANCH  18  20
ATOM     20  C   UNL     1      -1.387 -12.469  -4.039  0.00  0.00    +0.032 A 
ATOM     21  C   UNL     1      -1.348 -13.094  -2.798  0.00  0.00    +0.023 A 
ATOM     22  C   UNL     1      -1.328 -14.473  -2.721  0.00  0.00    +0.003 A 
ATOM     23  C   UNL     1      -1.346 -15.232  -3.877  0.00  0.00    +0.020 A 
ATOM     24  C   UNL     1      -1.384 -14.613  -5.115  0.00  0.00    +0.043 A 
ATOM     25  C   UNL     1      -1.411 -13.233  -5.198  0.00  0.00    +0.043 A 
ATOM     26 CL   UNL     1      -1.406 -15.570  -6.563  0.00  0.00    -0.083 Cl
ENDBRANCH  18  20
ENDBRANCH  17  18
BRANCH  16  27
ATOM     27  C   UNL     1      -1.452  -8.320  -4.336  0.00  0.00    +0.103 C 
ATOM     28  N   UNL     1      -1.489  -7.811  -5.350  0.00  0.00    -0.191 NA
ENDBRANCH  16  27
ENDBRANCH   4  16
TORSDOF 7
