REMARK  Name = ZINC08876377
REMARK  8 active torsions:
REMARK  status: ('A' for Active; 'I' for Inactive)
REMARK    1  A    between atoms: C_1  and  C_2
REMARK    2  A    between atoms: C_2  and  C_3
REMARK    3  A    between atoms: C_3  and  N_4
REMARK    4  A    between atoms: C_5  and  C_7
REMARK    5  A    between atoms: C_7  and  C_9
REMARK    6  A    between atoms: C_7  and  N_16
REMARK    7  A    between atoms: C_9  and  C_10
REMARK    8  A    between atoms: C_17  and  C_19
REMARK                            x       y       z     vdW  Elec       q    Type
REMARK                         _______ _______ _______ _____ _____    ______ ____
ROOT
ATOM      1  C   UNL     1       1.089  -1.128   3.496  0.00  0.00    +0.167 C 
ATOM      2  C   UNL     1       1.516  -2.581   3.240  0.00  0.00    +0.069 C 
ATOM      3  C   UNL     1       1.896  -3.248   4.537  0.00  0.00    -0.015 A 
ATOM      4  C   UNL     1       2.641  -4.483   4.705  0.00  0.00    +0.003 A 
ATOM      5  C   UNL     1       3.208  -5.374   3.789  0.00  0.00    +0.010 A 
ATOM      6  C   UNL     1       3.856  -6.468   4.308  0.00  0.00    +0.001 A 
ATOM      7  C   UNL     1       3.948  -6.690   5.673  0.00  0.00    +0.002 A 
ATOM      8  C   UNL     1       3.395  -5.824   6.601  0.00  0.00    +0.026 A 
ATOM      9  C   UNL     1       2.732  -4.705   6.102  0.00  0.00    +0.047 A 
ATOM     10  N   UNL     1       2.088  -3.672   6.720  0.00  0.00    -0.356 N 
ATOM     11  H   UNL     1       1.991  -3.568   7.679  0.00  0.00    +0.166 HD
ATOM     12  C   UNL     1       1.599  -2.805   5.780  0.00  0.00    +0.046 A 
ATOM     13  C   UNL     1       0.852  -1.519   6.037  0.00  0.00    +0.155 C 
ATOM     14  N   UNL     1       0.296  -1.103   4.729  0.00  0.00    -0.273 N 
ATOM     15  C   UNL     1      -0.990  -0.767   4.902  0.00  0.00    +0.248 C 
ATOM     16  O   UNL     1      -1.675  -0.173   4.092  0.00  0.00    -0.270 OA
ATOM     17  C   UNL     1      -1.444  -1.226   6.219  0.00  0.00    +0.042 A 
ATOM     18  C   UNL     1      -0.311  -1.704   6.951  0.00  0.00    -0.009 A 
ATOM     19  C   UNL     1      -0.448  -2.222   8.202  0.00  0.00    +0.006 A 
ATOM     20  C   UNL     1      -1.723  -2.234   8.760  0.00  0.00    +0.000 A 
ATOM     21  C   UNL     1      -2.821  -1.750   8.077  0.00  0.00    +0.001 A 
ATOM     22  C   UNL     1      -2.715  -1.232   6.795  0.00  0.00    +0.013 A 
ENDROOT
BRANCH   1  24
ATOM     23  N   UNL     1      -0.961  -1.161   2.112  0.00  0.00    -0.302 N 
ATOM     24  C   UNL     1       0.256  -0.631   2.343  0.00  0.00    +0.235 C 
ATOM     25  O   UNL     1       0.681   0.247   1.622  0.00  0.00    -0.274 OA
ATOM     26  H   UNL     1      -1.301  -1.864   2.689  0.00  0.00    +0.150 HD
BRANCH  23  27
ATOM     27  C   UNL     1      -1.770  -0.678   0.991  0.00  0.00    +0.163 C 
BRANCH  27  29
ATOM     28  N   UNL     1      -4.165  -0.564   0.381  0.00  0.00    -0.314 N 
ATOM     29  C   UNL     1      -3.228  -0.929   1.279  0.00  0.00    +0.234 C 
ATOM     30  O   UNL     1      -3.558  -1.460   2.318  0.00  0.00    -0.274 OA
ATOM     31  H   UNL     1      -3.901  -0.140  -0.450  0.00  0.00    +0.149 HD
BRANCH  28  32
ATOM     32  C   UNL     1      -5.582  -0.809   0.661  0.00  0.00    +0.104 C 
BRANCH  32  34
ATOM     33  C   UNL     1      -7.907  -0.559  -0.218  0.00  0.00    +0.005 C 
ATOM     34  C   UNL     1      -6.427  -0.304  -0.510  0.00  0.00    +0.015 C 
ENDBRANCH  32  34
ENDBRANCH  28  32
ENDBRANCH  27  29
BRANCH  27  35
ATOM     35  C   UNL     1      -1.367  -1.418  -0.286  0.00  0.00    +0.067 C 
BRANCH  35  36
ATOM     36  C   UNL     1       0.055  -1.069  -0.641  0.00  0.00    -0.045 A 
ATOM     37  C   UNL     1       0.317   0.009  -1.466  0.00  0.00    +0.004 A 
ATOM     38  C   UNL     1       1.621   0.332  -1.788  0.00  0.00    +0.000 A 
ATOM     39  C   UNL     1       2.664  -0.429  -1.294  0.00  0.00    +0.000 A 
ATOM     40  C   UNL     1       2.402  -1.510  -0.473  0.00  0.00    +0.000 A 
ATOM     41  C   UNL     1       1.098  -1.830  -0.147  0.00  0.00    +0.004 A 
ENDBRANCH  35  36
ENDBRANCH  27  35
ENDBRANCH  23  27
ENDBRANCH   1  24
TORSDOF 7
