REMARK  Name = ZINC63625015
REMARK  7 active torsions:
REMARK  status: ('A' for Active; 'I' for Inactive)
REMARK    1  A    between atoms: C_1  and  C_2
REMARK    2  A    between atoms: C_5  and  C_8
REMARK    3  A    between atoms: N_22  and  S_23
REMARK    4  A    between atoms: S_23  and  C_26
REMARK    5  A    between atoms: C_28  and  C_34
REMARK    6  A    between atoms: C_29  and  C_33
REMARK    7  A    between atoms: C_31  and  C_32
REMARK                            x       y       z     vdW  Elec       q    Type
REMARK                         _______ _______ _______ _____ _____    ______ ____
ROOT
ATOM      1  C   UNL     1       0.065  -4.176   0.193  0.00  0.00    +0.136 C 
ATOM      2  C   UNL     1      -1.309  -4.718   0.604  0.00  0.00    +0.129 C 
ATOM      3  C   UNL     1      -1.406  -4.556   2.115  0.00  0.00    -0.035 C 
ATOM      4  C   UNL     1      -2.502  -3.841   2.345  0.00  0.00    -0.001 A 
ATOM      5  C   UNL     1      -3.153  -3.423   3.597  0.00  0.00    +0.010 A 
ATOM      6  C   UNL     1      -4.279  -2.672   3.466  0.00  0.00    +0.001 A 
ATOM      7  C   UNL     1      -4.815  -2.301   2.229  0.00  0.00    +0.002 A 
ATOM      8  C   UNL     1      -4.285  -2.645   1.028  0.00  0.00    +0.026 A 
ATOM      9  C   UNL     1      -3.101  -3.439   1.037  0.00  0.00    +0.043 A 
ATOM     10  N   UNL     1      -2.400  -3.929   0.030  0.00  0.00    -0.376 N 
ATOM     11  C   UNL     1      -0.352  -5.083   3.057  0.00  0.00    +0.050 C 
ATOM     12  C   UNL     1       1.004  -4.575   2.533  0.00  0.00    +0.114 C 
ATOM     13  N   UNL     1       1.072  -4.777   1.081  0.00  0.00    -0.167 NA
ATOM     14  H   UNL     1      -2.564  -3.793  -0.916  0.00  0.00    +0.160 HD
ENDROOT
BRANCH   1  19
ATOM     15  C   UNL     1       0.146   1.575   0.758  0.00  0.00    +0.044 C 
ATOM     16  C   UNL     1       0.125   0.075   0.611  0.00  0.00    -0.050 A 
ATOM     17  C   UNL     1      -0.097  -0.725   1.716  0.00  0.00    +0.003 A 
ATOM     18  C   UNL     1      -0.117  -2.100   1.581  0.00  0.00    +0.005 A 
ATOM     19  C   UNL     1       0.085  -2.676   0.340  0.00  0.00    -0.026 A 
ATOM     20  C   UNL     1       0.307  -1.876  -0.765  0.00  0.00    +0.005 A 
ATOM     21  C   UNL     1       0.322  -0.500  -0.631  0.00  0.00    +0.003 A 
ENDBRANCH   1  19
BRANCH  13  22
ATOM     22  S   UNL     1       2.293  -5.692   0.435  0.00  0.00    +0.062 S 
ATOM     23  O   UNL     1       2.671  -6.628   1.435  0.00  0.00    -0.153 OA
ATOM     24  O   UNL     1       1.860  -6.091  -0.858  0.00  0.00    -0.153 OA
BRANCH  22  25
ATOM     25  C   UNL     1       3.674  -4.624   0.197  0.00  0.00    +0.109 A 
ATOM     26  C   UNL     1       3.695  -3.377   0.795  0.00  0.00    +0.032 A 
ATOM     27  C   UNL     1       4.779  -2.540   0.608  0.00  0.00    -0.046 A 
ATOM     28  C   UNL     1       5.841  -2.948  -0.177  0.00  0.00    -0.047 A 
ATOM     29  C   UNL     1       5.820  -4.195  -0.774  0.00  0.00    +0.009 A 
ATOM     30  C   UNL     1       4.738  -5.034  -0.584  0.00  0.00    -0.024 A 
ATOM     31  C   UNL     1       4.717  -6.395  -1.230  0.00  0.00    +0.046 C 
ATOM     32  C   UNL     1       7.022  -2.035  -0.381  0.00  0.00    +0.044 C 
ATOM     33  C   UNL     1       4.802  -1.181   1.259  0.00  0.00    +0.044 C 
ENDBRANCH  22  25
ENDBRANCH  13  22
TORSDOF 3
