REMARK  Name = ZINC00729593
REMARK  2 active torsions:
REMARK  status: ('A' for Active; 'I' for Inactive)
REMARK    1  A    between atoms: C_8  and  C_24
REMARK    2  A    between atoms: C_14  and  C_19
REMARK                            x       y       z     vdW  Elec       q    Type
REMARK                         _______ _______ _______ _____ _____    ______ ____
ROOT
ATOM      1  C   UNL     1       0.657   7.275   0.233  0.00  0.00    +0.002 A 
ATOM      2  C   UNL     1       0.445   7.610   1.558  0.00  0.00    +0.002 A 
ATOM      3  C   UNL     1      -0.699   7.184   2.212  0.00  0.00    +0.025 A 
ATOM      4  C   UNL     1      -1.628   6.422   1.526  0.00  0.00    +0.052 A 
ATOM      5  C   UNL     1      -1.398   6.051   0.210  0.00  0.00    +0.049 A 
ATOM      6  C   UNL     1      -0.261   6.493  -0.447  0.00  0.00    +0.025 A 
ATOM      7  N   UNL     1      -2.327   5.223  -0.418  0.00  0.00    -0.331 N 
ATOM      8  C   UNL     1      -2.553   3.871   0.047  0.00  0.00    +0.137 C 
ATOM      9  C   UNL     1      -3.138   3.773   1.435  0.00  0.00    +0.036 C 
ATOM     10  C   UNL     1      -3.248   4.783   2.317  0.00  0.00    +0.017 C 
ATOM     11  N   UNL     1      -2.848   6.059   2.084  0.00  0.00    -0.316 N 
ATOM     12  C   UNL     1      -3.873   4.549   3.682  0.00  0.00    +0.060 C 
ATOM     13  C   UNL     1      -3.585   3.124   4.152  0.00  0.00    +0.039 C 
ATOM     14  C   UNL     1      -4.182   2.163   3.117  0.00  0.00    +0.088 C 
ATOM     15  C   UNL     1      -3.590   2.478   1.776  0.00  0.00    +0.163 C 
ATOM     16  O   UNL     1      -3.495   1.588   0.954  0.00  0.00    -0.292 OA
ATOM     17  H   UNL     1      -2.829   5.557  -1.177  0.00  0.00    +0.147 HD
ATOM     18  H   UNL     1      -3.461   6.771   2.325  0.00  0.00    +0.152 HD
ENDROOT
BRANCH   8  19
ATOM     19  C   UNL     1      -1.238   3.135   0.031  0.00  0.00    -0.004 A 
ATOM     20  C   UNL     1      -0.553   2.917   1.212  0.00  0.00    +0.008 A 
ATOM     21  C   UNL     1       0.653   2.242   1.197  0.00  0.00    +0.020 A 
ATOM     22  C   UNL     1       1.175   1.784   0.001  0.00  0.00    +0.042 A 
ATOM     23  C   UNL     1       0.491   2.001  -1.181  0.00  0.00    +0.040 A 
ATOM     24  C   UNL     1      -0.714   2.682  -1.167  0.00  0.00    +0.048 A 
ATOM     25 CL   UNL     1      -1.571   2.961  -2.651  0.00  0.00    -0.083 Cl
ATOM     26 CL   UNL     1       2.690   0.936  -0.017  0.00  0.00    -0.083 Cl
ENDBRANCH   8  19
BRANCH  13  27
ATOM     27  C   UNL     1      -4.226   2.891   5.496  0.00  0.00    -0.006 A 
ATOM     28  C   UNL     1      -3.642   2.555   6.672  0.00  0.00    +0.011 A 
ATOM     29  C   UNL     1      -4.437   2.391   7.792  0.00  0.00    +0.008 A 
ATOM     30  C   UNL     1      -5.776   2.571   7.680  0.00  0.00    +0.045 A 
ATOM     31  S   UNL     1      -5.948   2.991   5.953  0.00  0.00    -0.101 S 
ENDBRANCH  13  27
TORSDOF 2
