REMARK  Name = ZINC65266443
REMARK  6 active torsions:
REMARK  status: ('A' for Active; 'I' for Inactive)
REMARK    1  A    between atoms: C_1  and  C_2
REMARK    2  A    between atoms: C_2  and  C_3
REMARK    3  A    between atoms: C_2  and  C_4
REMARK    4  A    between atoms: C_2  and  N_5
REMARK    5  A    between atoms: C_20  and  C_22
REMARK    6  A    between atoms: C_22  and  C_23
REMARK                            x       y       z     vdW  Elec       q    Type
REMARK                         _______ _______ _______ _____ _____    ______ ____
ROOT
ATOM      1  N   UNL     1       0.721  -0.443  -1.210  0.00  0.00    -0.370 N 
ATOM      2  C   UNL     1       1.968  -0.143  -1.374  0.00  0.00    +0.099 C 
ATOM      3  N   UNL     1       2.701   0.496  -0.387  0.00  0.00    -0.286 N 
ATOM      4  C   UNL     1       3.655   1.439  -0.790  0.00  0.00    +0.145 A 
ATOM      5  C   UNL     1       4.033   1.531  -2.131  0.00  0.00    +0.069 A 
ATOM      6  C   UNL     1       4.989   2.462  -2.507  0.00  0.00    +0.028 A 
ATOM      7  C   UNL     1       5.533   3.280  -1.525  0.00  0.00    +0.022 A 
ATOM      8  C   UNL     1       5.108   3.141  -0.219  0.00  0.00    +0.113 A 
ATOM      9  N   UNL     1       4.198   2.243   0.111  0.00  0.00    -0.238 NA
ATOM     10  N   UNL     1       3.446   0.699  -3.098  0.00  0.00    -0.328 N 
ATOM     11  C   UNL     1       2.701  -0.477  -2.646  0.00  0.00    +0.103 C 
ATOM     12  C   UNL     1       1.724  -0.968  -3.730  0.00  0.00    +0.054 C 
ATOM     13  C   UNL     1       2.615  -1.875  -4.609  0.00  0.00    +0.110 C 
ATOM     14  N   UNL     1       3.770  -2.279  -3.791  0.00  0.00    -0.299 N 
ATOM     15  C   UNL     1       3.628  -1.688  -2.446  0.00  0.00    +0.141 C 
ATOM     16  C   UNL     1       4.788  -3.061  -4.202  0.00  0.00    +0.220 C 
ATOM     17  O   UNL     1       5.691  -3.331  -3.439  0.00  0.00    -0.275 OA
ATOM     18  H   UNL     1       0.209  -0.812  -1.946  0.00  0.00    +0.161 HD
ATOM     19  H   UNL     1       3.534   0.898  -4.043  0.00  0.00    +0.147 HD
ATOM     20  H   UNL     1       2.558   0.298   0.551  0.00  0.00    +0.155 HD
ENDROOT
BRANCH   1  22
ATOM     21  C   UNL     1       0.258   1.237   0.506  0.00  0.00    +0.033 C 
ATOM     22  C   UNL     1       0.080  -0.224   0.090  0.00  0.00    +0.031 C 
ATOM     23  C   UNL     1       0.726  -1.135   1.136  0.00  0.00    +0.033 C 
ATOM     24  C   UNL     1      -1.411  -0.547  -0.016  0.00  0.00    +0.033 C 
ENDBRANCH   1  22
BRANCH  16  25
ATOM     25  C   UNL     1       4.804  -3.599  -5.610  0.00  0.00    +0.131 C 
BRANCH  25  26
ATOM     26  C   UNL     1       6.040  -4.437  -5.813  0.00  0.00    -0.039 A 
ATOM     27  C   UNL     1       7.206  -3.849  -6.265  0.00  0.00    +0.005 A 
ATOM     28  C   UNL     1       8.340  -4.617  -6.452  0.00  0.00    +0.020 A 
ATOM     29  C   UNL     1       8.307  -5.975  -6.186  0.00  0.00    +0.041 A 
ATOM     30  C   UNL     1       7.139  -6.562  -5.734  0.00  0.00    +0.020 A 
ATOM     31  C   UNL     1       6.008  -5.792  -5.542  0.00  0.00    +0.005 A 
ATOM     32 CL   UNL     1       9.730  -6.940  -6.421  0.00  0.00    -0.084 Cl
ENDBRANCH  25  26
ENDBRANCH  16  25
TORSDOF 3
