REMARK  Name = ZINC08926731
REMARK  6 active torsions:
REMARK  status: ('A' for Active; 'I' for Inactive)
REMARK    1  A    between atoms: C_1  and  C_2
REMARK    2  A    between atoms: C_9  and  N_14
REMARK    3  A    between atoms: C_10  and  C_11
REMARK    4  A    between atoms: C_15  and  C_17
REMARK    5  A    between atoms: C_22  and  C_33
REMARK    6  A    between atoms: C_25  and  C_28
REMARK                            x       y       z     vdW  Elec       q    Type
REMARK                         _______ _______ _______ _____ _____    ______ ____
ROOT
ATOM      1  N   UNL     1       1.941  -5.825   1.699  0.00  0.00    -0.274 N 
ATOM      2  C   UNL     1       2.251  -6.085   2.985  0.00  0.00    +0.269 C 
ATOM      3  O   UNL     1       2.231  -5.190   3.808  0.00  0.00    -0.268 OA
ATOM      4  H   UNL     1       1.957  -6.539   1.043  0.00  0.00    +0.156 HD
ENDROOT
BRANCH   1  12
ATOM      5  C   UNL     1      -0.019   1.526   0.010  0.00  0.00    +0.008 C 
ATOM      6  C   UNL     1       0.002  -0.004   0.002  0.00  0.00    -0.009 C 
ATOM      7  C   UNL     1       0.724  -0.500  -1.254  0.00  0.00    +0.008 C 
ATOM      8  C   UNL     1       0.537  -2.012  -1.399  0.00  0.00    +0.037 C 
ATOM      9  C   UNL     1       0.935  -2.680  -0.091  0.00  0.00    -0.023 A 
ATOM     10  C   UNL     1       1.019  -1.977   1.059  0.00  0.00    -0.004 A 
ATOM     11  S   UNL     1       1.507  -3.164   2.276  0.00  0.00    -0.077 S 
ATOM     12  C   UNL     1       1.599  -4.539   1.315  0.00  0.00    +0.085 A 
ATOM     13  C   UNL     1       1.254  -4.090   0.050  0.00  0.00    +0.068 A 
ATOM     14  C   UNL     1       0.750  -0.515   1.242  0.00  0.00    +0.046 C 
BRANCH  13  15
ATOM     15  C   UNL     1       1.213  -5.001  -1.099  0.00  0.00    +0.244 C 
ATOM     16  O   UNL     1       2.209  -5.171  -1.777  0.00  0.00    -0.270 OA
ATOM     17  N   UNL     1       0.072  -5.651  -1.403  0.00  0.00    -0.325 N 
ATOM     18  H   UNL     1      -0.722  -5.516  -0.862  0.00  0.00    +0.145 HD
ATOM     19  H   UNL     1       0.044  -6.253  -2.162  0.00  0.00    +0.145 HD
ENDBRANCH  13  15
ENDBRANCH   1  12
BRANCH   2  20
ATOM     20  C   UNL     1       2.616  -7.456   3.394  0.00  0.00    +0.149 A 
ATOM     21  C   UNL     1       2.956  -7.868   4.703  0.00  0.00    +0.078 A 
ATOM     22  C   UNL     1       3.220  -9.189   4.658  0.00  0.00    +0.119 A 
ATOM     23  N   UNL     1       3.059  -9.611   3.369  0.00  0.00    -0.238 N 
ATOM     24  N   UNL     1       2.675  -8.512   2.602  0.00  0.00    -0.164 NA
ATOM     25  C   UNL     1       3.266 -10.996   2.935  0.00  0.00    +0.215 C 
ATOM     26  C   UNL     1       4.120 -11.721   3.981  0.00  0.00    +0.066 C 
ATOM     27  C   UNL     1       3.535 -11.496   5.380  0.00  0.00    +0.140 C 
ATOM     28  N   UNL     1       3.597 -10.054   5.689  0.00  0.00    -0.319 N 
ATOM     29  H   UNL     1       3.883  -9.726   6.556  0.00  0.00    +0.148 HD
BRANCH  27  30
ATOM     30  C   UNL     1       2.103 -11.963   5.410  0.00  0.00    +0.125 A 
ATOM     31  C   UNL     1       1.668 -13.135   5.907  0.00  0.00    +0.046 A 
ATOM     32  C   UNL     1       0.265 -13.159   5.731  0.00  0.00    +0.041 A 
ATOM     33  C   UNL     1      -0.073 -12.000   5.138  0.00  0.00    +0.195 A 
ATOM     34  O   UNL     1       1.043 -11.278   4.951  0.00  0.00    -0.466 OA
ENDBRANCH  27  30
BRANCH  25  35
ATOM     35  C   UNL     1       3.985 -11.008   1.585  0.00  0.00    +0.412 C 
ATOM     36  F   UNL     1       5.223 -10.370   1.710  0.00  0.00    -0.168 F 
ATOM     37  F   UNL     1       4.181 -12.331   1.173  0.00  0.00    -0.168 F 
ATOM     38  F   UNL     1       3.207 -10.335   0.636  0.00  0.00    -0.168 F 
ENDBRANCH  25  35
ENDBRANCH   2  20
TORSDOF 5
