REMARK  Name = ZINC43464910
REMARK  7 active torsions:
REMARK  status: ('A' for Active; 'I' for Inactive)
REMARK    1  A    between atoms: C_1  and  C_2
REMARK    2  A    between atoms: C_5  and  O_26
REMARK    3  A    between atoms: C_6  and  C_8
REMARK    4  A    between atoms: C_8  and  C_17
REMARK    5  A    between atoms: N_9  and  C_10
REMARK    6  A    between atoms: C_10  and  C_11
REMARK    7  A    between atoms: C_18  and  C_22
REMARK                            x       y       z     vdW  Elec       q    Type
REMARK                         _______ _______ _______ _____ _____    ______ ____
ROOT
ATOM      1  C   UNL     1       0.184  -2.852   2.445  0.00  0.00    +0.076 C 
ATOM      2  N   UNL     1      -0.031  -4.192   2.433  0.00  0.00    -0.378 N 
ATOM      3  H   UNL     1      -0.123  -4.661   1.589  0.00  0.00    +0.160 HD
ENDROOT
BRANCH   1   9
ATOM      4  C   UNL     1       0.347   1.509   0.042  0.00  0.00    +0.044 C 
ATOM      5  C   UNL     1       0.246   0.005   0.022  0.00  0.00    -0.050 A 
ATOM      6  C   UNL     1       0.136  -0.663  -1.188  0.00  0.00    +0.007 A 
ATOM      7  C   UNL     1       0.042  -2.040  -1.222  0.00  0.00    +0.046 A 
ATOM      8  C   UNL     1       0.057  -2.767  -0.041  0.00  0.00    +0.126 A 
ATOM      9  C   UNL     1       0.168  -2.095   1.189  0.00  0.00    +0.042 A 
ATOM     10  C   UNL     1       0.268  -0.697   1.205  0.00  0.00    +0.017 A 
BRANCH   8  11
ATOM     11  O   UNL     1      -0.036  -4.119  -0.073  0.00  0.00    -0.506 OA
ATOM     12  H   UNL     1       0.817  -4.571  -0.130  0.00  0.00    +0.292 HD
ENDBRANCH   8  11
ENDBRANCH   1   9
BRANCH   1  13
ATOM     13  C   UNL     1       0.426  -2.184   3.672  0.00  0.00    +0.143 A 
ATOM     14  C   UNL     1       1.672  -1.874   4.242  0.00  0.00    +0.196 A 
ATOM     15  N   UNL     1       1.405  -1.255   5.377  0.00  0.00    -0.123 NA
ATOM     16  N   UNL     1       0.131  -1.172   5.527  0.00  0.00    -0.042 NA
ATOM     17  N   UNL     1      -0.489  -1.706   4.534  0.00  0.00    -0.126 NA
BRANCH  14  18
ATOM     18  C   UNL     1       3.033  -2.185   3.676  0.00  0.00    +0.438 C 
ATOM     19  F   UNL     1       3.505  -1.079   2.960  0.00  0.00    -0.164 F 
ATOM     20  F   UNL     1       3.918  -2.476   4.720  0.00  0.00    -0.164 F 
ATOM     21  F   UNL     1       2.942  -3.289   2.821  0.00  0.00    -0.164 F 
ENDBRANCH  14  18
ENDBRANCH   1  13
BRANCH   2  22
ATOM     22  C   UNL     1      -0.126  -4.930   3.695  0.00  0.00    +0.148 C 
BRANCH  22  23
ATOM     23  C   UNL     1      -1.507  -5.519   3.830  0.00  0.00    -0.028 A 
ATOM     24  C   UNL     1      -2.536  -4.755   4.348  0.00  0.00    +0.005 A 
ATOM     25  C   UNL     1      -3.803  -5.295   4.472  0.00  0.00    +0.000 A 
ATOM     26  C   UNL     1      -4.040  -6.598   4.078  0.00  0.00    +0.000 A 
ATOM     27  C   UNL     1      -3.011  -7.362   3.560  0.00  0.00    +0.000 A 
ATOM     28  C   UNL     1      -1.745  -6.821   3.432  0.00  0.00    +0.005 A 
ENDBRANCH  22  23
ENDBRANCH   2  22
TORSDOF 6
