REMARK  Name = ZINC21247577
REMARK  5 active torsions:
REMARK  status: ('A' for Active; 'I' for Inactive)
REMARK    1  A    between atoms: C_1  and  O_2
REMARK    2  A    between atoms: O_2  and  C_3
REMARK    3  A    between atoms: C_5  and  C_10
REMARK    4  A    between atoms: C_8  and  O_9
REMARK    5  A    between atoms: C_15  and  C_20
REMARK                            x       y       z     vdW  Elec       q    Type
REMARK                         _______ _______ _______ _____ _____    ______ ____
ROOT
ATOM      1  C   UNL     1       2.522  -0.183  -3.003  0.00  0.00    +0.136 C 
ATOM      2  C   UNL     1       1.639   0.120  -1.817  0.00  0.00    +0.036 C 
ATOM      3  C   UNL     1       0.649  -0.661  -1.351  0.00  0.00    +0.017 C 
ATOM      4  C   UNL     1      -0.163  -0.234  -0.139  0.00  0.00    +0.059 C 
ATOM      5  C   UNL     1      -0.283   1.288  -0.102  0.00  0.00    +0.032 C 
ATOM      6  C   UNL     1       1.135   1.867  -0.024  0.00  0.00    +0.088 C 
ATOM      7  C   UNL     1       1.924   1.358  -1.193  0.00  0.00    +0.163 C 
ATOM      8  O   UNL     1       2.840   2.032  -1.619  0.00  0.00    -0.292 OA
ATOM      9  N   UNL     1       0.296  -1.860  -1.879  0.00  0.00    -0.316 N 
ATOM     10  C   UNL     1       0.115  -2.110  -3.234  0.00  0.00    +0.052 A 
ATOM     11  C   UNL     1      -1.115  -2.453  -3.767  0.00  0.00    +0.025 A 
ATOM     12  C   UNL     1      -1.215  -2.735  -5.119  0.00  0.00    +0.002 A 
ATOM     13  C   UNL     1      -0.095  -2.677  -5.928  0.00  0.00    +0.002 A 
ATOM     14  C   UNL     1       1.133  -2.317  -5.400  0.00  0.00    +0.025 A 
ATOM     15  C   UNL     1       1.231  -2.013  -4.052  0.00  0.00    +0.049 A 
ATOM     16  N   UNL     1       2.420  -1.539  -3.499  0.00  0.00    -0.331 N 
ATOM     17  H   UNL     1       0.132  -2.725  -1.219  0.00  0.00    +0.152 HD
ATOM     18  H   UNL     1       3.287  -2.212  -3.442  0.00  0.00    +0.147 HD
ENDROOT
BRANCH   5  19
ATOM     19  C   UNL     1      -1.074   1.709   1.109  0.00  0.00    -0.043 A 
ATOM     20  C   UNL     1      -0.627   1.379   2.375  0.00  0.00    +0.005 A 
ATOM     21  C   UNL     1      -1.349   1.769   3.487  0.00  0.00    +0.020 A 
ATOM     22  C   UNL     1      -2.526   2.481   3.333  0.00  0.00    +0.041 A 
ATOM     23  C   UNL     1      -2.976   2.806   2.066  0.00  0.00    +0.020 A 
ATOM     24  C   UNL     1      -2.250   2.420   0.955  0.00  0.00    +0.005 A 
ATOM     25 CL   UNL     1      -3.437   2.966   4.729  0.00  0.00    -0.084 Cl
ENDBRANCH   5  19
BRANCH   1  28
ATOM     26  C   UNL     1       2.743   2.564  -5.588  0.00  0.00    +0.162 A 
ATOM     27  C   UNL     1       3.075   1.698  -4.558  0.00  0.00    +0.055 A 
ATOM     28  C   UNL     1       2.157   0.762  -4.119  0.00  0.00    -0.019 A 
ATOM     29  C   UNL     1       0.903   0.695  -4.698  0.00  0.00    +0.009 A 
ATOM     30  C   UNL     1       0.564   1.560  -5.721  0.00  0.00    +0.049 A 
ATOM     31  C   UNL     1       1.481   2.497  -6.170  0.00  0.00    +0.158 A 
BRANCH  26  33
ATOM     32  C   UNL     1       4.923   3.493  -5.381  0.00  0.00    +0.277 C 
ATOM     33  O   UNL     1       3.647   3.482  -6.024  0.00  0.00    -0.491 OA
ENDBRANCH  26  33
BRANCH  31  34
ATOM     34  O   UNL     1       1.148   3.349  -7.176  0.00  0.00    -0.503 OA
ATOM     35  H   UNL     1       0.150   3.295  -7.635  0.00  0.00    +0.292 HD
ENDBRANCH  31  34
ENDBRANCH   1  28
TORSDOF 4
