REMARK  Name = ZINC59875593
REMARK  14 active torsions:
REMARK  status: ('A' for Active; 'I' for Inactive)
REMARK    1  A    between atoms: C_1  and  C_2
REMARK    2  A    between atoms: C_2  and  C_3
REMARK    3  A    between atoms: C_3  and  C_5
REMARK    4  A    between atoms: C_3  and  C_6
REMARK    5  A    between atoms: C_9  and  C_12
REMARK    6  A    between atoms: C_12  and  C_14
REMARK    7  A    between atoms: C_12  and  N_17
REMARK    8  A    between atoms: C_14  and  C_15
REMARK    9  A    between atoms: C_14  and  C_16
REMARK   10  A    between atoms: C_18  and  C_20
REMARK   11  A    between atoms: C_20  and  C_21
REMARK   12  A    between atoms: C_21  and  C_22
REMARK   13  A    between atoms: C_22  and  C_23
REMARK   14  A    between atoms: C_23  and  C_24
REMARK                            x       y       z     vdW  Elec       q    Type
REMARK                         _______ _______ _______ _____ _____    ______ ____
ROOT
ATOM      1  N   UNL     1       2.347  -6.618   0.093  0.00  0.00    -0.308 N 
ATOM      2  C   UNL     1       2.363  -7.816  -0.524  0.00  0.00    +0.213 C 
ATOM      3  O   UNL     1       1.454  -8.600  -0.349  0.00  0.00    -0.276 OA
ATOM      4  H   UNL     1       3.074  -5.991  -0.047  0.00  0.00    +0.149 HD
ENDROOT
BRANCH   1   5
ATOM      5  C   UNL     1       1.232  -6.263   0.975  0.00  0.00    +0.106 C 
BRANCH   5   9
ATOM      6  C   UNL     1       0.870  -2.011   1.172  0.00  0.00    -0.045 A 
ATOM      7  C   UNL     1      -0.264  -2.799   1.109  0.00  0.00    +0.004 A 
ATOM      8  C   UNL     1      -0.147  -4.175   1.045  0.00  0.00    +0.006 A 
ATOM      9  C   UNL     1       1.105  -4.763   1.044  0.00  0.00    -0.027 A 
ATOM     10  C   UNL     1       2.239  -3.974   1.106  0.00  0.00    +0.006 A 
ATOM     11  C   UNL     1       2.121  -2.598   1.166  0.00  0.00    +0.004 A 
BRANCH   6  12
ATOM     12  C   UNL     1       0.742  -0.511   1.242  0.00  0.00    +0.016 C 
ATOM     13  C   UNL     1      -0.042  -0.124   2.497  0.00  0.00    +0.012 C 
BRANCH  12  15
ATOM     14  C   UNL     1      -0.019   1.526   0.010  0.00  0.00    +0.004 C 
ATOM     15  C   UNL     1       0.002  -0.004   0.002  0.00  0.00    +0.004 C 
ENDBRANCH  12  15
ENDBRANCH   6  12
ENDBRANCH   5   9
BRANCH   5  16
ATOM     16  C   UNL     1       1.495  -6.817   2.377  0.00  0.00    +0.008 C 
ATOM     17  C   UNL     1       2.721  -6.127   2.977  0.00  0.00    +0.009 C 
ATOM     18  C   UNL     1       0.277  -6.555   3.265  0.00  0.00    +0.009 C 
ENDBRANCH   5  16
ENDBRANCH   1   5
BRANCH   2  19
ATOM     19  C   UNL     1       3.509  -8.181  -1.431  0.00  0.00    +0.096 C 
BRANCH  19  20
ATOM     20  C   UNL     1       3.283  -9.584  -1.999  0.00  0.00    +0.009 C 
BRANCH  20  21
ATOM     21  C   UNL     1       4.447  -9.955  -2.921  0.00  0.00    +0.002 C 
BRANCH  21  22
ATOM     22  C   UNL     1       4.221 -11.357  -3.489  0.00  0.00    +0.016 C 
BRANCH  22  23
ATOM     23  C   UNL     1       5.385 -11.728  -4.410  0.00  0.00    +0.069 C 
ATOM     24  C   UNL     1       5.214 -13.156  -4.971  0.00  0.00    +0.108 C 
ATOM     25  C   UNL     1       5.614 -13.291  -6.443  0.00  0.00    +0.105 C 
ATOM     26  C   UNL     1       6.098 -11.970  -7.077  0.00  0.00    +0.093 C 
ATOM     27  S   UNL     1       5.353 -10.722  -5.956  0.00  0.00    -0.154 S 
ATOM     28  N   UNL     1       4.372 -13.710  -7.113  0.00  0.00    -0.294 N 
ATOM     29  C   UNL     1       3.396 -13.810  -6.200  0.00  0.00    +0.300 C 
ATOM     30  O   UNL     1       2.259 -14.140  -6.479  0.00  0.00    -0.253 OA
ATOM     31  N   UNL     1       3.786 -13.509  -4.963  0.00  0.00    -0.294 N 
ATOM     32  H   UNL     1       4.276 -13.885  -8.062  0.00  0.00    +0.151 HD
ATOM     33  H   UNL     1       3.213 -13.523  -4.180  0.00  0.00    +0.151 HD
ENDBRANCH  22  23
ENDBRANCH  21  22
ENDBRANCH  20  21
ENDBRANCH  19  20
ENDBRANCH   2  19
TORSDOF 10
