REMARK  Name = ZINC41585886
REMARK  7 active torsions:
REMARK  status: ('A' for Active; 'I' for Inactive)
REMARK    1  A    between atoms: C_1  and  C_2
REMARK    2  A    between atoms: C_2  and  C_3
REMARK    3  A    between atoms: C_2  and  C_4
REMARK    4  A    between atoms: C_7  and  C_10
REMARK    5  A    between atoms: C_17  and  O_34
REMARK    6  A    between atoms: C_18  and  C_21
REMARK    7  A    between atoms: C_21  and  N_22
REMARK                            x       y       z     vdW  Elec       q    Type
REMARK                         _______ _______ _______ _____ _____    ______ ____
ROOT
ATOM      1  C   UNL     1      -5.297  -2.083   0.042  0.00  0.00    +0.058 C 
ATOM      2  C   UNL     1      -5.788  -2.769  -1.020  0.00  0.00    +0.176 C 
ATOM      3  C   UNL     1      -5.027  -3.200  -2.204  0.00  0.00    +0.231 C 
ATOM      4  O   UNL     1      -3.844  -3.020  -2.437  0.00  0.00    -0.283 OA
ATOM      5  C   UNL     1      -6.016  -3.897  -3.045  0.00  0.00    +0.068 A 
ATOM      6  C   UNL     1      -5.937  -4.532  -4.285  0.00  0.00    +0.019 A 
ATOM      7  C   UNL     1      -7.051  -5.104  -4.830  0.00  0.00    +0.046 A 
ATOM      8  C   UNL     1      -8.265  -5.056  -4.150  0.00  0.00    +0.125 A 
ATOM      9  C   UNL     1      -8.359  -4.430  -2.918  0.00  0.00    +0.051 A 
ATOM     10  C   UNL     1      -7.235  -3.843  -2.350  0.00  0.00    +0.147 A 
ATOM     11  O   UNL     1      -7.065  -3.187  -1.181  0.00  0.00    -0.451 OA
ENDROOT
BRANCH   1  15
ATOM     12  C   UNL     1      -1.357  -0.521  -0.080  0.00  0.00    -0.045 A 
ATOM     13  C   UNL     1      -1.856  -1.037   1.103  0.00  0.00    +0.004 A 
ATOM     14  C   UNL     1      -3.136  -1.547   1.151  0.00  0.00    +0.008 A 
ATOM     15  C   UNL     1      -3.931  -1.541  -0.000  0.00  0.00    -0.021 A 
ATOM     16  C   UNL     1      -3.419  -1.018  -1.192  0.00  0.00    +0.008 A 
ATOM     17  C   UNL     1      -2.139  -0.507  -1.222  0.00  0.00    +0.004 A 
BRANCH  12  19
ATOM     18  C   UNL     1       0.166   1.189   0.872  0.00  0.00    +0.012 C 
ATOM     19  C   UNL     1       0.043   0.034  -0.124  0.00  0.00    +0.013 C 
ATOM     20  C   UNL     1       1.040  -1.066   0.246  0.00  0.00    +0.012 C 
ENDBRANCH  12  19
ENDBRANCH   1  15
BRANCH   8  21
ATOM     21  O   UNL     1      -9.367  -5.628  -4.700  0.00  0.00    -0.506 OA
ATOM     22  H   UNL     1      -9.491  -6.556  -4.457  0.00  0.00    +0.292 HD
ENDBRANCH   8  21
BRANCH   9  23
ATOM     23  C   UNL     1      -9.680  -4.385  -2.194  0.00  0.00    +0.127 C 
BRANCH  23  24
ATOM     24  N   UNL     1      -9.804  -5.566  -1.328  0.00  0.00    -0.295 NA
ATOM     25  C   UNL     1      -8.806  -5.535  -0.251  0.00  0.00    +0.103 C 
ATOM     26  C   UNL     1      -8.847  -6.861   0.516  0.00  0.00    +0.122 C 
ATOM     27  N   UNL     1     -10.229  -7.103   0.956  0.00  0.00    -0.314 N 
ATOM     28  C   UNL     1     -11.304  -7.014  -0.044  0.00  0.00    +0.122 C 
ATOM     29  C   UNL     1     -11.166  -5.683  -0.790  0.00  0.00    +0.103 C 
ATOM     30  C   UNL     1     -10.513  -7.408   2.283  0.00  0.00    +0.099 A 
ATOM     31  C   UNL     1     -11.808  -7.763   2.647  0.00  0.00    +0.042 A 
ATOM     32  C   UNL     1     -12.076  -8.064   3.970  0.00  0.00    +0.005 A 
ATOM     33  C   UNL     1     -11.037  -7.998   4.888  0.00  0.00    +0.018 A 
ATOM     34  C   UNL     1      -9.776  -7.638   4.457  0.00  0.00    +0.084 A 
ATOM     35  N   UNL     1      -9.548  -7.362   3.187  0.00  0.00    -0.350 N 
ATOM     36  H   UNL     1      -8.651  -7.115   2.910  0.00  0.00    +0.166 HD
ENDBRANCH  23  24
ENDBRANCH   9  23
TORSDOF 5
