REMARK  Name = ZINC36543437
REMARK  8 active torsions:
REMARK  status: ('A' for Active; 'I' for Inactive)
REMARK    1  A    between atoms: C_4  and  O_35
REMARK    2  A    between atoms: C_5  and  C_7
REMARK    3  A    between atoms: N_9  and  C_10
REMARK    4  A    between atoms: N_9  and  C_17
REMARK    5  A    between atoms: C_17  and  C_19
REMARK    6  A    between atoms: C_17  and  C_26
REMARK    7  A    between atoms: C_23  and  O_25
REMARK    8  A    between atoms: N_28  and  C_29
REMARK                            x       y       z     vdW  Elec       q    Type
REMARK                         _______ _______ _______ _____ _____    ______ ____
ROOT
ATOM      1  C   UNL     1      -0.279  -4.118   0.414  0.00  0.00    +0.198 C 
ENDROOT
BRANCH   1   2
ATOM      2  C   UNL     1      -1.393  -4.306  -0.583  0.00  0.00    -0.014 A 
ATOM      3  C   UNL     1      -2.185  -3.231  -0.946  0.00  0.00    +0.006 A 
ATOM      4  C   UNL     1      -3.208  -3.400  -1.860  0.00  0.00    +0.004 A 
ATOM      5  C   UNL     1      -3.442  -4.644  -2.414  0.00  0.00    +0.045 A 
ATOM      6  C   UNL     1      -2.650  -5.723  -2.053  0.00  0.00    +0.117 A 
ATOM      7  C   UNL     1      -1.620  -5.550  -1.139  0.00  0.00    +0.051 A 
BRANCH   6   8
ATOM      8  O   UNL     1      -2.878  -6.948  -2.596  0.00  0.00    -0.507 OA
ATOM      9  H   UNL     1      -2.387  -7.114  -3.412  0.00  0.00    +0.292 HD
ENDBRANCH   6   8
ENDBRANCH   1   2
BRANCH   1  10
ATOM     10  C   UNL     1      -0.859  -3.713   1.744  0.00  0.00    +0.239 C 
ATOM     11  O   UNL     1      -0.734  -2.573   2.139  0.00  0.00    -0.273 OA
ATOM     12  N   UNL     1      -1.516  -4.618   2.497  0.00  0.00    -0.311 N 
ATOM     13  H   UNL     1      -1.616  -5.530   2.181  0.00  0.00    +0.149 HD
BRANCH  12  14
ATOM     14  C   UNL     1      -2.079  -4.224   3.790  0.00  0.00    +0.073 C 
ATOM     15  C   UNL     1      -1.000  -4.329   4.870  0.00  0.00    +0.022 C 
ATOM     16  C   UNL     1      -1.589  -3.918   6.221  0.00  0.00    +0.002 C 
ATOM     17  C   UNL     1      -2.754  -4.845   6.573  0.00  0.00    +0.000 C 
ATOM     18  C   UNL     1      -3.833  -4.740   5.494  0.00  0.00    +0.002 C 
ATOM     19  C   UNL     1      -3.244  -5.151   4.143  0.00  0.00    +0.022 C 
ENDBRANCH  12  14
ENDBRANCH   1  10
BRANCH   1  22
ATOM     20  C   UNL     1       1.775  -2.821   0.604  0.00  0.00    +0.255 C 
ATOM     21  O   UNL     1       2.092  -3.515   1.551  0.00  0.00    -0.269 OA
ATOM     22  N   UNL     1       0.630  -3.072  -0.061  0.00  0.00    -0.250 N 
BRANCH  22  23
ATOM     23  C   UNL     1       0.311  -2.334  -1.206  0.00  0.00    +0.056 A 
ATOM     24  C   UNL     1       0.460  -2.903  -2.465  0.00  0.00    +0.025 A 
ATOM     25  C   UNL     1       0.143  -2.172  -3.593  0.00  0.00    +0.002 A 
ATOM     26  C   UNL     1      -0.322  -0.875  -3.471  0.00  0.00    +0.002 A 
ATOM     27  C   UNL     1      -0.472  -0.306  -2.220  0.00  0.00    +0.022 A 
ATOM     28  C   UNL     1      -0.162  -1.033  -1.087  0.00  0.00    +0.062 A 
ATOM     29 CL   UNL     1      -0.357  -0.320   0.484  0.00  0.00    -0.082 Cl
ENDBRANCH  22  23
BRANCH  20  34
ATOM     30  C   UNL     1       3.760  -0.477  -1.552  0.00  0.00    +0.001 A 
ATOM     31  C   UNL     1       4.275   0.394  -0.606  0.00  0.00    +0.004 A 
ATOM     32  C   UNL     1       3.982   0.225   0.732  0.00  0.00    +0.046 A 
ATOM     33  C   UNL     1       3.166  -0.822   1.138  0.00  0.00    +0.129 A 
ATOM     34  C   UNL     1       2.643  -1.705   0.184  0.00  0.00    +0.079 A 
ATOM     35  C   UNL     1       2.948  -1.522  -1.167  0.00  0.00    +0.017 A 
BRANCH  33  36
ATOM     36  O   UNL     1       2.877  -0.989   2.453  0.00  0.00    -0.506 OA
ATOM     37  H   UNL     1       2.084  -0.520   2.745  0.00  0.00    +0.292 HD
ENDBRANCH  33  36
ENDBRANCH  20  34
ENDBRANCH   1  22
TORSDOF 8
