REMARK  Name = ZINC08385814
REMARK  4 active torsions:
REMARK  status: ('A' for Active; 'I' for Inactive)
REMARK    1  A    between atoms: C_1  and  C_2
REMARK    2  A    between atoms: C_4  and  C_23
REMARK    3  A    between atoms: C_8  and  N_12
REMARK    4  A    between atoms: N_13  and  C_14
REMARK                            x       y       z     vdW  Elec       q    Type
REMARK                         _______ _______ _______ _____ _____    ______ ____
ROOT
ATOM      1  C   UNL     1      -1.911   4.565   0.046  0.00  0.00    +0.066 C 
ATOM      2  C   UNL     1      -0.769   3.583   0.029  0.00  0.00    +0.042 A 
ATOM      3  C   UNL     1       0.551   4.047   0.019  0.00  0.00    +0.046 A 
ATOM      4  C   UNL     1       1.572   3.151   0.004  0.00  0.00    +0.044 A 
ATOM      5  N   UNL     1       1.287   1.819  -0.001  0.00  0.00    -0.215 N 
ATOM      6  C   UNL     1      -0.017   1.405   0.010  0.00  0.00    +0.185 A 
ATOM      7  N   UNL     1      -1.014   2.290   0.029  0.00  0.00    -0.231 NA
ATOM      8  C   UNL     1       0.002  -0.004   0.002  0.00  0.00    +0.171 A 
ATOM      9  C   UNL     1       1.360  -0.396  -0.013  0.00  0.00    +0.168 A 
ATOM     10  N   UNL     1       2.106   0.685  -0.014  0.00  0.00    -0.148 NA
ATOM     11  N   UNL     1       1.828  -1.707  -0.024  0.00  0.00    -0.340 N 
ATOM     12  C   UNL     1       3.003   3.625  -0.006  0.00  0.00    +0.066 C 
ATOM     13  H   UNL     1       1.200  -2.446  -0.021  0.00  0.00    +0.144 HD
ATOM     14  H   UNL     1       2.782  -1.882  -0.034  0.00  0.00    +0.144 HD
ENDROOT
BRANCH   8  15
ATOM     15  N   UNL     1      -1.071  -0.823   0.009  0.00  0.00    -0.142 NA
ATOM     16  N   UNL     1      -0.906  -2.102   0.000  0.00  0.00    -0.147 NA
BRANCH  16  17
ATOM     17  C   UNL     1      -1.993  -2.932   0.006  0.00  0.00    +0.114 A 
ATOM     18  C   UNL     1      -3.285  -2.397   0.028  0.00  0.00    +0.047 A 
ATOM     19  C   UNL     1      -4.377  -3.240   0.029  0.00  0.00    +0.032 A 
ATOM     20  C   UNL     1      -4.196  -4.613   0.020  0.00  0.00    +0.020 A 
ATOM     21  C   UNL     1      -2.920  -5.150   0.004  0.00  0.00    +0.032 A 
ATOM     22  C   UNL     1      -1.818  -4.319  -0.003  0.00  0.00    +0.047 A 
ATOM     23 BR   UNL     1      -0.076  -5.054  -0.025  0.00  0.00    -0.048 Br
ATOM     24 BR   UNL     1      -5.699  -5.760   0.029  0.00  0.00    -0.050 Br
ATOM     25 BR   UNL     1      -3.534  -0.523   0.049  0.00  0.00    -0.048 Br
ENDBRANCH  16  17
ENDBRANCH   8  15
TORSDOF 2
