REMARK  Name = ZINC05061279
REMARK  7 active torsions:
REMARK  status: ('A' for Active; 'I' for Inactive)
REMARK    1  A    between atoms: C_1  and  C_2
REMARK    2  A    between atoms: C_2  and  C_4
REMARK    3  A    between atoms: C_2  and  O_11
REMARK    4  A    between atoms: N_9  and  C_10
REMARK    5  A    between atoms: O_11  and  C_12
REMARK    6  A    between atoms: C_12  and  C_14
REMARK    7  A    between atoms: C_16  and  C_24
REMARK                            x       y       z     vdW  Elec       q    Type
REMARK                         _______ _______ _______ _____ _____    ______ ____
ROOT
ATOM      1  C   UNL     1       2.803  -1.151   2.202  0.00  0.00    +0.070 A 
ATOM      2  C   UNL     1       2.213  -1.334   3.445  0.00  0.00    +0.044 A 
ATOM      3  C   UNL     1       2.993  -1.800   4.515  0.00  0.00    +0.072 A 
ATOM      4  N   UNL     1       4.274  -2.072   4.385  0.00  0.00    -0.247 NA
ATOM      5  C   UNL     1       4.921  -1.924   3.228  0.00  0.00    +0.072 A 
ATOM      6  C   UNL     1       4.227  -1.465   2.081  0.00  0.00    +0.014 A 
ATOM      7  C   UNL     1       4.908  -1.317   0.868  0.00  0.00    +0.011 A 
ATOM      8  C   UNL     1       6.236  -1.621   0.800  0.00  0.00    +0.001 A 
ATOM      9  C   UNL     1       6.922  -2.078   1.923  0.00  0.00    +0.002 A 
ATOM     10  C   UNL     1       6.293  -2.223   3.120  0.00  0.00    +0.028 A 
ENDROOT
BRANCH   3  11
ATOM     11  C   UNL     1       2.351  -1.992   5.838  0.00  0.00    +0.000 A 
ATOM     12  C   UNL     1       0.994  -1.717   6.003  0.00  0.00    +0.010 A 
ATOM     13  C   UNL     1       0.402  -1.897   7.237  0.00  0.00    +0.001 A 
ATOM     14  C   UNL     1       1.152  -2.349   8.307  0.00  0.00    +0.000 A 
ATOM     15  C   UNL     1       2.499  -2.623   8.149  0.00  0.00    +0.001 A 
ATOM     16  C   UNL     1       3.100  -2.453   6.919  0.00  0.00    +0.010 A 
ENDBRANCH   3  11
BRANCH   1  17
ATOM     17  C   UNL     1       2.023  -0.663   1.045  0.00  0.00    +0.341 C 
ATOM     18  O   UNL     1       2.583  -0.412  -0.003  0.00  0.00    -0.245 OA
BRANCH  17  19
ATOM     19  O   UNL     1       0.690  -0.496   1.154  0.00  0.00    -0.449 OA
BRANCH  19  21
ATOM     20  C   UNL     1      -0.041   1.508   0.018  0.00  0.00    +0.062 C 
ATOM     21  C   UNL     1      -0.001  -0.021  -0.003  0.00  0.00    +0.259 C 
BRANCH  21  22
ATOM     22  C   UNL     1      -1.408  -0.561  -0.005  0.00  0.00    +0.261 C 
ATOM     23  O   UNL     1      -1.810  -1.206   0.939  0.00  0.00    -0.271 OA
ATOM     24  N   UNL     1      -2.218  -0.327  -1.056  0.00  0.00    -0.237 N 
ATOM     25  C   UNL     1      -3.476  -0.810  -1.058  0.00  0.00    +0.306 C 
ATOM     26  O   UNL     1      -3.880  -1.457  -0.111  0.00  0.00    -0.252 OA
ATOM     27  N   UNL     1      -4.286  -0.577  -2.109  0.00  0.00    -0.302 N 
ATOM     28  C   UNL     1      -5.654  -1.102  -2.111  0.00  0.00    +0.129 C 
ATOM     29  H   UNL     1      -1.895   0.189  -1.812  0.00  0.00    +0.159 HD
ATOM     30  H   UNL     1      -3.964  -0.061  -2.865  0.00  0.00    +0.150 HD
ENDBRANCH  21  22
ENDBRANCH  19  21
ENDBRANCH  17  19
ENDBRANCH   1  17
TORSDOF 5
