REMARK  Name = ZINC01645195
REMARK  3 active torsions:
REMARK  status: ('A' for Active; 'I' for Inactive)
REMARK    1  A    between atoms: C_1  and  C_2
REMARK    2  A    between atoms: N_15  and  N_16
REMARK    3  A    between atoms: C_17  and  C_19
REMARK                            x       y       z     vdW  Elec       q    Type
REMARK                         _______ _______ _______ _____ _____    ______ ____
ROOT
ATOM      1  C   UNL     1       0.140  -0.403   0.358  0.00  0.00    +0.045 C 
ATOM      2  C   UNL     1      -0.929   0.656   0.281  0.00  0.00    -0.030 A 
ATOM      3  C   UNL     1      -0.596   1.990   0.409  0.00  0.00    +0.035 A 
ATOM      4  C   UNL     1      -1.573   2.973   0.343  0.00  0.00    +0.127 A 
ATOM      5  C   UNL     1      -2.894   2.624   0.150  0.00  0.00    +0.044 A 
ATOM      6  C   UNL     1      -3.223   1.271   0.009  0.00  0.00    +0.037 A 
ATOM      7  C   UNL     1      -2.251   0.298   0.080  0.00  0.00    +0.045 A 
ATOM      8 CL   UNL     1      -2.682  -1.375  -0.088  0.00  0.00    -0.083 Cl
ATOM      9  S   UNL     1      -4.201   3.792   0.069  0.00  0.00    -0.050 S 
ATOM     10  C   UNL     1      -3.410   5.263  -0.424  0.00  0.00    +0.196 C 
ATOM     11  N   UNL     1      -2.196   5.592  -0.242  0.00  0.00    -0.105 NA
ATOM     12  S   UNL     1      -1.071   4.652   0.504  0.00  0.00    +0.102 S 
ATOM     13  O   UNL     1      -1.139   4.963   1.889  0.00  0.00    -0.146 OA
ATOM     14  O   UNL     1       0.128   4.789  -0.247  0.00  0.00    -0.146 OA
ATOM     15  N   UNL     1      -4.193   6.177  -1.090  0.00  0.00    -0.242 N 
ATOM     16  H   UNL     1      -5.128   5.983  -1.260  0.00  0.00    +0.172 HD
ENDROOT
BRANCH  15  17
ATOM     17  N   UNL     1      -3.639   7.389  -1.524  0.00  0.00    -0.250 N 
ATOM     18  C   UNL     1      -4.423   8.305  -2.191  0.00  0.00    +0.113 C 
ATOM     19  H   UNL     1      -6.312   8.626  -2.879  0.00  0.00    +0.157 HD
ATOM     20  H   UNL     1      -2.704   7.583  -1.354  0.00  0.00    +0.171 HD
ATOM     21  N   UNL     1      -5.691   7.981  -2.390  0.00  0.00    -0.385 N 
ATOM     22  H   UNL     1      -6.050   7.079  -2.053  0.00  0.00    +0.157 HD
BRANCH  18  23
ATOM     23  C   UNL     1      -3.838   9.586  -2.649  0.00  0.00    +0.014 A 
ATOM     24  C   UNL     1      -2.495   9.870  -2.401  0.00  0.00    +0.013 A 
ATOM     25  C   UNL     1      -1.954  11.062  -2.836  0.00  0.00    +0.020 A 
ATOM     26  C   UNL     1      -2.744  11.981  -3.505  0.00  0.00    +0.041 A 
ATOM     27  C   UNL     1      -4.079  11.706  -3.748  0.00  0.00    +0.020 A 
ATOM     28  C   UNL     1      -4.629  10.515  -3.324  0.00  0.00    +0.013 A 
ATOM     29 CL   UNL     1      -2.058  13.482  -4.042  0.00  0.00    -0.084 Cl
ENDBRANCH  18  23
ENDBRANCH  15  17
TORSDOF 2
