REMARK  Name = ZINC63165318
REMARK  6 active torsions:
REMARK  status: ('A' for Active; 'I' for Inactive)
REMARK    1  A    between atoms: C_2  and  C_3
REMARK    2  A    between atoms: C_3  and  N_4
REMARK    3  A    between atoms: C_5  and  C_21
REMARK    4  A    between atoms: C_9  and  S_10
REMARK    5  A    between atoms: S_10  and  C_11
REMARK    6  A    between atoms: C_11  and  C_12
REMARK                            x       y       z     vdW  Elec       q    Type
REMARK                         _______ _______ _______ _____ _____    ______ ____
ROOT
ATOM      1  N   UNL     1      -1.383  -1.598  -1.181  0.00  0.00    -0.281 N 
ATOM      2  C   UNL     1      -1.846  -1.200  -2.521  0.00  0.00    +0.208 C 
ATOM      3  N   UNL     1      -1.695  -2.424  -3.326  0.00  0.00    -0.242 N 
ATOM      4  N   UNL     1      -1.185  -3.400  -2.461  0.00  0.00    -0.162 NA
ATOM      5  C   UNL     1      -1.008  -2.930  -1.272  0.00  0.00    +0.176 C 
ATOM      6  H   UNL     1      -1.906  -2.533  -4.267  0.00  0.00    +0.170 HD
ENDROOT
BRANCH   2   7
ATOM      7  C   UNL     1      -0.985  -0.092  -3.071  0.00  0.00    -0.007 A 
ATOM      8  C   UNL     1      -1.524   1.165  -3.277  0.00  0.00    +0.007 A 
ATOM      9  C   UNL     1      -0.735   2.181  -3.781  0.00  0.00    +0.002 A 
ATOM     10  C   UNL     1       0.593   1.942  -4.081  0.00  0.00    +0.020 A 
ATOM     11  C   UNL     1       1.133   0.685  -3.875  0.00  0.00    +0.041 A 
ATOM     12  C   UNL     1       0.344  -0.331  -3.364  0.00  0.00    +0.027 A 
ATOM     13 CL   UNL     1       2.800   0.384  -4.251  0.00  0.00    -0.084 Cl
ENDBRANCH   2   7
BRANCH   1  14
ATOM     14  C   UNL     1      -1.323  -0.751   0.012  0.00  0.00    +0.136 C 
BRANCH  14  16
ATOM     15  C   UNL     1       0.226   1.122   0.248  0.00  0.00    +0.005 C 
ATOM     16  C   UNL     1       0.063  -0.174   0.150  0.00  0.00    -0.016 C 
ENDBRANCH  14  16
ENDBRANCH   1  14
BRANCH   5  17
ATOM     17  S   UNL     1      -0.372  -3.871   0.076  0.00  0.00    -0.085 S 
BRANCH  17  18
ATOM     18  C   UNL     1      -0.070  -5.511  -0.637  0.00  0.00    +0.124 C 
BRANCH  18  19
ATOM     19  C   UNL     1       0.491  -6.440   0.441  0.00  0.00    +0.184 C 
ATOM     20  N   UNL     1      -0.433  -6.508   1.579  0.00  0.00    -0.363 N 
ATOM     21  C   UNL     1       0.204  -6.068   2.626  0.00  0.00    +0.060 A 
ATOM     22  C   UNL     1      -0.185  -5.896   4.032  0.00  0.00    +0.027 A 
ATOM     23  C   UNL     1       0.709  -5.405   4.914  0.00  0.00    +0.002 A 
ATOM     24  C   UNL     1       2.017  -5.042   4.545  0.00  0.00    +0.002 A 
ATOM     25  C   UNL     1       2.475  -5.158   3.283  0.00  0.00    +0.027 A 
ATOM     26  C   UNL     1       1.588  -5.684   2.236  0.00  0.00    +0.060 A 
ATOM     27  N   UNL     1       1.754  -5.902   0.963  0.00  0.00    -0.363 N 
ATOM     28  H   UNL     1      -1.350  -6.822   1.556  0.00  0.00    +0.162 HD
ATOM     29  H   UNL     1       2.562  -5.738   0.453  0.00  0.00    +0.162 HD
ENDBRANCH  18  19
ENDBRANCH  17  18
ENDBRANCH   5  17
TORSDOF 6
