REMARK  Name = ZINC20503851
REMARK  7 active torsions:
REMARK  status: ('A' for Active; 'I' for Inactive)
REMARK    1  A    between atoms: C_1  and  N_2
REMARK    2  A    between atoms: N_5  and  C_8
REMARK    3  A    between atoms: C_8  and  C_9
REMARK    4  A    between atoms: C_18  and  C_20
REMARK    5  A    between atoms: C_20  and  N_21
REMARK    6  A    between atoms: N_21  and  S_22
REMARK    7  A    between atoms: S_22  and  C_25
REMARK                            x       y       z     vdW  Elec       q    Type
REMARK                         _______ _______ _______ _____ _____    ______ ____
ROOT
ATOM      1  C   UNL     1       7.709   0.883  -3.529  0.00  0.00    -0.011 C 
ATOM      2  C   UNL     1       7.108  -0.334  -2.821  0.00  0.00    -0.073 C 
ATOM      3  N   UNL     1       6.037  -0.902  -3.653  0.00  0.00    +0.383 N 
ATOM      4  C   UNL     1       6.565  -1.370  -4.942  0.00  0.00    -0.078 C 
ATOM      5  C   UNL     1       7.151  -0.182  -5.711  0.00  0.00    -0.015 C 
ATOM      6  C   UNL     1       6.984   1.087  -4.865  0.00  0.00    -0.012 C 
ATOM      7  C   UNL     1       5.490   1.295  -4.585  0.00  0.00    -0.010 C 
ATOM      8  C   UNL     1       4.950   0.067  -3.847  0.00  0.00    -0.053 C 
ATOM      9  H   UNL     1       5.622  -1.772  -3.123  0.00  0.00    -0.081 HD
ENDROOT
BRANCH   1  10
ATOM     10  C   UNL     1       7.533   2.127  -2.655  0.00  0.00    +0.086 C 
BRANCH  10  15
ATOM     11  C   UNL     1      10.481   6.744  -4.031  0.00  0.00    -0.096 C 
ATOM     12  N   UNL     1       9.830   5.596  -3.386  0.00  0.00    +0.379 N 
ATOM     13  C   UNL     1       8.367   5.711  -3.458  0.00  0.00    -0.064 C 
ATOM     14  C   UNL     1       7.728   4.540  -2.708  0.00  0.00    +0.066 C 
ATOM     15  N   UNL     1       8.184   3.275  -3.300  0.00  0.00    -0.306 NA
ATOM     16  C   UNL     1       9.647   3.159  -3.228  0.00  0.00    +0.066 C 
ATOM     17  C   UNL     1      10.286   4.331  -3.978  0.00  0.00    -0.064 C 
ATOM     18  H   UNL     1      10.119   5.597  -2.324  0.00  0.00    -0.082 HD
ENDBRANCH  10  15
ENDBRANCH   1  10
BRANCH   8  19
ATOM     19  C   UNL     1       4.396   0.491  -2.486  0.00  0.00    +0.090 C 
BRANCH  19  20
ATOM     20  N   UNL     1       3.990  -0.697  -1.731  0.00  0.00    -0.191 NA
ATOM     21  H   UNL     1       3.716  -1.619  -2.264  0.00  0.00    +0.148 HD
BRANCH  20  22
ATOM     22  S   UNL     1       3.704  -0.587  -0.104  0.00  0.00    +0.058 S 
ATOM     23  O   UNL     1       4.816   0.096   0.458  0.00  0.00    -0.153 OA
ATOM     24  O   UNL     1       3.308  -1.882   0.327  0.00  0.00    -0.153 OA
BRANCH  22  25
ATOM     25  C   UNL     1       2.306   0.465   0.109  0.00  0.00    +0.105 A 
ATOM     26  C   UNL     1       1.033  -0.074   0.130  0.00  0.00    +0.028 A 
ATOM     27  C   UNL     1      -0.064   0.751   0.297  0.00  0.00    +0.002 A 
ATOM     28  C   UNL     1       0.113   2.114   0.443  0.00  0.00    +0.000 A 
ATOM     29  C   UNL     1       1.386   2.653   0.423  0.00  0.00    +0.002 A 
ATOM     30  C   UNL     1       2.483   1.828   0.256  0.00  0.00    +0.028 A 
ENDBRANCH  22  25
ENDBRANCH  20  22
ENDBRANCH  19  20
ENDBRANCH   8  19
TORSDOF 6
