REMARK  Name = ZINC38686096
REMARK  13 active torsions:
REMARK  status: ('A' for Active; 'I' for Inactive)
REMARK    1  A    between atoms: C_1  and  C_2
REMARK    2  A    between atoms: C_2  and  C_3
REMARK    3  A    between atoms: C_3  and  C_4
REMARK    4  A    between atoms: C_4  and  C_5
REMARK    5  A    between atoms: C_5  and  O_6
REMARK    6  A    between atoms: O_6  and  C_7
REMARK    7  A    between atoms: C_12  and  C_13
REMARK    8  A    between atoms: C_18  and  O_27
REMARK    9  A    between atoms: C_22  and  N_26
REMARK   10  A    between atoms: C_23  and  C_24
REMARK   11  A    between atoms: O_27  and  C_28
REMARK   12  A    between atoms: C_28  and  C_30
REMARK   13  A    between atoms: C_35  and  N_36
REMARK                            x       y       z     vdW  Elec       q    Type
REMARK                         _______ _______ _______ _____ _____    ______ ____
ROOT
ATOM      1  C   UNL     1       1.665  -6.755  -2.801  0.00  0.00    +0.101 C 
ATOM      2  C   UNL     1       0.569  -7.632  -3.347  0.00  0.00    +0.008 A 
ATOM      3  C   UNL     1      -0.678  -7.087  -3.596  0.00  0.00    +0.012 A 
ATOM      4  C   UNL     1      -1.695  -7.876  -4.097  0.00  0.00    +0.047 A 
ATOM      5  C   UNL     1      -1.468  -9.222  -4.351  0.00  0.00    +0.135 A 
ATOM      6  C   UNL     1      -0.220  -9.770  -4.103  0.00  0.00    +0.093 A 
ATOM      7  C   UNL     1       0.802  -8.975  -3.600  0.00  0.00    +0.138 A 
ATOM      8  O   UNL     1       2.017  -9.527  -3.363  0.00  0.00    -0.441 OA
ATOM      9  C   UNL     1       2.883  -8.913  -2.539  0.00  0.00    +0.199 C 
ATOM     10  C   UNL     1       2.769  -7.602  -2.234  0.00  0.00    +0.098 C 
ENDROOT
BRANCH   1  16
ATOM     11  C   UNL     1       2.147  -4.513  -3.814  0.00  0.00    +0.125 A 
ATOM     12  C   UNL     1       2.659  -3.724  -4.834  0.00  0.00    +0.046 A 
ATOM     13  C   UNL     1       3.229  -4.316  -5.944  0.00  0.00    +0.004 A 
ATOM     14  C   UNL     1       3.289  -5.694  -6.040  0.00  0.00    +0.001 A 
ATOM     15  C   UNL     1       2.780  -6.482  -5.025  0.00  0.00    +0.008 A 
ATOM     16  C   UNL     1       2.214  -5.895  -3.910  0.00  0.00    +0.007 A 
BRANCH  11  17
ATOM     17  O   UNL     1       1.587  -3.933  -2.720  0.00  0.00    -0.492 OA
BRANCH  17  18
ATOM     18  C   UNL     1       1.553  -2.505  -2.689  0.00  0.00    +0.229 C 
BRANCH  18  19
ATOM     19  C   UNL     1       0.891  -2.038  -1.391  0.00  0.00    +0.041 C 
BRANCH  19  20
ATOM     20  C   UNL     1       0.854  -0.509  -1.358  0.00  0.00    +0.003 C 
BRANCH  20  22
ATOM     21  C   UNL     1       0.155   1.486  -0.027  0.00  0.00    +0.004 C 
ATOM     22  C   UNL     1       0.192  -0.043  -0.060  0.00  0.00    -0.003 C 
ENDBRANCH  20  22
ENDBRANCH  19  20
ENDBRANCH  18  19
ENDBRANCH  17  18
ENDBRANCH  11  17
ENDBRANCH   1  16
BRANCH   9  23
ATOM     23  N   UNL     1       3.911  -9.639  -1.992  0.00  0.00    -0.328 N 
ATOM     24  H   UNL     1       4.005 -10.582  -2.202  0.00  0.00    +0.145 HD
ATOM     25  H   UNL     1       4.544  -9.210  -1.395  0.00  0.00    +0.145 HD
ENDBRANCH   9  23
BRANCH  10  26
ATOM     26  C   UNL     1       3.726  -7.007  -1.350  0.00  0.00    +0.101 C 
ATOM     27  N   UNL     1       4.485  -6.534  -0.649  0.00  0.00    -0.191 NA
ENDBRANCH  10  26
BRANCH   5  28
ATOM     28  O   UNL     1      -2.467 -10.000  -4.843  0.00  0.00    -0.422 OA
BRANCH  28  29
ATOM     29  C   UNL     1      -2.918  -9.740  -6.086  0.00  0.00    +0.347 C 
ATOM     30  O   UNL     1      -2.369  -8.896  -6.767  0.00  0.00    -0.244 OA
BRANCH  29  31
ATOM     31  C   UNL     1      -4.078 -10.482  -6.622  0.00  0.00    +0.089 A 
ATOM     32  C   UNL     1      -4.066 -11.878  -6.649  0.00  0.00    +0.017 A 
ATOM     33  C   UNL     1      -5.152 -12.564  -7.150  0.00  0.00    +0.001 A 
ATOM     34  C   UNL     1      -6.253 -11.871  -7.625  0.00  0.00    +0.002 A 
ATOM     35  C   UNL     1      -6.271 -10.488  -7.601  0.00  0.00    +0.033 A 
ATOM     36  C   UNL     1      -5.193  -9.790  -7.097  0.00  0.00    +0.140 A 
BRANCH  36  37
ATOM     37  N   UNL     1      -5.218  -8.310  -7.065  0.00  0.00    +0.057 N 
ATOM     38  O   UNL     1      -6.125  -7.709  -7.591  0.00  0.00    -0.126 OA
ATOM     39  O   UNL     1      -4.330  -7.702  -6.514  0.00  0.00    -0.126 OA
ENDBRANCH  36  37
ENDBRANCH  29  31
ENDBRANCH  28  29
ENDBRANCH   5  28
TORSDOF 12
