REMARK  Name = ZINC66606361
REMARK  2 active torsions:
REMARK  status: ('A' for Active; 'I' for Inactive)
REMARK    1  A    between atoms: C_3  and  N_22
REMARK    2  A    between atoms: C_6  and  C_7
REMARK                            x       y       z     vdW  Elec       q    Type
REMARK                         _______ _______ _______ _____ _____    ______ ____
ROOT
ATOM      1  C   UNL     1      -1.259  -0.769   0.009  0.00  0.00    +0.144 A 
ATOM      2  N   UNL     1      -2.404  -0.122   0.041  0.00  0.00    -0.191 NA
ATOM      3  C   UNL     1      -3.583  -0.753   0.049  0.00  0.00    +0.282 A 
ATOM      4  O   UNL     1      -4.625  -0.115   0.078  0.00  0.00    -0.265 OA
ATOM      5  C   UNL     1      -3.612  -2.234   0.021  0.00  0.00    +0.075 A 
ATOM      6  C   UNL     1      -4.778  -3.122   0.023  0.00  0.00    -0.023 A 
ATOM      7  C   UNL     1      -4.529  -4.448  -0.001  0.00  0.00    -0.004 A 
ATOM      8  S   UNL     1      -2.760  -4.583  -0.039  0.00  0.00    -0.075 S 
ATOM      9  C   UNL     1      -2.363  -2.856  -0.012  0.00  0.00    +0.092 A 
ATOM     10  N   UNL     1      -1.212  -2.133  -0.023  0.00  0.00    -0.333 N 
ATOM     11  C   UNL     1      -5.520  -5.569   0.013  0.00  0.00    +0.043 C 
ATOM     12  C   UNL     1      -6.598  -5.306  -1.046  0.00  0.00    +0.005 C 
ATOM     13  C   UNL     1      -7.722  -4.502  -0.400  0.00  0.00    +0.001 C 
ATOM     14  C   UNL     1      -7.151  -3.570   0.666  0.00  0.00    +0.005 C 
ATOM     15  C   UNL     1      -6.197  -2.560   0.040  0.00  0.00    +0.037 C 
ATOM     16  H   UNL     1      -0.355  -2.587  -0.050  0.00  0.00    +0.168 HD
ENDROOT
BRANCH   1  22
ATOM     17  C   UNL     1      -0.017   1.399   0.034  0.00  0.00    +0.016 A 
ATOM     18  C   UNL     1       1.178   2.068   0.026  0.00  0.00    +0.042 A 
ATOM     19  C   UNL     1       2.367   1.343  -0.013  0.00  0.00    +0.099 A 
ATOM     20  N   UNL     1       2.357   0.018  -0.043  0.00  0.00    -0.349 N 
ATOM     21  C   UNL     1       1.231  -0.665  -0.038  0.00  0.00    +0.095 A 
ATOM     22  C   UNL     1       0.002  -0.004   0.002  0.00  0.00    +0.033 A 
ATOM     23  H   UNL     1       3.200  -0.461  -0.070  0.00  0.00    +0.167 HD
BRANCH  19  24
ATOM     24  N   UNL     1       3.578   2.018  -0.022  0.00  0.00    -0.312 N 
ATOM     25  C   UNL     1       4.852   1.288   0.066  0.00  0.00    +0.134 C 
ATOM     26  C   UNL     1       5.766   1.772  -1.065  0.00  0.00    +0.178 C 
ATOM     27  O   UNL     1       5.848   3.199  -1.025  0.00  0.00    -0.377 OA
ATOM     28  C   UNL     1       4.600   3.863  -1.241  0.00  0.00    +0.178 C 
ATOM     29  C   UNL     1       3.627   3.485  -0.125  0.00  0.00    +0.134 C 
ENDBRANCH  19  24
ENDBRANCH   1  22
TORSDOF 2
