REMARK  Name = ZINC12408594
REMARK  7 active torsions:
REMARK  status: ('A' for Active; 'I' for Inactive)
REMARK    1  A    between atoms: C_1  and  C_2
REMARK    2  A    between atoms: C_2  and  C_28
REMARK    3  A    between atoms: C_6  and  C_15
REMARK    4  A    between atoms: C_19  and  O_23
REMARK    5  A    between atoms: C_20  and  O_21
REMARK    6  A    between atoms: O_21  and  C_22
REMARK    7  A    between atoms: O_23  and  C_24
REMARK                            x       y       z     vdW  Elec       q    Type
REMARK                         _______ _______ _______ _____ _____    ______ ____
ROOT
ATOM      1  C   UNL     1       5.797  -3.278   2.840  0.00  0.00    +0.011 C 
ATOM      2  C   UNL     1       4.852  -2.477   3.737  0.00  0.00    -0.023 C 
ATOM      3  C   UNL     1       5.175  -0.987   3.633  0.00  0.00    +0.058 C 
ATOM      4  C   UNL     1       5.042  -0.532   2.189  0.00  0.00    +0.019 C 
ATOM      5  C   UNL     1       4.093  -1.042   1.391  0.00  0.00    +0.037 C 
ATOM      6  C   UNL     1       3.724  -0.695  -0.037  0.00  0.00    +0.141 C 
ATOM      7  N   UNL     1       4.689   0.125  -0.748  0.00  0.00    -0.312 N 
ATOM      8  C   UNL     1       5.021   1.381  -0.241  0.00  0.00    +0.205 A 
ATOM      9  C   UNL     1       5.606   1.539   1.083  0.00  0.00    +0.208 A 
ATOM     10  N   UNL     1       5.719   2.800   1.346  0.00  0.00    -0.032 NA
ATOM     11  O   UNL     1       5.267   3.512   0.201  0.00  0.00    -0.239 OA
ATOM     12  N   UNL     1       4.847   2.555  -0.762  0.00  0.00    -0.032 NA
ATOM     13  N   UNL     1       5.951   0.418   1.826  0.00  0.00    -0.297 N 
ATOM     14  C   UNL     1       3.263  -2.084   1.894  0.00  0.00    +0.163 C 
ATOM     15  O   UNL     1       2.394  -2.527   1.170  0.00  0.00    -0.292 OA
ATOM     16  C   UNL     1       3.404  -2.661   3.266  0.00  0.00    +0.086 C 
ATOM     17  C   UNL     1       4.990  -2.940   5.188  0.00  0.00    +0.011 C 
ATOM     18  H   UNL     1       5.099  -0.198  -1.565  0.00  0.00    +0.149 HD
ATOM     19  H   UNL     1       6.875   0.307   2.099  0.00  0.00    +0.153 HD
ENDROOT
BRANCH   6  20
ATOM     20  C   UNL     1       2.405   0.035  -0.021  0.00  0.00    +0.023 A 
ATOM     21  C   UNL     1       1.947   0.610   1.150  0.00  0.00    +0.009 A 
ATOM     22  C   UNL     1       0.738   1.279   1.169  0.00  0.00    +0.004 A 
ATOM     23  C   UNL     1      -0.020   1.375   0.016  0.00  0.00    +0.049 A 
ATOM     24  C   UNL     1       0.433   0.801  -1.161  0.00  0.00    +0.162 A 
ATOM     25  C   UNL     1       1.651   0.127  -1.179  0.00  0.00    +0.167 A 
BRANCH  25  26
ATOM     26  O   UNL     1       2.100  -0.438  -2.332  0.00  0.00    -0.491 OA
ATOM     27  C   UNL     1       2.909   0.377  -3.182  0.00  0.00    +0.277 C 
ENDBRANCH  25  26
BRANCH  24  28
ATOM     28  O   UNL     1      -0.311   0.895  -2.295  0.00  0.00    -0.491 OA
ATOM     29  C   UNL     1      -1.550   1.602  -2.202  0.00  0.00    +0.277 C 
ENDBRANCH  24  28
ENDBRANCH   6  20
TORSDOF 3
