REMARK  Name = ZINC66120829
REMARK  11 active torsions:
REMARK  status: ('A' for Active; 'I' for Inactive)
REMARK    1  A    between atoms: C_1  and  N_2
REMARK    2  A    between atoms: N_2  and  C_3
REMARK    3  A    between atoms: N_2  and  C_4
REMARK    4  A    between atoms: C_4  and  C_5
REMARK    5  A    between atoms: C_5  and  O_6
REMARK    6  A    between atoms: O_6  and  C_7
REMARK    7  A    between atoms: C_10  and  C_13
REMARK    8  A    between atoms: C_13  and  N_14
REMARK    9  A    between atoms: C_21  and  C_24
REMARK   10  A    between atoms: C_24  and  C_25
REMARK   11  A    between atoms: C_25  and  C_26
REMARK                            x       y       z     vdW  Elec       q    Type
REMARK                         _______ _______ _______ _____ _____    ______ ____
ROOT
ATOM      1  N   UNL     1      -5.617   1.327   6.519  0.00  0.00    -0.295 N 
ATOM      2  C   UNL     1      -6.524   1.744   7.425  0.00  0.00    +0.302 C 
ATOM      3  O   UNL     1      -6.680   1.122   8.458  0.00  0.00    -0.253 OA
ATOM      4  N   UNL     1      -7.258   2.848   7.185  0.00  0.00    -0.285 N 
ATOM      5  C   UNL     1      -7.165   3.543   5.893  0.00  0.00    +0.109 C 
ATOM      6  C   UNL     1      -6.848   5.019   6.149  0.00  0.00    +0.019 C 
ATOM      7  C   UNL     1      -7.892   5.603   7.103  0.00  0.00    +0.006 C 
ATOM      8  C   UNL     1      -7.838   4.859   8.439  0.00  0.00    +0.007 C 
ATOM      9  C   UNL     1      -8.170   3.377   8.207  0.00  0.00    +0.112 C 
ATOM     10  H   UNL     1      -5.543   1.779   5.663  0.00  0.00    +0.151 HD
ENDROOT
BRANCH   1  11
ATOM     11  C   UNL     1      -4.741   0.193   6.826  0.00  0.00    +0.141 C 
BRANCH  11  15
ATOM     12  C   UNL     1      -2.148  -0.545   3.510  0.00  0.00    +0.120 A 
ATOM     13  C   UNL     1      -1.759   0.327   4.516  0.00  0.00    +0.046 A 
ATOM     14  C   UNL     1      -2.599   0.565   5.587  0.00  0.00    +0.009 A 
ATOM     15  C   UNL     1      -3.827  -0.067   5.657  0.00  0.00    -0.030 A 
ATOM     16  C   UNL     1      -4.218  -0.937   4.656  0.00  0.00    +0.009 A 
ATOM     17  C   UNL     1      -3.384  -1.173   3.580  0.00  0.00    +0.046 A 
BRANCH  12  18
ATOM     18  O   UNL     1      -1.324  -0.780   2.456  0.00  0.00    -0.494 OA
BRANCH  18  19
ATOM     19  C   UNL     1      -0.068  -0.099   2.450  0.00  0.00    +0.210 C 
BRANCH  19  20
ATOM     20  C   UNL     1       0.717  -0.486   1.195  0.00  0.00    -0.038 C 
BRANCH  20  22
ATOM     21  C   UNL     1      -0.015   1.468   0.012  0.00  0.00    -0.096 C 
ATOM     22  N   UNL     1       0.006  -0.001   0.005  0.00  0.00    +0.378 N 
ATOM     23  C   UNL     1       0.694  -0.474  -1.204  0.00  0.00    -0.096 C 
ATOM     24  H   UNL     1      -0.940  -0.351   0.012  0.00  0.00    -0.082 HD
ENDBRANCH  20  22
ENDBRANCH  19  20
ENDBRANCH  18  19
ENDBRANCH  12  18
ENDBRANCH  11  15
ENDBRANCH   1  11
BRANCH   8  25
ATOM     25  C   UNL     1      -8.859   5.465   9.404  0.00  0.00    +0.014 C 
BRANCH  25  26
ATOM     26  C   UNL     1      -8.719   4.805  10.777  0.00  0.00    +0.096 C 
BRANCH  26  27
ATOM     27  C   UNL     1      -9.725   5.402  11.727  0.00  0.00    +0.210 C 
ATOM     28  O   UNL     1     -10.479   6.271  11.344  0.00  0.00    -0.276 OA
ATOM     29  N   UNL     1      -9.785   4.972  13.003  0.00  0.00    -0.329 N 
ATOM     30  H   UNL     1      -9.181   4.277  13.309  0.00  0.00    +0.145 HD
ATOM     31  H   UNL     1     -10.433   5.356  13.614  0.00  0.00    +0.145 HD
ENDBRANCH  26  27
ENDBRANCH  25  26
ENDBRANCH   8  25
TORSDOF 9
