REMARK  Name = ZINC45172492
REMARK  9 active torsions:
REMARK  status: ('A' for Active; 'I' for Inactive)
REMARK    1  A    between atoms: C_1  and  C_2
REMARK    2  A    between atoms: C_3  and  C_9
REMARK    3  A    between atoms: C_4  and  C_8
REMARK    4  A    between atoms: N_5  and  C_7
REMARK    5  A    between atoms: C_9  and  C_11
REMARK    6  A    between atoms: C_9  and  N_12
REMARK    7  A    between atoms: N_12  and  C_13
REMARK    8  A    between atoms: C_13  and  C_15
REMARK    9  A    between atoms: C_13  and  C_16
REMARK                            x       y       z     vdW  Elec       q    Type
REMARK                         _______ _______ _______ _____ _____    ______ ____
ROOT
ATOM      1  N   UNL     1      -0.618   0.848  -2.745  0.00  0.00    +0.388 N 
ATOM      2  H   UNL     1      -1.544   0.670  -2.385  0.00  0.00    -0.084 HD
ATOM      3  H   UNL     1      -0.208   1.626  -2.249  0.00  0.00    -0.084 HD
ENDROOT
BRANCH   1   4
ATOM      4  C   UNL     1       0.218  -0.346  -2.559  0.00  0.00    -0.040 C 
ATOM      5  C   UNL     1       1.659  -0.027  -2.961  0.00  0.00    -0.009 C 
BRANCH   4   8
ATOM      6  C   UNL     1      -0.214  -3.295  -1.484  0.00  0.00    +0.068 C 
ATOM      7  C   UNL     1      -0.009  -2.066  -0.636  0.00  0.00    +0.062 A 
ATOM      8  C   UNL     1       0.180  -0.764  -1.112  0.00  0.00    -0.018 A 
ATOM      9  C   UNL     1       0.326   0.052  -0.043  0.00  0.00    +0.038 A 
ATOM     10  N   UNL     1       0.231  -0.706   1.070  0.00  0.00    -0.271 N 
ATOM     11  N   UNL     1       0.015  -2.031   0.671  0.00  0.00    -0.176 NA
ATOM     12  C   UNL     1       0.330  -0.226   2.450  0.00  0.00    +0.172 C 
ATOM     13  C   UNL     1       0.553   1.542  -0.087  0.00  0.00    +0.065 C 
ENDBRANCH   4   8
ENDBRANCH   1   4
BRANCH   1  14
ATOM     14  C   UNL     1      -0.702   1.169  -4.176  0.00  0.00    -0.043 C 
ATOM     15  C   UNL     1      -1.435   0.044  -4.909  0.00  0.00    -0.009 C 
BRANCH  14  16
ATOM     16  C   UNL     1      -1.455   2.461  -4.358  0.00  0.00    -0.062 A 
ATOM     17  C   UNL     1      -2.564   2.730  -3.578  0.00  0.00    +0.003 A 
ATOM     18  C   UNL     1      -3.256   3.916  -3.744  0.00  0.00    +0.015 A 
ATOM     19  C   UNL     1      -2.837   4.833  -4.691  0.00  0.00    +0.018 A 
ATOM     20  C   UNL     1      -1.727   4.564  -5.471  0.00  0.00    +0.015 A 
ATOM     21  C   UNL     1      -1.034   3.380  -5.301  0.00  0.00    +0.003 A 
ATOM     22 BR   UNL     1      -3.783   6.455  -4.919  0.00  0.00    -0.050 Br
ENDBRANCH  14  16
ENDBRANCH   1  14
TORSDOF 4
