REMARK  Name = ZINC51186218
REMARK  11 active torsions:
REMARK  status: ('A' for Active; 'I' for Inactive)
REMARK    1  A    between atoms: C_1  and  C_2
REMARK    2  A    between atoms: C_4  and  N_20
REMARK    3  A    between atoms: C_7  and  N_8
REMARK    4  A    between atoms: N_8  and  C_9
REMARK    5  A    between atoms: C_9  and  C_11
REMARK    6  A    between atoms: C_9  and  C_12
REMARK    7  A    between atoms: N_14  and  C_15
REMARK    8  A    between atoms: C_15  and  C_16
REMARK    9  A    between atoms: C_16  and  C_17
REMARK   10  A    between atoms: C_17  and  C_18
REMARK   11  A    between atoms: C_17  and  C_19
REMARK                            x       y       z     vdW  Elec       q    Type
REMARK                         _______ _______ _______ _____ _____    ______ ____
ROOT
ATOM      1  C   UNL     1       0.024   1.503   0.010  0.00  0.00    +0.046 C 
ATOM      2  C   UNL     1       0.022  -0.004   0.002  0.00  0.00    -0.028 A 
ATOM      3  C   UNL     1       0.026  -0.688  -1.198  0.00  0.00    +0.028 A 
ATOM      4  C   UNL     1       0.025  -2.076  -1.206  0.00  0.00    +0.030 A 
ATOM      5  C   UNL     1       0.020  -2.777  -0.007  0.00  0.00    +0.025 A 
ATOM      6  C   UNL     1       0.016  -2.094   1.193  0.00  0.00    +0.025 A 
ATOM      7  C   UNL     1       0.023  -0.705   1.200  0.00  0.00    +0.031 A 
ENDROOT
BRANCH   4   8
ATOM      8  N   UNL     1       0.028  -2.770  -2.422  0.00  0.00    -0.328 N 
ATOM      9  C   UNL     1       0.154  -4.228  -2.422  0.00  0.00    +0.116 C 
ATOM     10  C   UNL     1      -1.142  -4.852  -2.953  0.00  0.00    +0.088 C 
ATOM     11  S   UNL     1      -1.469  -4.188  -4.614  0.00  0.00    -0.158 S 
ATOM     12  C   UNL     1      -1.419  -2.389  -4.357  0.00  0.00    +0.088 C 
ATOM     13  C   UNL     1      -0.099  -2.028  -3.677  0.00  0.00    +0.116 C 
ENDBRANCH   4   8
BRANCH   7  14
ATOM     14  N   UNL     1       0.025  -0.011   2.417  0.00  0.00    -0.333 N 
ATOM     15  H   UNL     1       0.026   0.959   2.422  0.00  0.00    +0.147 HD
BRANCH  14  16
ATOM     16  C   UNL     1       0.026  -0.751   3.682  0.00  0.00    +0.154 C 
ATOM     17  C   UNL     1       1.463  -1.118   4.057  0.00  0.00    +0.038 C 
BRANCH  16  18
ATOM     18  C   UNL     1      -0.573   0.108   4.766  0.00  0.00    +0.233 C 
ATOM     19  O   UNL     1      -0.961   1.227   4.508  0.00  0.00    -0.274 OA
ATOM     20  N   UNL     1      -0.676  -0.368   6.022  0.00  0.00    -0.314 N 
ATOM     21  H   UNL     1      -0.365  -1.264   6.229  0.00  0.00    +0.149 HD
BRANCH  20  22
ATOM     22  C   UNL     1      -1.258   0.467   7.077  0.00  0.00    +0.104 C 
BRANCH  22  23
ATOM     23  C   UNL     1      -1.257  -0.306   8.397  0.00  0.00    +0.022 C 
BRANCH  23  24
ATOM     24  C   UNL     1      -1.865   0.566   9.498  0.00  0.00    -0.016 C 
ATOM     25  C   UNL     1      -1.979  -0.248  10.789  0.00  0.00    +0.007 C 
ATOM     26  C   UNL     1      -0.967   1.782   9.739  0.00  0.00    +0.007 C 
ENDBRANCH  23  24
ENDBRANCH  22  23
ENDBRANCH  20  22
ENDBRANCH  16  18
ENDBRANCH  14  16
ENDBRANCH   7  14
TORSDOF 7
