REMARK  Name = ZINC14260775
REMARK  6 active torsions:
REMARK  status: ('A' for Active; 'I' for Inactive)
REMARK    1  A    between atoms: C_1  and  C_2
REMARK    2  A    between atoms: C_2  and  C_4
REMARK    3  A    between atoms: C_2  and  N_11
REMARK    4  A    between atoms: C_12  and  C_14
REMARK    5  A    between atoms: C_14  and  C_15
REMARK    6  A    between atoms: C_15  and  C_16
REMARK                            x       y       z     vdW  Elec       q    Type
REMARK                         _______ _______ _______ _____ _____    ______ ____
ROOT
ATOM      1  C   UNL     1      -0.072   0.992   0.000  0.00  0.00    +0.096 C 
ENDROOT
BRANCH   1   3
ATOM      2  N   UNL     1      -0.340   1.072   2.458  0.00  0.00    -0.309 N 
ATOM      3  C   UNL     1      -0.770   1.475   1.245  0.00  0.00    +0.213 C 
ATOM      4  O   UNL     1      -1.718   2.226   1.157  0.00  0.00    -0.276 OA
ATOM      5  H   UNL     1       0.418   0.471   2.529  0.00  0.00    +0.149 HD
BRANCH   2   7
ATOM      6  C   UNL     1      -2.222   0.644   3.959  0.00  0.00    +0.033 C 
ATOM      7  C   UNL     1      -1.018   1.542   3.668  0.00  0.00    +0.100 C 
BRANCH   7   8
ATOM      8  C   UNL     1      -0.061   1.492   4.832  0.00  0.00    -0.027 A 
ATOM      9  C   UNL     1       0.805   0.423   4.968  0.00  0.00    +0.007 A 
ATOM     10  C   UNL     1       1.687   0.380   6.032  0.00  0.00    +0.020 A 
ATOM     11  C   UNL     1       1.694   1.400   6.966  0.00  0.00    +0.041 A 
ATOM     12  C   UNL     1       0.823   2.466   6.832  0.00  0.00    +0.020 A 
ATOM     13  C   UNL     1      -0.055   2.511   5.765  0.00  0.00    +0.007 A 
ATOM     14 CL   UNL     1       2.796   1.342   8.306  0.00  0.00    -0.084 Cl
ENDBRANCH   7   8
ENDBRANCH   2   7
ENDBRANCH   1   3
BRANCH   1  15
ATOM     15  C   UNL     1      -0.753   1.593  -1.232  0.00  0.00    +0.022 C 
BRANCH  15  16
ATOM     16  C   UNL     1       0.031   1.205  -2.487  0.00  0.00    +0.080 C 
ATOM     17  C   UNL     1      -0.052  -0.307  -2.692  0.00  0.00    +0.049 C 
ATOM     18  C   UNL     1       0.464  -0.663  -4.062  0.00  0.00    -0.025 A 
ATOM     19  C   UNL     1       1.129  -1.858  -4.261  0.00  0.00    +0.005 A 
ATOM     20  C   UNL     1       1.592  -2.192  -5.519  0.00  0.00    +0.000 A 
ATOM     21  C   UNL     1       1.391  -1.332  -6.584  0.00  0.00    +0.002 A 
ATOM     22  C   UNL     1       0.732  -0.134  -6.391  0.00  0.00    +0.023 A 
ATOM     23  C   UNL     1       0.271   0.207  -5.125  0.00  0.00    +0.037 A 
ATOM     24  N   UNL     1      -0.365   1.435  -4.922  0.00  0.00    -0.285 N 
ATOM     25  C   UNL     1      -0.554   1.913  -3.681  0.00  0.00    +0.221 C 
ATOM     26  O   UNL     1      -1.202   2.925  -3.520  0.00  0.00    -0.275 OA
ATOM     27  H   UNL     1      -0.675   1.947  -5.686  0.00  0.00    +0.155 HD
ENDBRANCH  15  16
ENDBRANCH   1  15
TORSDOF 5
