REMARK  Name = ZINC09135602
REMARK  7 active torsions:
REMARK  status: ('A' for Active; 'I' for Inactive)
REMARK    1  A    between atoms: C_1  and  N_2
REMARK    2  A    between atoms: C_10  and  C_12
REMARK    3  A    between atoms: C_12  and  C_14
REMARK    4  A    between atoms: C_12  and  N_60
REMARK    5  A    between atoms: C_14  and  N_15
REMARK    6  A    between atoms: C_16  and  C_18
REMARK    7  A    between atoms: N_20  and  C_21
REMARK                            x       y       z     vdW  Elec       q    Type
REMARK                         _______ _______ _______ _____ _____    ______ ____
ROOT
ATOM      1  C   UNL     1       2.120   1.873   0.736  0.00  0.00    -0.020 C 
ENDROOT
BRANCH   1  11
ATOM      2  C   UNL     1      -3.265   2.326  -2.535  0.00  0.00    +0.129 C 
ATOM      3  N   UNL     1      -2.160   3.277  -2.716  0.00  0.00    -0.333 N 
ATOM      4  C   UNL     1      -2.631   4.658  -2.595  0.00  0.00    +0.105 C 
ATOM      5  C   UNL     1      -1.434   5.602  -2.765  0.00  0.00    +0.024 C 
ATOM      6  C   UNL     1      -0.519   5.426  -1.551  0.00  0.00    +0.038 C 
ATOM      7  C   UNL     1      -0.299   3.957  -1.290  0.00  0.00    -0.026 A 
ATOM      8  C   UNL     1      -1.102   2.982  -1.857  0.00  0.00    +0.033 A 
ATOM      9  C   UNL     1      -0.852   1.639  -1.574  0.00  0.00    +0.023 A 
ATOM     10  C   UNL     1       0.182   1.283  -0.735  0.00  0.00    +0.004 A 
ATOM     11  C   UNL     1       0.984   2.260  -0.175  0.00  0.00    -0.059 A 
ATOM     12  C   UNL     1       0.742   3.591  -0.452  0.00  0.00    +0.007 A 
ENDBRANCH   1  11
BRANCH   1  17
ATOM     13  C   UNL     1       2.695   0.611   2.737  0.00  0.00    -0.078 C 
ATOM     14  C   UNL     1       1.893   0.044   3.936  0.00  0.00    -0.020 C 
ATOM     15  C   UNL     1       0.609   0.905   3.931  0.00  0.00    -0.020 C 
ATOM     16  C   UNL     1       0.499   1.455   2.497  0.00  0.00    -0.078 C 
ATOM     17  N   UNL     1       1.634   0.899   1.759  0.00  0.00    +0.385 N 
ATOM     18  H   UNL     1       1.351   0.031   1.289  0.00  0.00    -0.081 HD
ENDBRANCH   1  17
BRANCH   1  19
ATOM     19  C   UNL     1       3.243   1.241  -0.089  0.00  0.00    +0.094 C 
BRANCH  19  20
ATOM     20  N   UNL     1       4.431   1.074   0.751  0.00  0.00    -0.309 N 
ATOM     21  C   UNL     1       5.501   0.403   0.280  0.00  0.00    +0.299 C 
ATOM     22  O   UNL     1       5.479  -0.063  -0.841  0.00  0.00    -0.265 OA
ATOM     23  H   UNL     1       4.449   1.446   1.647  0.00  0.00    +0.149 HD
BRANCH  21  24
ATOM     24  C   UNL     1       6.713   0.233   1.136  0.00  0.00    +0.303 C 
ATOM     25  O   UNL     1       6.734   0.699   2.256  0.00  0.00    -0.265 OA
ATOM     26  N   UNL     1       7.782  -0.438   0.664  0.00  0.00    -0.278 N 
ATOM     27  H   UNL     1       7.801  -0.734  -0.259  0.00  0.00    +0.155 HD
BRANCH  26  28
ATOM     28  C   UNL     1       8.865  -0.708   1.506  0.00  0.00    +0.037 A 
ATOM     29  C   UNL     1      10.154  -0.750   0.990  0.00  0.00    +0.026 A 
ATOM     30  C   UNL     1      11.224  -1.012   1.823  0.00  0.00    +0.043 A 
ATOM     31  C   UNL     1      11.012  -1.243   3.172  0.00  0.00    +0.159 A 
ATOM     32  C   UNL     1       9.726  -1.206   3.690  0.00  0.00    +0.160 A 
ATOM     33  C   UNL     1       8.653  -0.939   2.859  0.00  0.00    +0.064 A 
ATOM     34  F   UNL     1       9.522  -1.431   5.006  0.00  0.00    -0.202 F 
ATOM     35  F   UNL     1      12.060  -1.503   3.984  0.00  0.00    -0.202 F 
ENDBRANCH  26  28
ENDBRANCH  21  24
ENDBRANCH  19  20
ENDBRANCH   1  19
TORSDOF 6
