REMARK  Name = ZINC37253898
REMARK  3 active torsions:
REMARK  status: ('A' for Active; 'I' for Inactive)
REMARK    1  A    between atoms: C_1  and  C_2
REMARK    2  A    between atoms: C_7  and  N_10
REMARK    3  A    between atoms: N_10  and  C_11
REMARK                            x       y       z     vdW  Elec       q    Type
REMARK                         _______ _______ _______ _____ _____    ______ ____
ROOT
ATOM      1  C   UNL     1       2.115   0.004   3.680  0.00  0.00    +0.049 C 
ATOM      2  C   UNL     1       2.902  -0.577   4.832  0.00  0.00    -0.031 A 
ATOM      3  C   UNL     1       3.246  -1.865   5.176  0.00  0.00    +0.005 A 
ATOM      4  C   UNL     1       3.992  -2.099   6.317  0.00  0.00    +0.015 A 
ATOM      5  C   UNL     1       4.390  -1.036   7.109  0.00  0.00    +0.020 A 
ATOM      6  C   UNL     1       4.046   0.256   6.766  0.00  0.00    +0.038 A 
ATOM      7  C   UNL     1       3.295   0.499   5.618  0.00  0.00    +0.036 A 
ATOM      8  N   UNL     1       2.829   1.694   5.069  0.00  0.00    -0.286 N 
ATOM      9  C   UNL     1       2.131   1.497   3.934  0.00  0.00    +0.208 C 
ATOM     10  O   UNL     1       1.613   2.351   3.246  0.00  0.00    -0.277 OA
ATOM     11 BR   UNL     1       5.410  -1.355   8.669  0.00  0.00    -0.050 Br
ATOM     12  H   UNL     1       2.991   2.568   5.459  0.00  0.00    +0.155 HD
ENDROOT
BRANCH   1  13
ATOM     13  N   UNL     1       0.736  -0.504   3.691  0.00  0.00    +0.391 N 
ATOM     14  H   UNL     1       0.283  -0.228   4.548  0.00  0.00    -0.084 HD
ATOM     15  H   UNL     1       0.749  -1.511   3.625  0.00  0.00    -0.084 HD
BRANCH  13  21
ATOM     16  C   UNL     1      -0.061   1.621   0.074  0.00  0.00    +0.007 C 
ATOM     17  C   UNL     1      -0.164   0.095   0.054  0.00  0.00    -0.016 C 
ATOM     18  C   UNL     1      -1.635  -0.318   0.144  0.00  0.00    +0.003 C 
ATOM     19  C   UNL     1      -2.236   0.217   1.445  0.00  0.00    -0.001 C 
ATOM     20  C   UNL     1      -1.470  -0.361   2.637  0.00  0.00    -0.016 C 
ATOM     21  C   UNL     1       0.001   0.051   2.547  0.00  0.00    -0.070 C 
ATOM     22  C   UNL     1       0.602  -0.483   1.245  0.00  0.00    -0.013 C 
ENDBRANCH  13  21
ENDBRANCH   1  13
TORSDOF 2
