REMARK  Name = ZINC04330466
REMARK  7 active torsions:
REMARK  status: ('A' for Active; 'I' for Inactive)
REMARK    1  A    between atoms: C_4  and  N_7
REMARK    2  A    between atoms: C_8  and  C_10
REMARK    3  A    between atoms: N_12  and  N_13
REMARK    4  A    between atoms: C_14  and  C_15
REMARK    5  A    between atoms: C_18  and  O_21
REMARK    6  A    between atoms: O_21  and  C_22
REMARK    7  A    between atoms: C_22  and  C_24
REMARK                            x       y       z     vdW  Elec       q    Type
REMARK                         _______ _______ _______ _____ _____    ______ ____
ROOT
ATOM      1  N   UNL     1       1.197   2.151  -0.006  0.00  0.00    -0.187 NA
ATOM      2  C   UNL     1       1.111   3.447  -0.010  0.00  0.00    +0.138 C 
ENDROOT
BRANCH   2   3
ATOM      3  C   UNL     1       2.335   4.267  -0.037  0.00  0.00    -0.005 A 
ATOM      4  C   UNL     1       3.590   3.652  -0.053  0.00  0.00    +0.013 A 
ATOM      5  C   UNL     1       4.732   4.423  -0.083  0.00  0.00    +0.047 A 
ATOM      6  C   UNL     1       4.637   5.809  -0.088  0.00  0.00    +0.132 A 
ATOM      7  C   UNL     1       3.392   6.424  -0.067  0.00  0.00    +0.047 A 
ATOM      8  C   UNL     1       2.245   5.662  -0.042  0.00  0.00    +0.013 A 
BRANCH   6   9
ATOM      9  O   UNL     1       5.766   6.564  -0.113  0.00  0.00    -0.422 OA
BRANCH   9  10
ATOM     10  C   UNL     1       6.125   7.166   1.038  0.00  0.00    +0.345 C 
ATOM     11  O   UNL     1       5.402   7.095   2.011  0.00  0.00    -0.244 OA
BRANCH  10  12
ATOM     12  C   UNL     1       7.397   7.912   1.115  0.00  0.00    +0.072 A 
ATOM     13  C   UNL     1       8.233   7.991  -0.001  0.00  0.00    +0.016 A 
ATOM     14  C   UNL     1       9.417   8.694   0.077  0.00  0.00    +0.001 A 
ATOM     15  C   UNL     1       9.784   9.311   1.260  0.00  0.00    +0.001 A 
ATOM     16  C   UNL     1       8.963   9.232   2.372  0.00  0.00    +0.015 A 
ATOM     17  C   UNL     1       7.773   8.537   2.307  0.00  0.00    +0.027 A 
ATOM     18  I   UNL     1       6.533   8.418   3.991  0.00  0.00    -0.043 I 
ENDBRANCH  10  12
ENDBRANCH   9  10
ENDBRANCH   6   9
ENDBRANCH   2   3
BRANCH   1  21
ATOM     19  C   UNL     1       0.123   0.027   0.025  0.00  0.00    +0.318 C 
ATOM     20  O   UNL     1       1.212  -0.509   0.007  0.00  0.00    -0.263 OA
ATOM     21  N   UNL     1       0.033   1.372   0.020  0.00  0.00    -0.199 N 
ATOM     22  H   UNL     1      -0.837   1.800   0.031  0.00  0.00    +0.178 HD
BRANCH  19  24
ATOM     23  N   UNL     1      -1.027  -2.147   0.057  0.00  0.00    -0.278 N 
ATOM     24  C   UNL     1      -1.116  -0.802   0.053  0.00  0.00    +0.305 C 
ATOM     25  O   UNL     1      -2.205  -0.266   0.071  0.00  0.00    -0.265 OA
ATOM     26  H   UNL     1      -0.160  -2.576  -0.024  0.00  0.00    +0.155 HD
BRANCH  23  30
ATOM     27  C   UNL     1      -4.469  -4.462   0.422  0.00  0.00    +0.000 A 
ATOM     28  C   UNL     1      -4.510  -3.270  -0.278  0.00  0.00    +0.002 A 
ATOM     29  C   UNL     1      -3.370  -2.500  -0.401  0.00  0.00    +0.023 A 
ATOM     30  C   UNL     1      -2.182  -2.924   0.180  0.00  0.00    +0.034 A 
ATOM     31  C   UNL     1      -2.143  -4.124   0.878  0.00  0.00    +0.023 A 
ATOM     32  C   UNL     1      -3.288  -4.886   1.002  0.00  0.00    +0.002 A 
ENDBRANCH  23  30
ENDBRANCH  19  24
ENDBRANCH   1  21
TORSDOF 7
