REMARK  Name = ZINC45773856
REMARK  7 active torsions:
REMARK  status: ('A' for Active; 'I' for Inactive)
REMARK    1  A    between atoms: C_1  and  N_2
REMARK    2  A    between atoms: N_2  and  C_3
REMARK    3  A    between atoms: N_2  and  C_16
REMARK    4  A    between atoms: C_3  and  N_4
REMARK    5  A    between atoms: C_11  and  N_15
REMARK    6  A    between atoms: C_16  and  C_17
REMARK    7  A    between atoms: C_16  and  C_23
REMARK                            x       y       z     vdW  Elec       q    Type
REMARK                         _______ _______ _______ _____ _____    ______ ____
ROOT
ATOM      1  C   UNL     1      -0.018   1.465   0.010  0.00  0.00    +0.107 C 
ATOM      2  N   UNL     1       0.002  -0.004   0.002  0.00  0.00    -0.278 NA
ENDROOT
BRANCH   2   3
ATOM      3  C   UNL     1       0.706  -0.527   1.180  0.00  0.00    +0.204 C 
BRANCH   3   4
ATOM      4  N   UNL     1       2.152  -0.481   0.946  0.00  0.00    -0.220 N 
ATOM      5  C   UNL     1       2.865  -1.476   0.388  0.00  0.00    +0.255 C 
ATOM      6  O   UNL     1       2.420  -2.538   0.003  0.00  0.00    -0.269 OA
ATOM      7  C   UNL     1       4.280  -1.057   0.321  0.00  0.00    +0.051 A 
ATOM      8  C   UNL     1       5.443  -1.649  -0.142  0.00  0.00    +0.014 A 
ATOM      9  C   UNL     1       6.649  -0.966  -0.058  0.00  0.00    +0.003 A 
ATOM     10  C   UNL     1       6.702   0.300   0.484  0.00  0.00    +0.023 A 
ATOM     11  C   UNL     1       5.541   0.915   0.957  0.00  0.00    +0.038 A 
ATOM     12  C   UNL     1       4.325   0.239   0.877  0.00  0.00    +0.070 A 
ATOM     13  C   UNL     1       2.939   0.564   1.256  0.00  0.00    +0.257 C 
ATOM     14  O   UNL     1       2.570   1.603   1.766  0.00  0.00    -0.269 OA
BRANCH  11  15
ATOM     15  N   UNL     1       5.598   2.189   1.502  0.00  0.00    -0.357 N 
ATOM     16  H   UNL     1       6.446   2.656   1.556  0.00  0.00    +0.142 HD
ATOM     17  H   UNL     1       4.789   2.613   1.829  0.00  0.00    +0.142 HD
ENDBRANCH  11  15
ENDBRANCH   3   4
ENDBRANCH   2   3
BRANCH   2  18
ATOM     18  C   UNL     1      -1.360  -0.549  -0.083  0.00  0.00    +0.118 C 
BRANCH  18  19
ATOM     19  C   UNL     1      -2.049   0.010  -1.301  0.00  0.00    -0.026 A 
ATOM     20  C   UNL     1      -1.352   0.151  -2.486  0.00  0.00    +0.005 A 
ATOM     21  C   UNL     1      -1.984   0.663  -3.603  0.00  0.00    +0.000 A 
ATOM     22  C   UNL     1      -3.314   1.033  -3.536  0.00  0.00    +0.000 A 
ATOM     23  C   UNL     1      -4.012   0.891  -2.351  0.00  0.00    +0.000 A 
ATOM     24  C   UNL     1      -3.381   0.375  -1.234  0.00  0.00    +0.005 A 
ENDBRANCH  18  19
BRANCH  18  25
ATOM     25  C   UNL     1      -1.294  -2.051  -0.186  0.00  0.00    -0.026 A 
ATOM     26  C   UNL     1      -0.320  -2.648  -0.963  0.00  0.00    +0.005 A 
ATOM     27  C   UNL     1      -0.260  -4.026  -1.058  0.00  0.00    +0.000 A 
ATOM     28  C   UNL     1      -1.175  -4.806  -0.376  0.00  0.00    +0.000 A 
ATOM     29  C   UNL     1      -2.149  -4.209   0.401  0.00  0.00    +0.000 A 
ATOM     30  C   UNL     1      -2.206  -2.831   0.500  0.00  0.00    +0.005 A 
ENDBRANCH  18  25
ENDBRANCH   2  18
TORSDOF 6
