REMARK  Name = ZINC12361640
REMARK  10 active torsions:
REMARK  status: ('A' for Active; 'I' for Inactive)
REMARK    1  A    between atoms: C_1  and  O_2
REMARK    2  A    between atoms: O_2  and  C_3
REMARK    3  A    between atoms: C_6  and  C_9
REMARK    4  A    between atoms: C_9  and  O_30
REMARK    5  A    between atoms: C_19  and  C_20
REMARK    6  A    between atoms: C_19  and  N_60
REMARK    7  A    between atoms: C_24  and  O_28
REMARK    8  A    between atoms: C_25  and  O_26
REMARK    9  A    between atoms: O_26  and  C_27
REMARK   10  A    between atoms: O_28  and  C_29
REMARK                            x       y       z     vdW  Elec       q    Type
REMARK                         _______ _______ _______ _____ _____    ______ ____
ROOT
ATOM      1  C   UNL     1       3.671   2.186  -0.023  0.00  0.00    +0.093 C 
ATOM      2  C   UNL     1       3.496   3.471  -0.838  0.00  0.00    +0.009 C 
ATOM      3  C   UNL     1       4.822   4.237  -0.862  0.00  0.00    +0.005 C 
ATOM      4  C   UNL     1       5.227   4.598   0.569  0.00  0.00    +0.001 C 
ATOM      5  C   UNL     1       5.385   3.319   1.395  0.00  0.00    +0.005 C 
ATOM      6  C   UNL     1       4.059   2.555   1.413  0.00  0.00    +0.009 C 
ATOM      7  C   UNL     1       2.971   3.449   2.013  0.00  0.00    -0.072 C 
ATOM      8  C   UNL     1       2.422   4.341  -0.179  0.00  0.00    -0.072 C 
ATOM      9  N   UNL     1       2.857   4.679   1.199  0.00  0.00    +0.383 N 
ATOM     10  H   UNL     1       3.776   5.134   1.155  0.00  0.00    -0.081 HD
ENDROOT
BRANCH   1  14
ATOM     11  C   UNL     1       0.003  -0.005   0.003  0.00  0.00    +0.120 A 
ATOM     12  C   UNL     1       0.330   0.790  -1.086  0.00  0.00    +0.046 A 
ATOM     13  C   UNL     1       1.516   1.498  -1.092  0.00  0.00    +0.010 A 
ATOM     14  C   UNL     1       2.377   1.414  -0.013  0.00  0.00    -0.016 A 
ATOM     15  C   UNL     1       2.054   0.623   1.073  0.00  0.00    +0.010 A 
ATOM     16  C   UNL     1       0.869  -0.087   1.084  0.00  0.00    +0.046 A 
BRANCH  11  18
ATOM     17  C   UNL     1      -1.435  -1.500   1.165  0.00  0.00    +0.277 C 
ATOM     18  O   UNL     1      -1.164  -0.702   0.011  0.00  0.00    -0.495 OA
ENDBRANCH  11  18
ENDBRANCH   1  14
BRANCH   1  19
ATOM     19  O   UNL     1       4.702   1.387  -0.606  0.00  0.00    -0.384 OA
ATOM     20  H   UNL     1       4.869   0.557  -0.138  0.00  0.00    +0.211 HD
ENDBRANCH   1  19
BRANCH   9  21
ATOM     21  C   UNL     1       1.891   5.607   1.820  0.00  0.00    -0.039 C 
BRANCH  21  22
ATOM     22  C   UNL     1       1.956   6.929   1.099  0.00  0.00    -0.019 A 
ATOM     23  C   UNL     1       2.690   7.972   1.633  0.00  0.00    +0.005 A 
ATOM     24  C   UNL     1       2.752   9.186   0.975  0.00  0.00    +0.004 A 
ATOM     25  C   UNL     1       2.081   9.362  -0.222  0.00  0.00    +0.049 A 
ATOM     26  C   UNL     1       1.344   8.321  -0.762  0.00  0.00    +0.162 A 
ATOM     27  C   UNL     1       1.286   7.097  -0.101  0.00  0.00    +0.163 A 
BRANCH  27  28
ATOM     28  O   UNL     1       0.569   6.070  -0.630  0.00  0.00    -0.491 OA
ATOM     29  C   UNL     1      -0.806   5.976  -0.251  0.00  0.00    +0.277 C 
ENDBRANCH  27  28
BRANCH  26  30
ATOM     30  O   UNL     1       0.684   8.492  -1.938  0.00  0.00    -0.491 OA
ATOM     31  C   UNL     1       0.793   9.773  -2.563  0.00  0.00    +0.277 C 
ENDBRANCH  26  30
ENDBRANCH  21  22
ENDBRANCH   9  21
TORSDOF 7
