REMARK  Name = ZINC64015535
REMARK  8 active torsions:
REMARK  status: ('A' for Active; 'I' for Inactive)
REMARK    1  A    between atoms: C_1  and  C_2
REMARK    2  A    between atoms: C_2  and  C_3
REMARK    3  A    between atoms: C_3  and  C_4
REMARK    4  A    between atoms: C_4  and  C_18
REMARK    5  A    between atoms: N_7  and  C_11
REMARK    6  A    between atoms: C_11  and  C_12
REMARK    7  A    between atoms: N_21  and  C_24
REMARK    8  A    between atoms: C_24  and  C_25
REMARK                            x       y       z     vdW  Elec       q    Type
REMARK                         _______ _______ _______ _____ _____    ______ ____
ROOT
ATOM      1  C   UNL     1      -3.052  -2.357  -0.106  0.00  0.00    +0.018 C 
ATOM      2  C   UNL     1      -3.793  -1.979   1.180  0.00  0.00    -0.013 C 
ATOM      3  C   UNL     1      -5.146  -2.693   1.210  0.00  0.00    -0.078 C 
ATOM      4  N   UNL     1      -4.938  -4.146   1.173  0.00  0.00    +0.382 N 
ATOM      5  C   UNL     1      -4.292  -4.524  -0.090  0.00  0.00    -0.078 C 
ATOM      6  C   UNL     1      -2.906  -3.880  -0.171  0.00  0.00    -0.013 C 
ATOM      7  H   UNL     1      -4.351  -4.420   1.945  0.00  0.00    -0.081 HD
ENDROOT
BRANCH   1   8
ATOM      8  C   UNL     1      -1.665  -1.710  -0.106  0.00  0.00    +0.115 C 
ATOM      9  C   UNL     1      -0.876  -2.132  -1.329  0.00  0.00    +0.247 C 
ATOM     10  O   UNL     1      -1.161  -1.929  -2.490  0.00  0.00    -0.273 OA
ATOM     11  N   UNL     1       0.208  -2.778  -0.858  0.00  0.00    -0.222 N 
ATOM     12  C   UNL     1       0.214  -2.822   0.479  0.00  0.00    +0.309 C 
ATOM     13  O   UNL     1       1.090  -3.352   1.134  0.00  0.00    -0.252 OA
ATOM     14  N   UNL     1      -0.858  -2.214   1.018  0.00  0.00    -0.285 N 
ATOM     15  H   UNL     1      -1.060  -2.125   1.963  0.00  0.00    +0.151 HD
BRANCH   8  16
ATOM     16  C   UNL     1      -1.785  -0.185  -0.042  0.00  0.00    +0.035 C 
BRANCH  16  18
ATOM     17  C   UNL     1      -0.508   1.962  -0.032  0.00  0.00    +0.004 C 
ATOM     18  C   UNL     1      -0.389   0.438  -0.097  0.00  0.00    -0.001 C 
ENDBRANCH  16  18
ENDBRANCH   8  16
BRANCH  11  19
ATOM     19  C   UNL     1       1.252  -3.360  -1.705  0.00  0.00    +0.149 C 
BRANCH  19  20
ATOM     20  C   UNL     1       2.341  -2.317  -1.963  0.00  0.00    +0.136 C 
ATOM     21  C   UNL     1       3.384  -2.881  -2.952  0.00  0.00    +0.035 C 
ATOM     22  C   UNL     1       4.718  -2.342  -2.368  0.00  0.00    +0.031 C 
ATOM     23  C   UNL     1       4.410  -2.376  -0.850  0.00  0.00    +0.160 C 
ATOM     24  O   UNL     1       3.022  -2.013  -0.740  0.00  0.00    -0.375 OA
ENDBRANCH  19  20
ENDBRANCH  11  19
ENDBRANCH   1   8
BRANCH   4  25
ATOM     25  C   UNL     1      -6.235  -4.828   1.280  0.00  0.00    -0.045 C 
BRANCH  25  26
ATOM     26  C   UNL     1      -6.830  -4.563   2.639  0.00  0.00    -0.058 C 
ATOM     27  C   UNL     1      -7.731  -3.607   2.960  0.00  0.00    -0.003 A 
ATOM     28  C   UNL     1      -8.400  -2.566   2.171  0.00  0.00    +0.010 A 
ATOM     29  C   UNL     1      -9.273  -1.736   2.785  0.00  0.00    +0.001 A 
ATOM     30  C   UNL     1      -9.554  -1.844   4.154  0.00  0.00    +0.002 A 
ATOM     31  C   UNL     1      -8.979  -2.774   4.945  0.00  0.00    +0.026 A 
ATOM     32  C   UNL     1      -8.045  -3.700   4.404  0.00  0.00    +0.043 A 
ATOM     33  N   UNL     1      -7.365  -4.676   4.954  0.00  0.00    -0.380 N 
ATOM     34  C   UNL     1      -6.546  -5.317   3.919  0.00  0.00    +0.142 C 
ATOM     35  H   UNL     1      -7.400  -4.935   5.888  0.00  0.00    +0.160 HD
ENDBRANCH  25  26
ENDBRANCH   4  25
TORSDOF 7
