REMARK  Name = ZINC63440196
REMARK  13 active torsions:
REMARK  status: ('A' for Active; 'I' for Inactive)
REMARK    1  A    between atoms: C_1  and  C_2
REMARK    2  A    between atoms: C_4  and  C_12
REMARK    3  A    between atoms: C_12  and  C_13
REMARK    4  A    between atoms: C_13  and  N_14
REMARK    5  A    between atoms: N_14  and  C_15
REMARK    6  A    between atoms: N_14  and  C_21
REMARK    7  A    between atoms: C_15  and  C_16
REMARK    8  A    between atoms: C_21  and  N_23
REMARK    9  A    between atoms: N_23  and  C_24
REMARK   10  A    between atoms: C_26  and  O_32
REMARK   11  A    between atoms: C_29  and  O_30
REMARK   12  A    between atoms: O_30  and  C_31
REMARK   13  A    between atoms: O_32  and  C_33
REMARK                            x       y       z     vdW  Elec       q    Type
REMARK                         _______ _______ _______ _____ _____    ______ ____
ROOT
ATOM      1  N   UNL     1      -4.603  -0.592  -1.758  0.00  0.00    -0.307 N 
ENDROOT
BRANCH   1   2
ATOM      2  C   UNL     1      -5.451   0.452  -1.665  0.00  0.00    +0.138 C 
ATOM      3  S   UNL     1      -5.041   1.805  -0.700  0.00  0.00    -0.018 S 
BRANCH   2   4
ATOM      4  N   UNL     1      -6.622   0.430  -2.333  0.00  0.00    -0.294 N 
ATOM      5  H   UNL     1      -6.820  -0.299  -2.941  0.00  0.00    +0.154 HD
BRANCH   4   6
ATOM      6  C   UNL     1      -7.553   1.460  -2.147  0.00  0.00    +0.078 A 
ATOM      7  C   UNL     1      -7.833   1.922  -0.870  0.00  0.00    +0.072 A 
ATOM      8  C   UNL     1      -8.755   2.941  -0.690  0.00  0.00    +0.122 A 
ATOM      9  C   UNL     1      -9.398   3.498  -1.785  0.00  0.00    +0.049 A 
ATOM     10  C   UNL     1      -9.121   3.039  -3.059  0.00  0.00    +0.051 A 
ATOM     11  C   UNL     1      -8.196   2.025  -3.246  0.00  0.00    +0.141 A 
BRANCH  11  12
ATOM     12  O   UNL     1      -7.919   1.578  -4.501  0.00  0.00    -0.493 OA
ATOM     13  C   UNL     1      -8.616   2.204  -5.581  0.00  0.00    +0.277 C 
ENDBRANCH  11  12
BRANCH   8  14
ATOM     14  O   UNL     1      -9.030   3.395   0.562  0.00  0.00    -0.495 OA
ATOM     15  C   UNL     1      -9.990   4.447   0.675  0.00  0.00    +0.277 C 
ENDBRANCH   8  14
ENDBRANCH   4   6
ENDBRANCH   2   4
ENDBRANCH   1   2
BRANCH   1  16
ATOM     16  C   UNL     1      -3.330  -0.568  -1.032  0.00  0.00    +0.111 C 
BRANCH  16  17
ATOM     17  C   UNL     1      -2.251   0.059  -1.917  0.00  0.00    +0.052 C 
BRANCH  17  20
ATOM     18  C   UNL     1       0.261   2.107  -1.998  0.00  0.00    +0.035 C 
ATOM     19  C   UNL     1       0.381   0.616  -1.673  0.00  0.00    +0.103 C 
ATOM     20  C   UNL     1      -0.942   0.083  -1.171  0.00  0.00    -0.037 C 
ATOM     21  C   UNL     1      -0.712  -0.367   0.084  0.00  0.00    -0.001 A 
ATOM     22  C   UNL     1      -1.580  -0.990   1.091  0.00  0.00    +0.010 A 
ATOM     23  C   UNL     1      -1.051  -1.341   2.285  0.00  0.00    +0.001 A 
ATOM     24  C   UNL     1       0.301  -1.125   2.585  0.00  0.00    +0.002 A 
ATOM     25  C   UNL     1       1.160  -0.558   1.711  0.00  0.00    +0.026 A 
ATOM     26  C   UNL     1       0.712  -0.150   0.425  0.00  0.00    +0.043 A 
ATOM     27  N   UNL     1       1.340   0.413  -0.581  0.00  0.00    -0.378 N 
ATOM     28  H   UNL     1       2.279   0.653  -0.600  0.00  0.00    +0.160 HD
ENDBRANCH  17  20
ENDBRANCH  16  17
ENDBRANCH   1  16
BRANCH   1  29
ATOM     29  C   UNL     1      -4.954  -1.750  -2.584  0.00  0.00    +0.149 C 
BRANCH  29  30
ATOM     30  C   UNL     1      -5.701  -2.756  -1.747  0.00  0.00    +0.007 A 
ATOM     31  C   UNL     1      -7.035  -2.869  -1.537  0.00  0.00    +0.013 A 
ATOM     32  C   UNL     1      -7.502  -3.882  -0.722  0.00  0.00    +0.008 A 
ATOM     33  C   UNL     1      -6.612  -4.734  -0.156  0.00  0.00    +0.045 A 
ATOM     34  S   UNL     1      -5.059  -4.114  -0.782  0.00  0.00    -0.100 S 
ENDBRANCH  29  30
ENDBRANCH   1  29
TORSDOF 10
