REMARK  Name = ZINC18199319
REMARK  7 active torsions:
REMARK  status: ('A' for Active; 'I' for Inactive)
REMARK    1  A    between atoms: C_1  and  C_2
REMARK    2  A    between atoms: C_11  and  C_13
REMARK    3  A    between atoms: C_23  and  C_26
REMARK    4  A    between atoms: C_29  and  O_34
REMARK    5  A    between atoms: C_30  and  O_32
REMARK    6  A    between atoms: O_32  and  C_33
REMARK    7  A    between atoms: O_34  and  C_35
REMARK                            x       y       z     vdW  Elec       q    Type
REMARK                         _______ _______ _______ _____ _____    ______ ____
ROOT
ATOM      1  C   UNL     1       6.768  -4.096 -10.306  0.00  0.00    +0.068 C 
ATOM      2  C   UNL     1       7.022  -3.752  -8.861  0.00  0.00    +0.066 A 
ATOM      3  C   UNL     1       6.051  -3.542  -7.892  0.00  0.00    +0.027 A 
ATOM      4  C   UNL     1       6.689  -3.252  -6.715  0.00  0.00    +0.122 A 
ATOM      5  N   UNL     1       8.014  -3.286  -6.947  0.00  0.00    -0.263 N 
ATOM      6  H   UNL     1       8.736  -3.118  -6.276  0.00  0.00    +0.190 HD
ATOM      7  N   UNL     1       8.200  -3.601  -8.303  0.00  0.00    -0.177 NA
ATOM      8  N   UNL     1       5.976  -2.981  -5.553  0.00  0.00    -0.303 N 
ATOM      9  C   UNL     1       4.636  -2.703  -5.658  0.00  0.00    +0.017 C 
ATOM     10  C   UNL     1       3.928  -2.969  -6.777  0.00  0.00    +0.024 C 
ATOM     11  C   UNL     1       4.554  -3.597  -8.004  0.00  0.00    +0.090 C 
ATOM     12  C   UNL     1       2.554  -2.675  -6.849  0.00  0.00    +0.162 C 
ATOM     13  O   UNL     1       1.948  -2.917  -7.875  0.00  0.00    -0.292 OA
ATOM     14  C   UNL     1       1.819  -2.070  -5.686  0.00  0.00    +0.088 C 
ATOM     15  C   UNL     1       2.507  -2.501  -4.387  0.00  0.00    +0.032 C 
ATOM     16  C   UNL     1       3.973  -2.071  -4.455  0.00  0.00    +0.059 C 
ATOM     17  H   UNL     1       6.415  -2.987  -4.688  0.00  0.00    +0.153 HD
ENDROOT
BRANCH  11  18
ATOM     18  C   UNL     1       4.112  -5.033  -8.113  0.00  0.00    -0.017 A 
ATOM     19  C   UNL     1       4.402  -5.925  -7.097  0.00  0.00    +0.006 A 
ATOM     20  C   UNL     1       3.998  -7.242  -7.197  0.00  0.00    +0.000 A 
ATOM     21  C   UNL     1       3.302  -7.670  -8.313  0.00  0.00    +0.001 A 
ATOM     22  C   UNL     1       3.012  -6.780  -9.329  0.00  0.00    +0.020 A 
ATOM     23  C   UNL     1       3.412  -5.459  -9.227  0.00  0.00    +0.045 A 
ATOM     24 CL   UNL     1       3.042  -4.338 -10.501  0.00  0.00    -0.083 Cl
ENDBRANCH  11  18
BRANCH  15  25
ATOM     25  C   UNL     1       1.837  -1.836  -3.212  0.00  0.00    -0.040 A 
ATOM     26  C   UNL     1       1.781  -0.456  -3.140  0.00  0.00    +0.008 A 
ATOM     27  C   UNL     1       1.163   0.159  -2.068  0.00  0.00    +0.049 A 
ATOM     28  C   UNL     1       0.606  -0.608  -1.056  0.00  0.00    +0.161 A 
ATOM     29  C   UNL     1       0.662  -1.996  -1.129  0.00  0.00    +0.162 A 
ATOM     30  C   UNL     1       1.278  -2.606  -2.209  0.00  0.00    +0.053 A 
BRANCH  29  31
ATOM     31  O   UNL     1       0.112  -2.753  -0.142  0.00  0.00    -0.491 OA
ATOM     32  C   UNL     1       0.206  -4.171  -0.283  0.00  0.00    +0.277 C 
ENDBRANCH  29  31
BRANCH  28  33
ATOM     33  O   UNL     1       0.002  -0.004   0.002  0.00  0.00    -0.491 OA
ATOM     34  C   UNL     1      -0.017   1.425   0.010  0.00  0.00    +0.277 C 
ENDBRANCH  28  33
ENDBRANCH  15  25
TORSDOF 4
