REMARK  Name = ZINC13063910
REMARK  14 active torsions:
REMARK  status: ('A' for Active; 'I' for Inactive)
REMARK    1  A    between atoms: C_1  and  C_2
REMARK    2  A    between atoms: C_2  and  C_3
REMARK    3  A    between atoms: C_3  and  C_5
REMARK    4  A    between atoms: C_3  and  N_68
REMARK    5  A    between atoms: N_9  and  C_10
REMARK    6  A    between atoms: C_10  and  C_11
REMARK    7  A    between atoms: C_10  and  C_12
REMARK    8  A    between atoms: C_10  and  C_13
REMARK    9  A    between atoms: C_14  and  C_15
REMARK   10  A    between atoms: C_14  and  N_68
REMARK   11  A    between atoms: C_18  and  C_21
REMARK   12  A    between atoms: C_22  and  C_23
REMARK   13  A    between atoms: C_22  and  N_68
REMARK   14  A    between atoms: C_28  and  C_35
REMARK                            x       y       z     vdW  Elec       q    Type
REMARK                         _______ _______ _______ _____ _____    ______ ____
ROOT
ATOM      1  N   UNL     1      -0.678  -0.984   1.829  0.00  0.00    +0.392 N 
ATOM      2  H   UNL     1       0.229  -0.599   2.119  0.00  0.00    -0.080 HD
ENDROOT
BRANCH   1   3
ATOM      3  C   UNL     1      -1.757  -0.218   2.487  0.00  0.00    +0.003 C 
BRANCH   3   4
ATOM      4  C   UNL     1      -1.250   0.281   3.815  0.00  0.00    +0.139 A 
ATOM      5  N   UNL     1      -0.407  -0.331   4.611  0.00  0.00    -0.115 NA
ATOM      6  N   UNL     1      -0.222   0.416   5.644  0.00  0.00    -0.023 NA
ATOM      7  N   UNL     1      -0.931   1.484   5.532  0.00  0.00    -0.043 NA
ATOM      8  N   UNL     1      -1.580   1.438   4.418  0.00  0.00    -0.226 N 
BRANCH   8   9
ATOM      9  C   UNL     1      -2.501   2.455   3.905  0.00  0.00    +0.059 C 
ATOM     10  C   UNL     1      -3.804   1.786   3.461  0.00  0.00    +0.036 C 
ATOM     11  C   UNL     1      -2.801   3.474   5.006  0.00  0.00    +0.036 C 
ATOM     12  C   UNL     1      -1.862   3.167   2.711  0.00  0.00    +0.036 C 
ENDBRANCH   8   9
ENDBRANCH   3   4
BRANCH   3  14
ATOM     13  C   UNL     1      -3.580  -1.500   1.357  0.00  0.00    +0.002 C 
ATOM     14  C   UNL     1      -2.982  -1.107   2.710  0.00  0.00    -0.011 C 
ENDBRANCH   3  14
ENDBRANCH   1   3
BRANCH   1  15
ATOM     15  C   UNL     1      -0.748  -2.404   2.233  0.00  0.00    -0.042 C 
BRANCH  15  16
ATOM     16  C   UNL     1      -0.216  -2.534   3.637  0.00  0.00    -0.064 A 
ATOM     17  C   UNL     1       1.148  -2.548   3.861  0.00  0.00    +0.002 A 
ATOM     18  C   UNL     1       1.635  -2.663   5.149  0.00  0.00    +0.003 A 
ATOM     19  C   UNL     1       0.759  -2.773   6.213  0.00  0.00    -0.050 A 
ATOM     20  C   UNL     1      -0.605  -2.764   5.988  0.00  0.00    +0.003 A 
ATOM     21  C   UNL     1      -1.093  -2.644   4.700  0.00  0.00    +0.002 A 
ATOM     22  C   UNL     1       1.291  -2.902   7.617  0.00  0.00    +0.044 C 
ENDBRANCH  15  16
ENDBRANCH   1  15
BRANCH   1  23
ATOM     23  C   UNL     1      -0.800  -0.870   0.360  0.00  0.00    -0.036 C 
BRANCH  23  24
ATOM     24  C   UNL     1      -0.260   0.470  -0.067  0.00  0.00    +0.001 A 
ATOM     25  C   UNL     1       1.045   0.594  -0.413  0.00  0.00    +0.017 A 
ATOM     26  C   UNL     1       1.538   1.910  -0.823  0.00  0.00    -0.001 A 
ATOM     27  C   UNL     1       2.874   2.099  -1.192  0.00  0.00    +0.010 A 
ATOM     28  C   UNL     1       3.303   3.339  -1.570  0.00  0.00    +0.004 A 
ATOM     29  C   UNL     1       2.425   4.414  -1.592  0.00  0.00    -0.048 A 
ATOM     30  C   UNL     1       1.105   4.251  -1.232  0.00  0.00    +0.029 A 
ATOM     31  C   UNL     1       0.645   2.997  -0.844  0.00  0.00    +0.049 A 
ATOM     32  N   UNL     1      -0.671   2.805  -0.480  0.00  0.00    -0.322 N 
ATOM     33  H   UNL     1      -1.285   3.556  -0.494  0.00  0.00    +0.169 HD
ATOM     34  C   UNL     1      -1.116   1.592  -0.110  0.00  0.00    +0.251 A 
ATOM     35  O   UNL     1      -2.287   1.458   0.201  0.00  0.00    -0.268 OA
ATOM     36  C   UNL     1       2.921   5.774  -2.012  0.00  0.00    +0.044 C 
ENDBRANCH  23  24
ENDBRANCH   1  23
TORSDOF 8
