REMARK  Name = ZINC03325980
REMARK  11 active torsions:
REMARK  status: ('A' for Active; 'I' for Inactive)
REMARK    1  A    between atoms: C_1  and  C_2
REMARK    2  A    between atoms: C_2  and  O_3
REMARK    3  A    between atoms: O_3  and  C_4
REMARK    4  A    between atoms: C_4  and  C_6
REMARK    5  A    between atoms: C_10  and  N_11
REMARK    6  A    between atoms: C_12  and  C_14
REMARK    7  A    between atoms: C_14  and  N_56
REMARK    8  A    between atoms: C_19  and  C_24
REMARK    9  A    between atoms: C_19  and  C_25
REMARK   10  A    between atoms: C_20  and  C_22
REMARK   11  A    between atoms: C_20  and  C_23
REMARK                            x       y       z     vdW  Elec       q    Type
REMARK                         _______ _______ _______ _____ _____    ______ ____
ROOT
ATOM      1  C   UNL     1       1.284   1.991   0.001  0.00  0.00    +0.091 A 
ATOM      2  C   UNL     1      -0.016   1.349   0.009  0.00  0.00    -0.024 A 
ATOM      3  C   UNL     1       0.002  -0.004   0.002  0.00  0.00    -0.016 A 
ATOM      4  S   UNL     1       1.721  -0.428  -0.030  0.00  0.00    -0.079 S 
ATOM      5  C   UNL     1       2.405   1.164  -0.028  0.00  0.00    +0.086 A 
ATOM      6  C   UNL     1      -1.184  -0.911   0.025  0.00  0.00    -0.041 C 
ATOM      7  C   UNL     1      -2.380   1.160  -0.681  0.00  0.00    -0.069 C 
ATOM      8  C   UNL     1      -1.357   2.067   0.007  0.00  0.00    +0.024 C 
ATOM      9  C   UNL     1      -2.059   1.085  -2.177  0.00  0.00    -0.010 C 
ATOM     10  C   UNL     1      -3.767   1.813  -0.529  0.00  0.00    -0.010 C 
ATOM     11  C   UNL     1      -1.062  -1.936  -1.108  0.00  0.00    -0.005 C 
ATOM     12  C   UNL     1      -1.177  -1.676   1.361  0.00  0.00    -0.005 C 
ATOM     13  N   UNL     1      -2.483  -0.188  -0.066  0.00  0.00    +0.389 N 
ATOM     14  H   UNL     1      -2.861  -0.082   0.882  0.00  0.00    -0.084 HD
ATOM     15  H   UNL     1      -3.128  -0.752  -0.631  0.00  0.00    -0.084 HD
ENDROOT
BRANCH   5  16
ATOM     16  N   UNL     1       3.742   1.531  -0.048  0.00  0.00    -0.281 N 
ATOM     17  C   UNL     1       4.700   0.584  -0.074  0.00  0.00    +0.201 C 
ATOM     18  O   UNL     1       4.394  -0.590  -0.079  0.00  0.00    -0.278 OA
ATOM     19  H   UNL     1       3.987   2.469  -0.044  0.00  0.00    +0.155 HD
BRANCH  17  20
ATOM     20  C   UNL     1       6.153   0.983  -0.096  0.00  0.00    +0.019 C 
BRANCH  20  25
ATOM     21  C   UNL     1       6.585  -1.131  -1.224  0.00  0.00    -0.078 C 
ATOM     22  C   UNL     1       7.837  -2.020  -1.431  0.00  0.00    -0.020 C 
ATOM     23  C   UNL     1       9.004  -1.030  -1.215  0.00  0.00    -0.020 C 
ATOM     24  C   UNL     1       8.406   0.120  -0.383  0.00  0.00    -0.078 C 
ATOM     25  N   UNL     1       7.010  -0.241  -0.133  0.00  0.00    +0.385 N 
ATOM     26  H   UNL     1       6.935  -0.732   0.766  0.00  0.00    -0.081 HD
ENDBRANCH  20  25
ENDBRANCH  17  20
ENDBRANCH   5  16
BRANCH   1  27
ATOM     27  C   UNL     1       1.425   3.448   0.033  0.00  0.00    +0.342 C 
ATOM     28  O   UNL     1       1.503   4.028   1.099  0.00  0.00    -0.245 OA
BRANCH  27  29
ATOM     29  O   UNL     1       1.468   4.147  -1.120  0.00  0.00    -0.461 OA
BRANCH  29  31
ATOM     30  C   UNL     1       1.638   6.204  -2.412  0.00  0.00    +0.048 C 
ATOM     31  C   UNL     1       1.608   5.588  -1.012  0.00  0.00    +0.229 C 
ENDBRANCH  29  31
ENDBRANCH  27  29
ENDBRANCH   1  27
TORSDOF 6
