REMARK  Name = ZINC21937842
REMARK  6 active torsions:
REMARK  status: ('A' for Active; 'I' for Inactive)
REMARK    1  A    between atoms: C_1  and  C_2
REMARK    2  A    between atoms: C_2  and  N_3
REMARK    3  A    between atoms: C_10  and  S_12
REMARK    4  A    between atoms: S_12  and  N_15
REMARK    5  A    between atoms: C_19  and  C_22
REMARK    6  A    between atoms: C_27  and  N_30
REMARK                            x       y       z     vdW  Elec       q    Type
REMARK                         _______ _______ _______ _____ _____    ______ ____
ROOT
ATOM      1  N   UNL     1      -0.030   1.645   0.004  0.00  0.00    -0.176 NA
ATOM      2  C   UNL     1       1.229   2.404   0.009  0.00  0.00    +0.109 C 
ATOM      3  C   UNL     1       1.212   3.380   1.189  0.00  0.00    +0.018 C 
ATOM      4  C   UNL     1      -0.045   4.249   1.109  0.00  0.00    +0.015 C 
ATOM      5  C   UNL     1      -1.288   3.361   1.199  0.00  0.00    +0.091 C 
ATOM      6  C   UNL     1      -1.300   2.384   0.013  0.00  0.00    +0.122 C 
ENDROOT
BRANCH   5   7
ATOM      7  C   UNL     1      -2.525   4.221   1.153  0.00  0.00    +0.220 C 
ATOM      8  O   UNL     1      -2.991   4.555   0.084  0.00  0.00    -0.275 OA
ATOM      9  N   UNL     1      -3.114   4.618   2.298  0.00  0.00    -0.301 N 
ATOM     10  C   UNL     1      -2.500   4.316   3.599  0.00  0.00    +0.106 C 
ATOM     11  C   UNL     1      -2.354   5.627   4.386  0.00  0.00    +0.004 C 
ATOM     12  C   UNL     1      -3.719   6.314   4.480  0.00  0.00    -0.066 C 
ATOM     13  C   UNL     1      -4.220   6.650   3.073  0.00  0.00    +0.004 C 
ATOM     14  C   UNL     1      -4.384   5.355   2.271  0.00  0.00    +0.106 C 
BRANCH  12  15
ATOM     15  N   UNL     1      -3.592   7.550   5.263  0.00  0.00    +0.382 N 
ATOM     16  C   UNL     1      -2.629   8.469   4.643  0.00  0.00    -0.078 C 
ATOM     17  C   UNL     1      -2.630   9.798   5.401  0.00  0.00    -0.019 C 
ATOM     18  C   UNL     1      -2.256   9.547   6.864  0.00  0.00    -0.004 C 
ATOM     19  C   UNL     1      -3.246   8.550   7.472  0.00  0.00    -0.019 C 
ATOM     20  C   UNL     1      -3.227   7.256   6.654  0.00  0.00    -0.078 C 
ATOM     21  H   UNL     1      -4.573   8.048   5.272  0.00  0.00    -0.081 HD
ENDBRANCH  12  15
ENDBRANCH   5   7
BRANCH   1  22
ATOM     22  S   UNL     1      -0.017  -0.010  -0.017  0.00  0.00    +0.061 S 
ATOM     23  O   UNL     1      -1.262  -0.419  -0.568  0.00  0.00    -0.153 OA
ATOM     24  O   UNL     1       1.229  -0.400  -0.579  0.00  0.00    -0.153 OA
BRANCH  22  32
ATOM     25  N   UNL     1       0.293  -1.821   5.576  0.00  0.00    -0.347 N 
ATOM     26  C   UNL     1       1.652  -1.863   5.731  0.00  0.00    +0.087 A 
ATOM     27  C   UNL     1       2.254  -1.489   4.591  0.00  0.00    +0.027 A 
ATOM     28  C   UNL     1       1.194  -1.183   3.627  0.00  0.00    +0.002 A 
ATOM     29  C   UNL     1      -0.020  -1.409   4.300  0.00  0.00    +0.049 A 
ATOM     30  C   UNL     1      -1.221  -1.199   3.630  0.00  0.00    +0.028 A 
ATOM     31  C   UNL     1      -1.207  -0.775   2.319  0.00  0.00    +0.030 A 
ATOM     32  C   UNL     1      -0.006  -0.553   1.659  0.00  0.00    +0.106 A 
ATOM     33  C   UNL     1       1.185  -0.758   2.297  0.00  0.00    +0.038 A 
BRANCH  25  35
ATOM     34  C   UNL     1      -1.107  -3.625   6.452  0.00  0.00    +0.027 C 
ATOM     35  C   UNL     1      -0.683  -2.164   6.614  0.00  0.00    +0.118 C 
ENDBRANCH  25  35
ENDBRANCH  22  32
ENDBRANCH   1  22
TORSDOF 5
