REMARK  Name = ZINC40529887
REMARK  9 active torsions:
REMARK  status: ('A' for Active; 'I' for Inactive)
REMARK    1  A    between atoms: C_2  and  C_3
REMARK    2  A    between atoms: C_3  and  O_4
REMARK    3  A    between atoms: O_4  and  C_5
REMARK    4  A    between atoms: C_9  and  C_11
REMARK    5  A    between atoms: C_16  and  O_25
REMARK    6  A    between atoms: C_20  and  N_24
REMARK    7  A    between atoms: C_21  and  C_22
REMARK    8  A    between atoms: O_25  and  C_26
REMARK    9  A    between atoms: C_26  and  C_28
REMARK                            x       y       z     vdW  Elec       q    Type
REMARK                         _______ _______ _______ _____ _____    ______ ____
ROOT
ATOM      1  C   UNL     1       3.578  -5.575   3.034  0.00  0.00    +0.098 C 
ATOM      2  C   UNL     1       3.825  -6.854   2.279  0.00  0.00    +0.008 A 
ATOM      3  C   UNL     1       2.775  -7.471   1.624  0.00  0.00    +0.012 A 
ATOM      4  C   UNL     1       2.983  -8.645   0.927  0.00  0.00    +0.047 A 
ATOM      5  C   UNL     1       4.250  -9.210   0.882  0.00  0.00    +0.135 A 
ATOM      6  C   UNL     1       5.304  -8.594   1.536  0.00  0.00    +0.093 A 
ATOM      7  C   UNL     1       5.093  -7.413   2.237  0.00  0.00    +0.138 A 
ATOM      8  O   UNL     1       6.135  -6.823   2.873  0.00  0.00    -0.441 OA
ATOM      9  C   UNL     1       5.905  -5.931   3.851  0.00  0.00    +0.199 C 
ATOM     10  C   UNL     1       4.715  -5.305   3.980  0.00  0.00    +0.098 C 
ENDROOT
BRANCH   1  15
ATOM     11  C   UNL     1       2.186  -2.644   1.097  0.00  0.00    +0.121 A 
ATOM     12  C   UNL     1       3.250  -2.338   0.261  0.00  0.00    +0.045 A 
ATOM     13  C   UNL     1       4.414  -3.079   0.326  0.00  0.00    +0.004 A 
ATOM     14  C   UNL     1       4.519  -4.126   1.224  0.00  0.00    +0.005 A 
ATOM     15  C   UNL     1       3.460  -4.433   2.058  0.00  0.00    -0.031 A 
ATOM     16  C   UNL     1       2.296  -3.691   2.001  0.00  0.00    +0.050 A 
BRANCH  11  17
ATOM     17  O   UNL     1       1.040  -1.916   1.036  0.00  0.00    -0.488 OA
BRANCH  17  18
ATOM     18  C   UNL     1       0.998  -0.853   0.082  0.00  0.00    +0.256 C 
BRANCH  18  20
ATOM     19  C   UNL     1      -0.403   1.145   0.159  0.00  0.00    +0.007 C 
ATOM     20  C   UNL     1      -0.340  -0.163   0.157  0.00  0.00    +0.006 C 
ENDBRANCH  18  20
ENDBRANCH  17  18
ENDBRANCH  11  17
ENDBRANCH   1  15
BRANCH   9  21
ATOM     21  N   UNL     1       6.909  -5.648   4.744  0.00  0.00    -0.328 N 
ATOM     22  H   UNL     1       7.769  -6.090   4.663  0.00  0.00    +0.145 HD
ATOM     23  H   UNL     1       6.758  -5.006   5.455  0.00  0.00    +0.145 HD
ENDBRANCH   9  21
BRANCH  10  24
ATOM     24  C   UNL     1       4.534  -4.364   5.044  0.00  0.00    +0.101 C 
ATOM     25  N   UNL     1       4.391  -3.617   5.888  0.00  0.00    -0.191 NA
ENDBRANCH  10  24
BRANCH   5  26
ATOM     26  O   UNL     1       4.456 -10.365   0.197  0.00  0.00    -0.422 OA
BRANCH  26  27
ATOM     27  C   UNL     1       4.328 -10.337  -1.145  0.00  0.00    +0.345 C 
ATOM     28  O   UNL     1       4.133  -9.281  -1.715  0.00  0.00    -0.245 OA
BRANCH  27  29
ATOM     29  C   UNL     1       4.424 -11.586  -1.920  0.00  0.00    +0.067 A 
ATOM     30  C   UNL     1       4.519 -12.814  -1.278  0.00  0.00    +0.015 A 
ATOM     31  C   UNL     1       4.610 -13.989  -2.011  0.00  0.00    +0.001 A 
ATOM     32  C   UNL     1       4.610 -13.988  -3.372  0.00  0.00    +0.008 A 
ATOM     33  C   UNL     1       4.516 -12.783  -4.088  0.00  0.00    -0.017 A 
ATOM     34  C   UNL     1       4.417 -11.559  -3.381  0.00  0.00    -0.004 A 
ATOM     35  C   UNL     1       4.319 -10.356  -4.091  0.00  0.00    +0.009 A 
ATOM     36  C   UNL     1       4.315 -10.377  -5.454  0.00  0.00    +0.001 A 
ATOM     37  C   UNL     1       4.408 -11.578  -6.152  0.00  0.00    +0.001 A 
ATOM     38  C   UNL     1       4.515 -12.765  -5.494  0.00  0.00    +0.008 A 
ENDBRANCH  27  29
ENDBRANCH  26  27
ENDBRANCH   5  26
TORSDOF 9
