REMARK  Name = ZINC27574170
REMARK  8 active torsions:
REMARK  status: ('A' for Active; 'I' for Inactive)
REMARK    1  A    between atoms: C_3  and  N_11
REMARK    2  A    between atoms: C_5  and  S_7
REMARK    3  A    between atoms: S_7  and  N_10
REMARK    4  A    between atoms: C_12  and  C_14
REMARK    5  A    between atoms: C_14  and  N_15
REMARK    6  A    between atoms: N_15  and  C_16
REMARK    7  A    between atoms: N_15  and  C_26
REMARK    8  A    between atoms: C_16  and  C_17
REMARK                            x       y       z     vdW  Elec       q    Type
REMARK                         _______ _______ _______ _____ _____    ______ ____
ROOT
ATOM      1  C   UNL     1       5.342   3.099  -0.765  0.00  0.00    +0.020 C 
ENDROOT
BRANCH   1   3
ATOM      2  N   UNL     1       7.573   3.813  -1.560  0.00  0.00    -0.287 N 
ATOM      3  C   UNL     1       6.300   3.488  -1.861  0.00  0.00    +0.201 C 
ATOM      4  O   UNL     1       5.925   3.510  -3.014  0.00  0.00    -0.278 OA
ATOM      5  H   UNL     1       7.932   3.727  -0.523  0.00  0.00    +0.155 HD
BRANCH   2   8
ATOM      6  C   UNL     1       9.175   4.202  -4.846  0.00  0.00    +0.004 A 
ATOM      7  C   UNL     1       8.323   3.756  -3.855  0.00  0.00    +0.023 A 
ATOM      8  C   UNL     1       8.438   4.258  -2.565  0.00  0.00    +0.035 A 
ATOM      9  C   UNL     1       9.417   5.200  -2.274  0.00  0.00    +0.051 A 
ATOM     10  C   UNL     1      10.269   5.638  -3.269  0.00  0.00    +0.107 A 
ATOM     11  C   UNL     1      10.148   5.139  -4.553  0.00  0.00    +0.028 A 
BRANCH  10  12
ATOM     12  S   UNL     1      11.511   6.832  -2.901  0.00  0.00    +0.056 S 
ATOM     13  O   UNL     1      11.826   7.481  -4.125  0.00  0.00    -0.153 OA
ATOM     14  O   UNL     1      11.064   7.542  -1.754  0.00  0.00    -0.153 OA
BRANCH  12  15
ATOM     15  N   UNL     1      12.868   6.001  -2.443  0.00  0.00    -0.204 NA
ATOM     16  H   UNL     1      13.671   6.713  -2.204  0.00  0.00    +0.144 HD
ATOM     17  H   UNL     1      13.193   5.346  -3.265  0.00  0.00    +0.144 HD
ENDBRANCH  12  15
ENDBRANCH  10  12
ENDBRANCH   2   8
ENDBRANCH   1   3
BRANCH   1  18
ATOM     18  N   UNL     1       4.016   2.839  -1.342  0.00  0.00    +0.390 N 
ATOM     19  H   UNL     1       4.151   2.620  -2.412  0.00  0.00    -0.080 HD
BRANCH  18  20
ATOM     20  C   UNL     1       3.151   4.021  -1.229  0.00  0.00    -0.067 C 
ATOM     21  C   UNL     1       3.832   5.239  -1.888  0.00  0.00    -0.015 C 
ATOM     22  C   UNL     1       3.446   6.429  -0.975  0.00  0.00    -0.002 C 
ATOM     23  C   UNL     1       3.505   5.806   0.442  0.00  0.00    -0.002 C 
ATOM     24  C   UNL     1       2.944   4.382   0.253  0.00  0.00    -0.015 C 
ENDBRANCH  18  20
BRANCH  18  25
ATOM     25  C   UNL     1       3.390   1.667  -0.716  0.00  0.00    -0.042 C 
BRANCH  25  26
ATOM     26  C   UNL     1       2.236   1.200  -1.566  0.00  0.00    -0.060 A 
ATOM     27  C   UNL     1       2.464   0.352  -2.634  0.00  0.00    +0.005 A 
ATOM     28  C   UNL     1       1.408  -0.079  -3.416  0.00  0.00    +0.050 A 
ATOM     29  C   UNL     1       0.119   0.340  -3.131  0.00  0.00    +0.166 A 
ATOM     30  C   UNL     1      -0.111   1.195  -2.055  0.00  0.00    +0.166 A 
ATOM     31  C   UNL     1       0.952   1.622  -1.276  0.00  0.00    +0.051 A 
ATOM     32  O   UNL     1      -1.448   1.462  -1.988  0.00  0.00    -0.453 OA
ATOM     33  C   UNL     1      -1.982   1.085  -3.269  0.00  0.00    +0.466 C 
ATOM     34  O   UNL     1      -1.075   0.067  -3.734  0.00  0.00    -0.453 OA
ENDBRANCH  25  26
ENDBRANCH  18  25
ENDBRANCH   1  18
TORSDOF 8
