REMARK  Name = ZINC21432267
REMARK  10 active torsions:
REMARK  status: ('A' for Active; 'I' for Inactive)
REMARK    1  A    between atoms: C_1  and  C_2
REMARK    2  A    between atoms: C_2  and  O_3
REMARK    3  A    between atoms: O_3  and  C_4
REMARK    4  A    between atoms: C_11  and  C_18
REMARK    5  A    between atoms: C_13  and  O_14
REMARK    6  A    between atoms: C_18  and  O_19
REMARK    7  A    between atoms: O_19  and  C_20
REMARK    8  A    between atoms: C_20  and  C_22
REMARK    9  A    between atoms: C_22  and  C_23
REMARK   10  A    between atoms: C_23  and  C_24
REMARK                            x       y       z     vdW  Elec       q    Type
REMARK                         _______ _______ _______ _____ _____    ______ ____
ROOT
ATOM      1  C   UNL     1      -3.538  17.968  -4.452  0.00  0.00    +0.405 C 
ATOM      2  O   UNL     1      -4.395  17.183  -4.809  0.00  0.00    -0.226 OA
ATOM      3  N   UNL     1      -2.443  17.521  -3.806  0.00  0.00    -0.251 N 
ATOM      4  C   UNL     1      -2.238  16.150  -3.645  0.00  0.00    +0.040 A 
ATOM      5  C   UNL     1      -1.612  15.675  -2.493  0.00  0.00    +0.024 A 
ATOM      6  C   UNL     1      -1.406  14.337  -2.321  0.00  0.00    +0.014 A 
ATOM      7  C   UNL     1      -1.829  13.435  -3.304  0.00  0.00    +0.024 A 
ATOM      8  C   UNL     1      -1.615  11.995  -3.148  0.00  0.00    +0.007 A 
ATOM      9  C   UNL     1      -2.044  11.171  -4.140  0.00  0.00    +0.095 A 
ATOM     10  C   UNL     1      -2.671  11.714  -5.280  0.00  0.00    +0.285 A 
ATOM     11  O   UNL     1      -2.860  13.036  -5.419  0.00  0.00    -0.425 OA
ATOM     12  C   UNL     1      -2.457  13.909  -4.471  0.00  0.00    +0.141 A 
ATOM     13  C   UNL     1      -2.660  15.271  -4.631  0.00  0.00    +0.070 A 
ATOM     14  H   UNL     1      -1.710  18.237  -3.406  0.00  0.00    +0.158 HD
ENDROOT
BRANCH  10  15
ATOM     15  O   UNL     1      -3.051  10.964  -6.162  0.00  0.00    -0.480 OA
ATOM     16  H   UNL     1      -3.542  11.373  -7.058  0.00  0.00    +0.295 HD
ENDBRANCH  10  15
BRANCH   1  17
ATOM     17  O   UNL     1      -3.682  19.283  -4.702  0.00  0.00    -0.450 OA
BRANCH  17  19
ATOM     18  C   UNL     1      -4.874  21.210  -5.595  0.00  0.00    +0.048 C 
ATOM     19  C   UNL     1      -4.887  19.692  -5.402  0.00  0.00    +0.230 C 
ENDBRANCH  17  19
ENDBRANCH   1  17
BRANCH   8  20
ATOM     20  C   UNL     1      -0.942  11.441  -1.919  0.00  0.00    +0.268 C 
BRANCH  20  21
ATOM     21  O   UNL     1      -0.863   9.995  -2.020  0.00  0.00    -0.460 OA
BRANCH  21  22
ATOM     22  C   UNL     1      -0.287   9.343  -0.999  0.00  0.00    +0.308 C 
ATOM     23  O   UNL     1       0.139   9.960  -0.051  0.00  0.00    -0.251 OA
BRANCH  22  24
ATOM     24  C   UNL     1      -0.170   7.841  -1.033  0.00  0.00    +0.127 C 
BRANCH  24  25
ATOM     25  C   UNL     1       0.521   7.354   0.242  0.00  0.00    +0.066 C 
BRANCH  25  26
ATOM     26  C   UNL     1       0.638   5.851   0.207  0.00  0.00    +0.043 A 
ATOM     27  C   UNL     1       1.892   5.265   0.366  0.00  0.00    +0.024 A 
ATOM     28  C   UNL     1       2.017   3.905   0.336  0.00  0.00    +0.012 A 
ATOM     29  C   UNL     1       0.855   3.135   0.145  0.00  0.00    +0.000 A 
ATOM     30  C   UNL     1       0.905   1.732   0.105  0.00  0.00    +0.010 A 
ATOM     31  C   UNL     1      -0.242   1.023  -0.081  0.00  0.00    +0.001 A 
ATOM     32  C   UNL     1      -1.466   1.671  -0.238  0.00  0.00    +0.002 A 
ATOM     33  C   UNL     1      -1.552   3.029  -0.199  0.00  0.00    +0.028 A 
ATOM     34  C   UNL     1      -0.389   3.796  -0.009  0.00  0.00    +0.071 A 
ATOM     35  N   UNL     1      -0.443   5.131   0.029  0.00  0.00    -0.252 NA
ENDBRANCH  25  26
ENDBRANCH  24  25
ENDBRANCH  22  24
ENDBRANCH  21  22
ENDBRANCH  20  21
ENDBRANCH   8  20
TORSDOF 9
