REMARK  Name = ZINC01104749
REMARK  6 active torsions:
REMARK  status: ('A' for Active; 'I' for Inactive)
REMARK    1  A    between atoms: C_1  and  C_2
REMARK    2  A    between atoms: C_2  and  O_3
REMARK    3  A    between atoms: O_3  and  C_4
REMARK    4  A    between atoms: C_7  and  C_10
REMARK    5  A    between atoms: C_17  and  C_28
REMARK    6  A    between atoms: N_19  and  C_22
REMARK                            x       y       z     vdW  Elec       q    Type
REMARK                         _______ _______ _______ _____ _____    ______ ____
ROOT
ATOM      1  C   UNL     1      -1.496   8.772   0.156  0.00  0.00    +0.050 C 
ATOM      2  N   UNL     1      -1.310   9.640  -0.820  0.00  0.00    -0.382 N 
ATOM      3  C   UNL     1      -0.342   9.350  -1.872  0.00  0.00    +0.131 C 
ATOM      4  C   UNL     1       1.112   9.592  -1.454  0.00  0.00    +0.122 C 
ATOM      5  N   UNL     1       1.345   9.036  -0.117  0.00  0.00    -0.338 N 
ATOM      6  C   UNL     1       0.774   7.808   0.184  0.00  0.00    +0.098 C 
ATOM      7  C   UNL     1      -0.569   7.642   0.277  0.00  0.00    +0.027 C 
ATOM      8  C   UNL     1      -0.826   6.193   0.551  0.00  0.00    +0.146 C 
ATOM      9  N   UNL     1       0.501   5.563   0.644  0.00  0.00    -0.255 N 
ATOM     10  C   UNL     1       1.430   6.519   0.441  0.00  0.00    +0.266 C 
ATOM     11  O   UNL     1       2.632   6.340   0.463  0.00  0.00    -0.268 OA
ATOM     12  H   UNL     1       1.956   9.590   0.611  0.00  0.00    +0.146 HD
ATOM     13  H   UNL     1      -1.885  10.578  -0.839  0.00  0.00    +0.160 HD
ENDROOT
BRANCH   1  17
ATOM     14  C   UNL     1      -4.714   9.241   2.893  0.00  0.00    +0.121 A 
ATOM     15  C   UNL     1      -3.726   8.296   3.141  0.00  0.00    +0.046 A 
ATOM     16  C   UNL     1      -2.681   8.142   2.255  0.00  0.00    +0.013 A 
ATOM     17  C   UNL     1      -2.617   8.935   1.109  0.00  0.00    -0.001 A 
ATOM     18  C   UNL     1      -3.608   9.887   0.867  0.00  0.00    +0.013 A 
ATOM     19  C   UNL     1      -4.653  10.033   1.754  0.00  0.00    +0.046 A 
BRANCH  14  20
ATOM     20  O   UNL     1      -5.742   9.391   3.768  0.00  0.00    -0.492 OA
BRANCH  20  22
ATOM     21  C   UNL     1      -7.795  10.403   4.544  0.00  0.00    +0.048 C 
ATOM     22  C   UNL     1      -6.723  10.380   3.452  0.00  0.00    +0.225 C 
ENDBRANCH  20  22
ENDBRANCH  14  20
ENDBRANCH   1  17
BRANCH   9  23
ATOM     23  C   UNL     1       0.753   4.213   0.904  0.00  0.00    +0.038 A 
ATOM     24  C   UNL     1       2.061   3.748   0.966  0.00  0.00    +0.023 A 
ATOM     25  C   UNL     1       2.308   2.414   1.222  0.00  0.00    +0.002 A 
ATOM     26  C   UNL     1       1.254   1.540   1.417  0.00  0.00    +0.000 A 
ATOM     27  C   UNL     1      -0.050   1.998   1.351  0.00  0.00    +0.002 A 
ATOM     28  C   UNL     1      -0.303   3.332   1.101  0.00  0.00    +0.023 A 
ENDBRANCH   9  23
BRANCH   8  29
ATOM     29  C   UNL     1      -1.614   5.582  -0.580  0.00  0.00    -0.022 A 
ATOM     30  C   UNL     1      -0.981   5.252  -1.763  0.00  0.00    +0.006 A 
ATOM     31  C   UNL     1      -1.703   4.687  -2.799  0.00  0.00    +0.000 A 
ATOM     32  C   UNL     1      -3.059   4.462  -2.654  0.00  0.00    +0.000 A 
ATOM     33  C   UNL     1      -3.693   4.798  -1.472  0.00  0.00    +0.000 A 
ATOM     34  C   UNL     1      -2.970   5.357  -0.435  0.00  0.00    +0.006 A 
ENDBRANCH   8  29
TORSDOF 5
