REMARK  Name = ZINC32106174
REMARK  4 active torsions:
REMARK  status: ('A' for Active; 'I' for Inactive)
REMARK    1  A    between atoms: C_1  and  C_2
REMARK    2  A    between atoms: C_13  and  O_28
REMARK    3  A    between atoms: N_19  and  C_20
REMARK    4  A    between atoms: C_20  and  C_21
REMARK                            x       y       z     vdW  Elec       q    Type
REMARK                         _______ _______ _______ _____ _____    ______ ____
ROOT
ATOM      1  C   UNL     1      -0.018   1.503   0.010  0.00  0.00    +0.045 C 
ATOM      2  C   UNL     1       0.002  -0.004   0.002  0.00  0.00    -0.029 A 
ATOM      3  C   UNL     1       0.006  -0.720  -1.185  0.00  0.00    +0.005 A 
ATOM      4  C   UNL     1       0.025  -2.099  -1.207  0.00  0.00    +0.001 A 
ATOM      5  C   UNL     1       0.041  -2.842  -0.031  0.00  0.00    +0.007 A 
ATOM      6  C   UNL     1       0.038  -2.138   1.154  0.00  0.00    -0.006 A 
ATOM      7  C   UNL     1       0.023  -0.737   1.189  0.00  0.00    +0.041 A 
ATOM      8  N   UNL     1       0.029  -0.289   2.498  0.00  0.00    -0.284 N 
ATOM      9  C   UNL     1       0.054  -1.309   3.383  0.00  0.00    +0.233 C 
ATOM     10  O   UNL     1       0.066  -1.216   4.592  0.00  0.00    -0.274 OA
ATOM     11  C   UNL     1       0.051  -2.590   2.578  0.00  0.00    +0.112 C 
ATOM     12  C   UNL     1      -1.179  -3.434   2.906  0.00  0.00    +0.121 C 
ATOM     13  C   UNL     1      -0.996  -4.862   2.479  0.00  0.00    +0.191 C 
ATOM     14  N   UNL     1       0.152  -5.469   2.474  0.00  0.00    -0.198 NA
ATOM     15  C   UNL     1       1.277  -4.781   2.824  0.00  0.00    +0.159 A 
ATOM     16  C   UNL     1       1.284  -3.392   2.889  0.00  0.00    +0.036 A 
ATOM     17  C   UNL     1       2.552  -2.992   3.265  0.00  0.00    +0.141 A 
ATOM     18  N   UNL     1       3.298  -4.062   3.415  0.00  0.00    -0.177 NA
ATOM     19  N   UNL     1       2.522  -5.199   3.133  0.00  0.00    -0.242 N 
ATOM     20  H   UNL     1       0.018   0.647   2.751  0.00  0.00    +0.155 HD
ENDROOT
BRANCH  13  21
ATOM     21  O   UNL     1      -2.084  -5.553   2.081  0.00  0.00    -0.495 OA
ATOM     22  H   UNL     1      -1.897  -6.465   1.820  0.00  0.00    +0.293 HD
ENDBRANCH  13  21
BRANCH  19  23
ATOM     23  C   UNL     1       2.982  -6.589   3.170  0.00  0.00    +0.182 C 
BRANCH  23  24
ATOM     24  C   UNL     1       3.508  -6.981   1.813  0.00  0.00    -0.008 A 
ATOM     25  C   UNL     1       2.681  -7.619   0.908  0.00  0.00    +0.007 A 
ATOM     26  C   UNL     1       3.163  -7.978  -0.336  0.00  0.00    +0.000 A 
ATOM     27  C   UNL     1       4.474  -7.698  -0.677  0.00  0.00    +0.001 A 
ATOM     28  C   UNL     1       5.302  -7.060   0.227  0.00  0.00    +0.020 A 
ATOM     29  C   UNL     1       4.818  -6.696   1.471  0.00  0.00    +0.046 A 
ATOM     30 CL   UNL     1       5.856  -5.888   2.604  0.00  0.00    -0.083 Cl
ENDBRANCH  23  24
ENDBRANCH  19  23
TORSDOF 3
