REMARK  Name = ZINC39634705
REMARK  11 active torsions:
REMARK  status: ('A' for Active; 'I' for Inactive)
REMARK    1  A    between atoms: C_1  and  C_2
REMARK    2  A    between atoms: C_2  and  C_3
REMARK    3  A    between atoms: C_2  and  N_4
REMARK    4  A    between atoms: N_4  and  C_5
REMARK    5  A    between atoms: N_4  and  C_37
REMARK    6  A    between atoms: C_5  and  C_6
REMARK    7  A    between atoms: C_6  and  N_7
REMARK    8  A    between atoms: C_8  and  C_10
REMARK    9  A    between atoms: C_21  and  C_23
REMARK   10  A    between atoms: C_37  and  C_38
REMARK   11  A    between atoms: C_37  and  C_39
REMARK                            x       y       z     vdW  Elec       q    Type
REMARK                         _______ _______ _______ _____ _____    ______ ____
ROOT
ATOM      1  C   UNL     1      -4.198   0.164  -4.334  0.00  0.00    +0.100 C 
ATOM      2  C   UNL     1      -3.466   1.209  -5.205  0.00  0.00    +0.121 C 
ATOM      3  N   UNL     1      -4.527   2.155  -5.625  0.00  0.00    -0.296 N 
ATOM      4  C   UNL     1      -5.384   2.304  -4.425  0.00  0.00    +0.115 C 
ATOM      5  C   UNL     1      -5.456   0.887  -3.823  0.00  0.00    -0.004 C 
ATOM      6  C   UNL     1      -6.712   0.170  -4.310  0.00  0.00    -0.010 C 
ATOM      7  C   UNL     1      -7.947   0.874  -3.743  0.00  0.00    -0.082 C 
ATOM      8  N   UNL     1      -7.890   0.861  -2.276  0.00  0.00    +0.379 N 
ATOM      9  C   UNL     1      -6.729   1.632  -1.814  0.00  0.00    -0.082 C 
ATOM     10  C   UNL     1      -5.442   0.960  -2.300  0.00  0.00    -0.010 C 
ATOM     11  C   UNL     1      -4.677   2.747  -6.827  0.00  0.00    +0.247 C 
ATOM     12  O   UNL     1      -5.558   3.568  -6.994  0.00  0.00    -0.270 OA
ATOM     13  H   UNL     1      -8.734   1.271  -1.904  0.00  0.00    -0.086 HD
ATOM     14  H   UNL     1      -7.811  -0.091  -1.952  0.00  0.00    -0.086 HD
ENDROOT
BRANCH  11  15
ATOM     15  C   UNL     1      -3.773   2.397  -7.941  0.00  0.00    +0.045 A 
ATOM     16  C   UNL     1      -2.388   2.372  -7.740  0.00  0.00    +0.014 A 
ATOM     17  C   UNL     1      -1.541   2.046  -8.777  0.00  0.00    +0.001 A 
ATOM     18  C   UNL     1      -2.051   1.740 -10.030  0.00  0.00    +0.012 A 
ATOM     19  C   UNL     1      -3.423   1.759 -10.251  0.00  0.00    +0.031 A 
ATOM     20  C   UNL     1      -4.297   2.084  -9.201  0.00  0.00    +0.006 A 
ATOM     21  C   UNL     1      -5.692   2.022  -9.707  0.00  0.00    -0.006 A 
ATOM     22  C   UNL     1      -6.913   2.255  -9.088  0.00  0.00    +0.009 A 
ATOM     23  C   UNL     1      -8.091   2.123  -9.807  0.00  0.00    +0.001 A 
ATOM     24  C   UNL     1      -8.060   1.760 -11.139  0.00  0.00    +0.001 A 
ATOM     25  C   UNL     1      -6.850   1.524 -11.771  0.00  0.00    +0.012 A 
ATOM     26  C   UNL     1      -5.662   1.653 -11.063  0.00  0.00    +0.030 A 
ATOM     27  C   UNL     1      -4.242   1.485 -11.455  0.00  0.00    +0.194 C 
ATOM     28  O   UNL     1      -3.829   1.168 -12.552  0.00  0.00    -0.287 OA
ENDBRANCH  11  15
BRANCH   1  30
ATOM     29  N   UNL     1      -3.453  -1.493  -2.655  0.00  0.00    -0.317 N 
ATOM     30  C   UNL     1      -3.329  -0.257  -3.177  0.00  0.00    +0.218 C 
ATOM     31  O   UNL     1      -2.517   0.517  -2.716  0.00  0.00    -0.275 OA
ATOM     32  H   UNL     1      -4.102  -2.112  -3.024  0.00  0.00    +0.149 HD
BRANCH  29  33
ATOM     33  C   UNL     1      -2.607  -1.901  -1.531  0.00  0.00    +0.085 C 
BRANCH  33  34
ATOM     34  C   UNL     1      -2.948  -3.339  -1.133  0.00  0.00    -0.059 C 
BRANCH  34  35
ATOM     35  N   UNL     1      -2.132  -3.733   0.024  0.00  0.00    +0.384 N 
ATOM     36  H   UNL     1      -1.156  -3.592  -0.189  0.00  0.00    -0.081 HD
BRANCH  35  38
ATOM     37  C   UNL     1      -2.002  -6.001  -0.891  0.00  0.00    -0.014 C 
ATOM     38  C   UNL     1      -2.367  -5.151   0.328  0.00  0.00    -0.074 C 
ATOM     39  C   UNL     1      -1.500  -5.568   1.517  0.00  0.00    -0.014 C 
ENDBRANCH  35  38
BRANCH  35  40
ATOM     40  C   UNL     1      -2.504  -2.915   1.186  0.00  0.00    -0.074 C 
ATOM     41  C   UNL     1      -3.730  -3.525   1.868  0.00  0.00    -0.014 C 
ATOM     42  C   UNL     1      -1.337  -2.876   2.175  0.00  0.00    -0.014 C 
ENDBRANCH  35  40
ENDBRANCH  34  35
ENDBRANCH  33  34
ENDBRANCH  29  33
ENDBRANCH   1  30
TORSDOF 7
