REMARK  Name = ZINC02276537
REMARK  3 active torsions:
REMARK  status: ('A' for Active; 'I' for Inactive)
REMARK    1  A    between atoms: C_3  and  C_6
REMARK    2  A    between atoms: C_6  and  N_7
REMARK    3  A    between atoms: C_11  and  C_14
REMARK                            x       y       z     vdW  Elec       q    Type
REMARK                         _______ _______ _______ _____ _____    ______ ____
ROOT
ATOM      1  N   UNL     1       4.043   0.482   1.359  0.00  0.00    -0.304 N 
ATOM      2  C   UNL     1       4.279   1.611   2.092  0.00  0.00    +0.029 A 
ATOM      3  C   UNL     1       4.758   1.524   3.349  0.00  0.00    +0.020 A 
ATOM      4  C   UNL     1       5.030   0.259   3.910  0.00  0.00    +0.201 A 
ATOM      5  C   UNL     1       4.792  -0.896   3.155  0.00  0.00    +0.148 A 
ATOM      6  C   UNL     1       4.275  -0.747   1.845  0.00  0.00    +0.268 A 
ATOM      7  O   UNL     1       4.046  -1.730   1.161  0.00  0.00    -0.267 OA
ATOM      8  O   UNL     1       5.517   0.161   5.167  0.00  0.00    -0.287 OA
ATOM      9  C   UNL     1       5.016   2.731   4.214  0.00  0.00    +0.041 C 
ATOM     10  C   UNL     1       5.098   3.998   3.366  0.00  0.00    +0.005 C 
ATOM     11  C   UNL     1       3.863   4.046   2.458  0.00  0.00    +0.006 C 
ATOM     12  C   UNL     1       3.987   2.931   1.423  0.00  0.00    +0.054 C 
ENDROOT
BRANCH   5  13
ATOM     13  C   UNL     1       5.066  -2.226   3.708  0.00  0.00    +0.259 C 
ATOM     14  O   UNL     1       5.398  -2.344   4.873  0.00  0.00    -0.269 OA
ATOM     15  N   UNL     1       4.950  -3.318   2.927  0.00  0.00    -0.260 N 
ATOM     16  C   UNL     1       5.299  -4.563   3.421  0.00  0.00    +0.166 A 
ATOM     17  N   UNL     1       5.751  -4.879   4.612  0.00  0.00    -0.225 NA
ATOM     18  C   UNL     1       6.053  -6.149   4.961  0.00  0.00    +0.080 A 
ATOM     19  C   UNL     1       6.544  -6.620   6.201  0.00  0.00    +0.030 A 
ATOM     20  C   UNL     1       6.801  -7.952   6.391  0.00  0.00    +0.017 A 
ATOM     21  C   UNL     1       6.591  -8.883   5.383  0.00  0.00    +0.019 A 
ATOM     22  C   UNL     1       6.111  -8.457   4.157  0.00  0.00    +0.032 A 
ATOM     23  C   UNL     1       5.851  -7.124   3.958  0.00  0.00    +0.042 A 
ATOM     24  S   UNL     1       5.241  -6.151   2.602  0.00  0.00    -0.052 S 
ATOM     25 BR   UNL     1       6.958 -10.714   5.681  0.00  0.00    -0.050 Br
ATOM     26  H   UNL     1       4.623  -3.232   2.018  0.00  0.00    +0.157 HD
ENDBRANCH   5  13
BRANCH   1  27
ATOM     27  C   UNL     1       3.513   0.618   0.000  0.00  0.00    +0.199 C 
BRANCH  27  30
ATOM     28  C   UNL     1       6.346   0.553  -2.356  0.00  0.00    +0.041 A 
ATOM     29  C   UNL     1       5.406  -0.106  -1.531  0.00  0.00    +0.046 A 
ATOM     30  C   UNL     1       4.649   0.850  -0.962  0.00  0.00    +0.125 A 
ATOM     31  O   UNL     1       5.079   2.046  -1.396  0.00  0.00    -0.466 OA
ATOM     32  C   UNL     1       6.107   1.872  -2.242  0.00  0.00    +0.195 A 
ENDBRANCH  27  30
ENDBRANCH   1  27
TORSDOF 3
