REMARK  Name = ZINC19300194
REMARK  8 active torsions:
REMARK  status: ('A' for Active; 'I' for Inactive)
REMARK    1  A    between atoms: C_1  and  C_2
REMARK    2  A    between atoms: C_4  and  C_10
REMARK    3  A    between atoms: C_6  and  C_9
REMARK    4  A    between atoms: C_7  and  O_8
REMARK    5  A    between atoms: C_10  and  N_11
REMARK    6  A    between atoms: C_15  and  N_18
REMARK    7  A    between atoms: C_21  and  C_24
REMARK    8  A    between atoms: C_24  and  O_25
REMARK                            x       y       z     vdW  Elec       q    Type
REMARK                         _______ _______ _______ _____ _____    ______ ____
ROOT
ATOM      1  N   UNL     1       1.414  -3.039  -2.949  0.00  0.00    +0.381 N 
ATOM      2  C   UNL     1       2.088  -3.921  -1.990  0.00  0.00    -0.079 C 
ATOM      3  C   UNL     1       3.555  -4.092  -2.392  0.00  0.00    -0.020 C 
ATOM      4  C   UNL     1       3.627  -4.708  -3.792  0.00  0.00    -0.019 C 
ATOM      5  C   UNL     1       2.856  -3.817  -4.771  0.00  0.00    -0.086 C 
ATOM      6  C   UNL     1       1.416  -3.656  -4.281  0.00  0.00    -0.094 C 
ATOM      7  H   UNL     1       1.899  -2.155  -2.989  0.00  0.00    -0.081 HD
ENDROOT
BRANCH   5   8
ATOM      8  N   UNL     1       2.856  -4.437  -6.103  0.00  0.00    +0.380 N 
ATOM      9  C   UNL     1       4.240  -4.602  -6.564  0.00  0.00    -0.078 C 
ATOM     10  C   UNL     1       4.249  -5.321  -7.915  0.00  0.00    -0.013 C 
ATOM     11  C   UNL     1       3.465  -4.489  -8.934  0.00  0.00    +0.011 C 
ATOM     12  C   UNL     1       2.045  -4.261  -8.408  0.00  0.00    -0.013 C 
ATOM     13  C   UNL     1       2.118  -3.581  -7.039  0.00  0.00    -0.078 C 
ATOM     14  H   UNL     1       2.411  -5.341  -6.051  0.00  0.00    -0.082 HD
BRANCH  11  15
ATOM     15  C   UNL     1       3.402  -5.240 -10.266  0.00  0.00    +0.159 C 
BRANCH  15  16
ATOM     16  O   UNL     1       2.772  -4.415 -11.248  0.00  0.00    -0.395 OA
ATOM     17  H   UNL     1       2.698  -4.828 -12.120  0.00  0.00    +0.209 HD
ENDBRANCH  15  16
ENDBRANCH  11  15
ENDBRANCH   5   8
BRANCH   1  18
ATOM     18  C   UNL     1       0.028  -2.816  -2.516  0.00  0.00    -0.043 C 
BRANCH  18  22
ATOM     19  C   UNL     1      -0.018   1.503   0.010  0.00  0.00    +0.047 C 
ATOM     20  C   UNL     1       0.002  -0.004   0.002  0.00  0.00    -0.009 A 
ATOM     21  C   UNL     1       0.006  -0.689  -1.198  0.00  0.00    +0.008 A 
ATOM     22  C   UNL     1       0.024  -2.071  -1.206  0.00  0.00    -0.063 A 
ATOM     23  C   UNL     1       0.040  -2.772  -0.014  0.00  0.00    +0.008 A 
ATOM     24  C   UNL     1       0.036  -2.092   1.188  0.00  0.00    -0.009 A 
ATOM     25  C   UNL     1       0.023  -0.705   1.199  0.00  0.00    +0.123 A 
ATOM     26  C   UNL     1       0.052  -2.856   2.487  0.00  0.00    +0.047 C 
BRANCH  25  27
ATOM     27  O   UNL     1       0.025  -0.033   2.381  0.00  0.00    -0.506 OA
ATOM     28  H   UNL     1      -0.857   0.149   2.731  0.00  0.00    +0.292 HD
ENDBRANCH  25  27
ENDBRANCH  18  22
ENDBRANCH   1  18
TORSDOF 6
