REMARK  Name = ZINC20972340
REMARK  10 active torsions:
REMARK  status: ('A' for Active; 'I' for Inactive)
REMARK    1  A    between atoms: C_1  and  C_2
REMARK    2  A    between atoms: C_2  and  C_3
REMARK    3  A    between atoms: C_2  and  O_4
REMARK    4  A    between atoms: O_4  and  C_5
REMARK    5  A    between atoms: C_5  and  C_7
REMARK    6  A    between atoms: N_16  and  C_17
REMARK    7  A    between atoms: C_17  and  N_19
REMARK    8  A    between atoms: C_20  and  C_22
REMARK    9  A    between atoms: C_24  and  N_33
REMARK   10  A    between atoms: C_27  and  N_28
REMARK                            x       y       z     vdW  Elec       q    Type
REMARK                         _______ _______ _______ _____ _____    ______ ____
ROOT
ATOM      1  C   UNL     1      -3.700   5.878  -0.342  0.00  0.00    +0.163 C 
ATOM      2  S   UNL     1      -5.168   5.005  -0.460  0.00  0.00    -0.016 S 
ENDROOT
BRANCH   1  12
ATOM      3  C   UNL     1      -9.305  10.079  -0.874  0.00  0.00    +0.060 A 
ATOM      4  C   UNL     1      -9.570   8.702  -0.882  0.00  0.00    +0.017 A 
ATOM      5  C   UNL     1      -8.573   7.789  -0.785  0.00  0.00    +0.027 A 
ATOM      6  C   UNL     1      -7.219   8.194  -0.672  0.00  0.00    +0.055 A 
ATOM      7  C   UNL     1      -6.977   9.590  -0.666  0.00  0.00    +0.039 A 
ATOM      8  C   UNL     1      -7.979  10.515  -0.763  0.00  0.00    +0.032 A 
ATOM      9  S   UNL     1      -5.209   9.665  -0.507  0.00  0.00    -0.052 S 
ATOM     10  C   UNL     1      -4.914   7.903  -0.470  0.00  0.00    +0.163 A 
ATOM     11  N   UNL     1      -6.131   7.415  -0.570  0.00  0.00    -0.335 N 
ATOM     12  N   UNL     1      -3.714   7.226  -0.358  0.00  0.00    -0.169 NA
ATOM     13  H   UNL     1      -6.237   6.320  -0.567  0.00  0.00    +0.168 HD
BRANCH   3  14
ATOM     14  C   UNL     1     -10.406  11.053  -0.979  0.00  0.00    +0.339 C 
ATOM     15  O   UNL     1     -10.166  12.245  -0.970  0.00  0.00    -0.245 OA
BRANCH  14  16
ATOM     16  O   UNL     1     -11.678  10.623  -1.085  0.00  0.00    -0.458 OA
BRANCH  16  18
ATOM     17  C   UNL     1     -12.950  11.981  -2.657  0.00  0.00    +0.052 C 
ATOM     18  C   UNL     1     -12.711  11.639  -1.185  0.00  0.00    +0.171 C 
ATOM     19  C   UNL     1     -14.008  11.110  -0.567  0.00  0.00    +0.052 C 
ENDBRANCH  16  18
ENDBRANCH  14  16
ENDBRANCH   3  14
ENDBRANCH   1  12
BRANCH   1  20
ATOM     20  N   UNL     1      -2.530   5.218  -0.233  0.00  0.00    -0.262 N 
ATOM     21  C   UNL     1      -2.516   3.870  -0.217  0.00  0.00    +0.251 C 
ATOM     22  O   UNL     1      -3.558   3.250  -0.301  0.00  0.00    -0.270 OA
ATOM     23  H   UNL     1      -1.587   5.779  -0.157  0.00  0.00    +0.157 HD
BRANCH  21  24
ATOM     24  C   UNL     1      -1.237   3.148  -0.098  0.00  0.00    +0.060 A 
ATOM     25  C   UNL     1      -0.028   3.851  -0.114  0.00  0.00    +0.047 A 
ATOM     26  C   UNL     1       1.164   3.170  -0.002  0.00  0.00    +0.127 A 
ATOM     27  C   UNL     1       1.173   1.790   0.126  0.00  0.00    +0.034 A 
ATOM     28  C   UNL     1      -0.011   1.082   0.143  0.00  0.00    +0.026 A 
ATOM     29  C   UNL     1      -1.224   1.750   0.027  0.00  0.00    +0.042 A 
BRANCH  29  30
ATOM     30  N   UNL     1      -2.416   1.039   0.039  0.00  0.00    -0.329 N 
ATOM     31  C   UNL     1      -2.402  -0.041  -0.981  0.00  0.00    +0.105 C 
ATOM     32  C   UNL     1      -3.505  -1.010  -0.486  0.00  0.00    +0.020 C 
ATOM     33  C   UNL     1      -3.341  -0.965   1.051  0.00  0.00    +0.020 C 
ATOM     34  C   UNL     1      -2.618   0.364   1.339  0.00  0.00    +0.105 C 
ENDBRANCH  29  30
BRANCH  26  35
ATOM     35  N   UNL     1       2.442   3.916  -0.020  0.00  0.00    +0.056 N 
ATOM     36  O   UNL     1       3.498   3.318   0.078  0.00  0.00    -0.126 OA
ATOM     37  O   UNL     1       2.438   5.129  -0.132  0.00  0.00    -0.126 OA
ENDBRANCH  26  35
ENDBRANCH  21  24
ENDBRANCH   1  20
TORSDOF 8
