REMARK  Name = ZINC39325060
REMARK  10 active torsions:
REMARK  status: ('A' for Active; 'I' for Inactive)
REMARK    1  A    between atoms: C_1  and  C_2
REMARK    2  A    between atoms: C_7  and  C_8
REMARK    3  A    between atoms: C_8  and  C_9
REMARK    4  A    between atoms: C_9  and  N_10
REMARK    5  A    between atoms: N_10  and  C_11
REMARK    6  A    between atoms: N_10  and  S_26
REMARK    7  A    between atoms: C_11  and  C_12
REMARK    8  A    between atoms: C_17  and  C_25
REMARK    9  A    between atoms: C_18  and  C_24
REMARK   10  A    between atoms: S_26  and  C_29
REMARK                            x       y       z     vdW  Elec       q    Type
REMARK                         _______ _______ _______ _____ _____    ______ ____
ROOT
ATOM      1  N   UNL     1      -1.478   0.868   3.721  0.00  0.00    -0.175 NA
ENDROOT
BRANCH   1   2
ATOM      2  S   UNL     1      -1.803  -0.127   5.005  0.00  0.00    +0.061 S 
ATOM      3  O   UNL     1      -2.318   0.701   6.039  0.00  0.00    -0.153 OA
ATOM      4  O   UNL     1      -2.524  -1.236   4.487  0.00  0.00    -0.153 OA
BRANCH   2   5
ATOM      5  C   UNL     1      -0.261  -0.753   5.582  0.00  0.00    +0.109 A 
ATOM      6  C   UNL     1       0.247  -1.927   5.058  0.00  0.00    +0.032 A 
ATOM      7  C   UNL     1       1.456  -2.423   5.509  0.00  0.00    +0.051 A 
ATOM      8  C   UNL     1       2.163  -1.742   6.489  0.00  0.00    +0.162 A 
ATOM      9  C   UNL     1       1.654  -0.561   7.015  0.00  0.00    +0.164 A 
ATOM     10  C   UNL     1       0.442  -0.067   6.555  0.00  0.00    +0.078 A 
ATOM     11  O   UNL     1       2.336   0.127   7.971  0.00  0.00    -0.485 OA
ATOM     12  C   UNL     1       3.363  -0.587   8.668  0.00  0.00    +0.270 C 
ATOM     13  C   UNL     1       4.209  -1.343   7.634  0.00  0.00    +0.270 C 
ATOM     14  O   UNL     1       3.350  -2.244   6.926  0.00  0.00    -0.485 OA
ENDBRANCH   2   5
ENDBRANCH   1   2
BRANCH   1  15
ATOM     15  C   UNL     1      -1.548   0.346   2.354  0.00  0.00    +0.114 C 
BRANCH  15  16
ATOM     16  C   UNL     1      -0.158  -0.121   1.915  0.00  0.00    +0.052 C 
BRANCH  16  23
ATOM     17  C   UNL     1       0.041   1.684  -0.332  0.00  0.00    +0.044 C 
ATOM     18  C   UNL     1      -0.135   0.205  -0.566  0.00  0.00    -0.047 A 
ATOM     19  C   UNL     1      -0.195  -0.288  -1.857  0.00  0.00    +0.003 A 
ATOM     20  C   UNL     1      -0.356  -1.644  -2.071  0.00  0.00    +0.000 A 
ATOM     21  C   UNL     1      -0.457  -2.507  -0.996  0.00  0.00    +0.000 A 
ATOM     22  C   UNL     1      -0.396  -2.014   0.294  0.00  0.00    +0.004 A 
ATOM     23  C   UNL     1      -0.230  -0.658   0.509  0.00  0.00    -0.043 A 
ENDBRANCH  16  23
ENDBRANCH  15  16
ENDBRANCH   1  15
BRANCH   1  24
ATOM     24  C   UNL     1      -1.120   2.269   3.953  0.00  0.00    +0.126 C 
BRANCH  24  25
ATOM     25  C   UNL     1      -2.383   3.132   3.907  0.00  0.00    +0.114 C 
ATOM     26  C   UNL     1      -3.046   2.914   2.561  0.00  0.00    -0.003 C 
ATOM     27  C   UNL     1      -3.240   4.011   1.775  0.00  0.00    -0.007 A 
ATOM     28  C   UNL     1      -3.873   3.891   0.461  0.00  0.00    +0.013 A 
ATOM     29  C   UNL     1      -4.046   5.011  -0.287  0.00  0.00    -0.047 A 
ATOM     30  C   UNL     1      -3.634   6.263   0.172  0.00  0.00    -0.046 A 
ATOM     31  C   UNL     1      -3.041   6.441   1.381  0.00  0.00    +0.027 A 
ATOM     32  C   UNL     1      -2.816   5.345   2.235  0.00  0.00    +0.041 A 
ATOM     33  N   UNL     1      -2.233   5.532   3.419  0.00  0.00    -0.284 N 
ATOM     34  C   UNL     1      -1.991   4.548   4.267  0.00  0.00    +0.225 C 
ATOM     35  O   UNL     1      -1.455   4.780   5.334  0.00  0.00    -0.275 OA
ATOM     36  C   UNL     1      -3.857   7.465  -0.709  0.00  0.00    +0.044 C 
ATOM     37  C   UNL     1      -4.696   4.900  -1.642  0.00  0.00    +0.044 C 
ATOM     38  H   UNL     1      -1.975   6.433   3.670  0.00  0.00    +0.155 HD
ENDBRANCH  24  25
ENDBRANCH   1  24
TORSDOF 7
