REMARK  Name = ZINC18325305
REMARK  5 active torsions:
REMARK  status: ('A' for Active; 'I' for Inactive)
REMARK    1  A    between atoms: C_1  and  C_2
REMARK    2  A    between atoms: C_5  and  C_8
REMARK    3  A    between atoms: N_10  and  N_11
REMARK    4  A    between atoms: N_19  and  C_22
REMARK    5  A    between atoms: C_22  and  C_23
REMARK                            x       y       z     vdW  Elec       q    Type
REMARK                         _______ _______ _______ _____ _____    ______ ____
ROOT
ATOM      1  N   UNL     1       0.223  -6.397   1.137  0.00  0.00    -0.174 NA
ATOM      2  C   UNL     1       0.274  -6.956   2.322  0.00  0.00    +0.153 C 
ATOM      3  C   UNL     1       0.173  -6.287   3.640  0.00  0.00    +0.028 A 
ATOM      4  C   UNL     1       0.008  -4.961   4.025  0.00  0.00    +0.012 A 
ATOM      5  C   UNL     1      -0.051  -4.639   5.366  0.00  0.00    +0.001 A 
ATOM      6  C   UNL     1       0.055  -5.634   6.324  0.00  0.00    +0.002 A 
ATOM      7  C   UNL     1       0.220  -6.953   5.952  0.00  0.00    +0.024 A 
ATOM      8  C   UNL     1       0.281  -7.296   4.606  0.00  0.00    +0.046 A 
ATOM      9  N   UNL     1       0.438  -8.524   3.972  0.00  0.00    -0.261 N 
ATOM     10  C   UNL     1       0.437  -8.390   2.634  0.00  0.00    +0.272 C 
ATOM     11  O   UNL     1       0.551  -9.291   1.824  0.00  0.00    -0.268 OA
ENDROOT
BRANCH   1  14
ATOM     12  C   UNL     1       0.085  -4.424  -0.188  0.00  0.00    +0.265 C 
ATOM     13  O   UNL     1      -0.079  -5.115  -1.174  0.00  0.00    -0.268 OA
ATOM     14  N   UNL     1       0.246  -5.001   1.020  0.00  0.00    -0.202 N 
ATOM     15  H   UNL     1       0.377  -4.450   1.807  0.00  0.00    +0.178 HD
BRANCH  12  20
ATOM     16  C   UNL     1       0.197   1.273  -0.524  0.00  0.00    +0.065 C 
ATOM     17  C   UNL     1       0.164  -0.233  -0.461  0.00  0.00    +0.038 A 
ATOM     18  C   UNL     1      -0.027  -0.959  -1.623  0.00  0.00    +0.024 A 
ATOM     19  C   UNL     1      -0.056  -2.340  -1.561  0.00  0.00    +0.016 A 
ATOM     20  C   UNL     1       0.109  -2.953  -0.312  0.00  0.00    +0.056 A 
ATOM     21  C   UNL     1       0.296  -2.148   0.813  0.00  0.00    +0.124 A 
ATOM     22  N   UNL     1       0.323  -0.836   0.702  0.00  0.00    -0.259 NA
ENDBRANCH  12  20
ENDBRANCH   1  14
BRANCH   9  23
ATOM     23  C   UNL     1       0.583  -9.802   4.673  0.00  0.00    +0.149 C 
BRANCH  23  24
ATOM     24  C   UNL     1      -0.773 -10.435   4.848  0.00  0.00    -0.022 A 
ATOM     25  C   UNL     1      -1.899  -9.739   4.530  0.00  0.00    +0.006 A 
ATOM     26  C   UNL     1      -3.162 -10.308   4.685  0.00  0.00    +0.001 A 
ATOM     27  C   UNL     1      -3.306 -11.575   5.161  0.00  0.00    +0.008 A 
ATOM     28  C   UNL     1      -2.167 -12.324   5.500  0.00  0.00    -0.018 A 
ATOM     29  C   UNL     1      -0.882 -11.748   5.336  0.00  0.00    -0.013 A 
ATOM     30  C   UNL     1       0.258 -12.500   5.670  0.00  0.00    +0.009 A 
ATOM     31  C   UNL     1       0.114 -13.769   6.139  0.00  0.00    +0.001 A 
ATOM     32  C   UNL     1      -1.149 -14.338   6.295  0.00  0.00    +0.001 A 
ATOM     33  C   UNL     1      -2.276 -13.636   5.994  0.00  0.00    +0.008 A 
ENDBRANCH  23  24
ENDBRANCH   9  23
TORSDOF 4
