REMARK  Name = ZINC02197251
REMARK  4 active torsions:
REMARK  status: ('A' for Active; 'I' for Inactive)
REMARK    1  A    between atoms: C_1  and  C_2
REMARK    2  A    between atoms: C_16  and  C_18
REMARK    3  A    between atoms: C_28  and  C_35
REMARK    4  A    between atoms: C_30  and  C_34
REMARK                            x       y       z     vdW  Elec       q    Type
REMARK                         _______ _______ _______ _____ _____    ______ ____
ROOT
ATOM      1  C   UNL     1       3.711  -0.733  -0.037  0.00  0.00    +0.044 C 
ATOM      2  C   UNL     1       2.407   0.022  -0.020  0.00  0.00    -0.050 A 
ATOM      3  C   UNL     1       1.206  -0.674  -0.013  0.00  0.00    +0.007 A 
ATOM      4  C   UNL     1       0.002  -0.004   0.002  0.00  0.00    +0.047 A 
ATOM      5  C   UNL     1      -0.017   1.388   0.010  0.00  0.00    +0.139 A 
ATOM      6  C   UNL     1       1.204   2.084   0.002  0.00  0.00    +0.065 A 
ATOM      7  C   UNL     1       2.413   1.389  -0.013  0.00  0.00    +0.018 A 
ATOM      8  C   UNL     1       1.164   3.559   0.010  0.00  0.00    +0.199 A 
ATOM      9  O   UNL     1       2.183   4.227   0.004  0.00  0.00    -0.287 OA
ATOM     10  C   UNL     1      -0.164   4.181   0.026  0.00  0.00    +0.073 A 
ATOM     11  C   UNL     1      -1.274   3.402   0.033  0.00  0.00    +0.199 A 
ATOM     12  O   UNL     1      -1.184   2.057   0.019  0.00  0.00    -0.450 OA
ATOM     13  C   UNL     1      -2.464   4.286   0.048  0.00  0.00    +0.289 C 
ATOM     14  O   UNL     1      -3.616   3.901   0.056  0.00  0.00    -0.266 OA
ATOM     15  N   UNL     1      -2.086   5.576   0.051  0.00  0.00    -0.232 N 
ATOM     16  C   UNL     1      -0.618   5.617   0.037  0.00  0.00    +0.154 C 
ATOM     17  C   UNL     1      -2.930   6.672   0.063  0.00  0.00    +0.169 A 
ATOM     18  N   UNL     1      -4.243   6.700   0.076  0.00  0.00    -0.224 NA
ATOM     19  C   UNL     1      -4.944   7.854   0.088  0.00  0.00    +0.083 A 
ATOM     20  C   UNL     1      -6.348   8.023   0.102  0.00  0.00    -0.024 A 
ATOM     21  C   UNL     1      -6.902   9.276   0.113  0.00  0.00    +0.009 A 
ATOM     22  C   UNL     1      -6.114  10.418   0.112  0.00  0.00    -0.049 A 
ATOM     23  C   UNL     1      -4.737  10.290   0.098  0.00  0.00    +0.020 A 
ATOM     24  C   UNL     1      -4.173   9.039   0.087  0.00  0.00    +0.041 A 
ATOM     25  S   UNL     1      -2.512   8.410   0.075  0.00  0.00    -0.052 S 
ATOM     26  C   UNL     1      -6.752  11.783   0.125  0.00  0.00    +0.044 C 
ATOM     27  C   UNL     1      -7.244   6.811   0.104  0.00  0.00    +0.046 C 
ENDROOT
BRANCH  16  28
ATOM     28  C   UNL     1      -0.128   6.326  -1.199  0.00  0.00    +0.013 A 
ATOM     29  C   UNL     1      -0.980   6.514  -2.271  0.00  0.00    +0.008 A 
ATOM     30  C   UNL     1      -0.532   7.170  -3.403  0.00  0.00    +0.001 A 
ATOM     31  C   UNL     1       0.770   7.628  -3.468  0.00  0.00    +0.003 A 
ATOM     32  C   UNL     1       1.625   7.437  -2.399  0.00  0.00    +0.039 A 
ATOM     33  C   UNL     1       1.176   6.785  -1.262  0.00  0.00    +0.129 A 
ATOM     34  F   UNL     1       2.011   6.597  -0.217  0.00  0.00    -0.205 F 
ENDBRANCH  16  28
TORSDOF 1
