REMARK  Name = ZINC21866209
REMARK  10 active torsions:
REMARK  status: ('A' for Active; 'I' for Inactive)
REMARK    1  A    between atoms: C_1  and  C_2
REMARK    2  A    between atoms: C_2  and  C_3
REMARK    3  A    between atoms: C_2  and  C_4
REMARK    4  A    between atoms: C_4  and  C_5
REMARK    5  A    between atoms: C_5  and  N_6
REMARK    6  A    between atoms: C_7  and  C_9
REMARK    7  A    between atoms: C_9  and  C_33
REMARK    8  A    between atoms: C_18  and  N_28
REMARK    9  A    between atoms: N_22  and  C_23
REMARK   10  A    between atoms: C_29  and  C_31
REMARK                            x       y       z     vdW  Elec       q    Type
REMARK                         _______ _______ _______ _____ _____    ______ ____
ROOT
ATOM      1  C   UNL     1       0.693   0.716   3.113  0.00  0.00    +0.129 C 
ATOM      2  C   UNL     1       1.681   0.728   4.278  0.00  0.00    +0.157 C 
ATOM      3  N   UNL     1       2.380   2.020   4.305  0.00  0.00    -0.332 N 
ATOM      4  C   UNL     1       2.896   2.702   5.359  0.00  0.00    +0.052 A 
ATOM      5  C   UNL     1       2.916   2.420   6.727  0.00  0.00    +0.029 A 
ATOM      6  C   UNL     1       3.538   3.337   7.553  0.00  0.00    +0.040 A 
ATOM      7  C   UNL     1       4.124   4.497   7.066  0.00  0.00    +0.124 A 
ATOM      8  C   UNL     1       4.119   4.806   5.718  0.00  0.00    +0.050 A 
ATOM      9  C   UNL     1       3.494   3.890   4.863  0.00  0.00    +0.025 A 
ATOM     10  C   UNL     1       3.297   3.891   3.421  0.00  0.00    +0.072 A 
ATOM     11  C   UNL     1       2.611   2.744   3.126  0.00  0.00    +0.127 A 
ATOM     12  C   UNL     1       2.132   2.244   1.834  0.00  0.00    +0.266 C 
ATOM     13  O   UNL     1       2.473   2.758   0.784  0.00  0.00    -0.268 OA
ATOM     14  N   UNL     1       1.288   1.187   1.868  0.00  0.00    -0.278 N 
ATOM     15  F   UNL     1       4.715   5.348   7.933  0.00  0.00    -0.205 F 
ATOM     16  C   UNL     1       0.188  -0.714   2.910  0.00  0.00    +0.043 C 
ENDROOT
BRANCH  14  17
ATOM     17  C   UNL     1       0.968   0.492   0.619  0.00  0.00    +0.078 C 
ATOM     18  C   UNL     1       2.260   0.050  -0.099  0.00  0.00    +0.022 C 
ATOM     19  C   UNL     1       2.015   0.243  -1.606  0.00  0.00    +0.002 C 
ATOM     20  C   UNL     1       0.582   0.795  -1.752  0.00  0.00    +0.002 C 
ATOM     21  C   UNL     1       0.289   1.459  -0.384  0.00  0.00    +0.022 C 
ENDBRANCH  14  17
BRANCH  10  22
ATOM     22  N   UNL     1       3.722   4.864   2.521  0.00  0.00    -0.283 N 
ATOM     23  C   UNL     1       4.924   5.452   2.681  0.00  0.00    +0.214 C 
ATOM     24  O   UNL     1       5.596   5.202   3.660  0.00  0.00    -0.276 OA
ATOM     25  C   UNL     1       5.435   6.419   1.645  0.00  0.00    +0.109 C 
ATOM     26  H   UNL     1       3.076   5.154   1.679  0.00  0.00    +0.155 HD
ENDBRANCH  10  22
BRANCH   1  28
ATOM     27  N   UNL     1      -0.435   2.917   3.172  0.00  0.00    -0.313 N 
ATOM     28  C   UNL     1      -0.477   1.601   3.458  0.00  0.00    +0.238 C 
ATOM     29  O   UNL     1      -1.457   1.128   3.994  0.00  0.00    -0.273 OA
ATOM     30  H   UNL     1       0.454   3.346   2.686  0.00  0.00    +0.149 HD
BRANCH  27  31
ATOM     31  C   UNL     1      -1.573   3.777   3.508  0.00  0.00    +0.104 C 
BRANCH  31  32
ATOM     32  C   UNL     1      -1.270   5.214   3.079  0.00  0.00    +0.022 C 
BRANCH  32  34
ATOM     33  C   UNL     1      -2.623   6.169   4.950  0.00  0.00    +0.007 C 
ATOM     34  C   UNL     1      -2.458   6.112   3.430  0.00  0.00    -0.016 C 
ATOM     35  C   UNL     1      -2.208   7.522   2.891  0.00  0.00    +0.007 C 
ENDBRANCH  32  34
ENDBRANCH  31  32
ENDBRANCH  27  31
ENDBRANCH   1  28
TORSDOF 6
