REMARK  Name = ZINC44322783
REMARK  9 active torsions:
REMARK  status: ('A' for Active; 'I' for Inactive)
REMARK    1  A    between atoms: C_1  and  C_2
REMARK    2  A    between atoms: C_7  and  C_35
REMARK    3  A    between atoms: C_8  and  C_11
REMARK    4  A    between atoms: C_11  and  CA_12
REMARK    5  A    between atoms: CA_12  and  C_14
REMARK    6  A    between atoms: CA_12  and  N_17
REMARK    7  A    between atoms: C_18  and  O_20
REMARK    8  A    between atoms: O_20  and  C_21
REMARK    9  A    between atoms: C_21  and  C_22
REMARK                            x       y       z     vdW  Elec       q    Type
REMARK                         _______ _______ _______ _____ _____    ______ ____
ROOT
ATOM      1  CA  UNL     1      -1.879  -2.785   4.061  0.00  0.00    +0.195 C 
ENDROOT
BRANCH   1   2
ATOM      2  N   UNL     1      -2.406  -4.143   3.907  0.00  0.00    -0.267 N 
ATOM      3  C   UNL     1      -3.726  -4.336   3.715  0.00  0.00    +0.401 C 
ATOM      4  O   UNL     1      -4.479  -3.383   3.669  0.00  0.00    -0.226 OA
ATOM      5  H   UNL     1      -1.805  -4.904   3.943  0.00  0.00    +0.153 HD
BRANCH   3   6
ATOM      6  O   UNL     1      -4.210  -5.584   3.573  0.00  0.00    -0.449 OA
BRANCH   6   7
ATOM      7  C   UNL     1      -5.619  -5.714   3.372  0.00  0.00    +0.246 C 
BRANCH   7   8
ATOM      8  C   UNL     1      -5.980  -7.195   3.234  0.00  0.00    +0.088 C 
ATOM      9  C   UNL     1      -5.779  -7.904   4.550  0.00  0.00    -0.029 A 
ATOM     10  C   UNL     1      -4.663  -8.096   5.337  0.00  0.00    +0.005 A 
ATOM     11  C   UNL     1      -4.765  -8.801   6.523  0.00  0.00    +0.000 A 
ATOM     12  C   UNL     1      -5.986  -9.314   6.922  0.00  0.00    +0.001 A 
ATOM     13  C   UNL     1      -7.107  -9.127   6.141  0.00  0.00    +0.009 A 
ATOM     14  C   UNL     1      -7.012  -8.417   4.943  0.00  0.00    -0.014 A 
ATOM     15  C   UNL     1      -8.037  -8.072   3.927  0.00  0.00    -0.014 A 
ATOM     16  C   UNL     1      -7.444  -7.344   2.900  0.00  0.00    -0.029 A 
ATOM     17  C   UNL     1      -8.199  -6.907   1.832  0.00  0.00    +0.005 A 
ATOM     18  C   UNL     1      -9.552  -7.191   1.778  0.00  0.00    +0.000 A 
ATOM     19  C   UNL     1     -10.150  -7.913   2.794  0.00  0.00    +0.001 A 
ATOM     20  C   UNL     1      -9.402  -8.355   3.866  0.00  0.00    +0.009 A 
ENDBRANCH   7   8
ENDBRANCH   6   7
ENDBRANCH   3   6
ENDBRANCH   1   2
BRANCH   1  21
ATOM     21  C   UNL     1      -1.977  -2.369   5.506  0.00  0.00    +0.376 C 
ATOM     22  O   UNL     1      -2.128  -1.194   5.793  0.00  0.00    -0.244 OA
ATOM     23  OXT UNL     1      -1.905  -3.208   6.388  0.00  0.00    -0.244 OA
ENDBRANCH   1  21
BRANCH   1  24
ATOM     24  C   UNL     1      -0.414  -2.753   3.619  0.00  0.00    +0.090 C 
BRANCH  24  32
ATOM     25  C   UNL     1       0.591  -7.961   2.012  0.00  0.00    +0.045 C 
ATOM     26  C   UNL     1       0.351  -6.614   1.379  0.00  0.00    -0.034 A 
ATOM     27  C   UNL     1       0.354  -6.488  -0.020  0.00  0.00    +0.008 A 
ATOM     28  C   UNL     1       0.138  -5.272  -0.588  0.00  0.00    +0.045 A 
ATOM     29  C   UNL     1      -0.088  -4.153   0.241  0.00  0.00    +0.116 A 
ATOM     30  N   UNL     1      -0.321  -2.878  -0.033  0.00  0.00    -0.339 N 
ATOM     31  C   UNL     1      -0.470  -2.202   1.117  0.00  0.00    +0.068 A 
ATOM     32  C   UNL     1      -0.326  -3.078   2.150  0.00  0.00    +0.051 A 
ATOM     33  N   UNL     1      -0.086  -4.307   1.603  0.00  0.00    -0.304 N 
ATOM     34  C   UNL     1       0.128  -5.536   2.159  0.00  0.00    +0.096 A 
ATOM     35  H   UNL     1      -0.375  -2.494  -0.922  0.00  0.00    +0.167 HD
BRANCH  31  36
ATOM     36  C   UNL     1      -0.743  -0.748   1.242  0.00  0.00    +0.000 A 
ATOM     37  C   UNL     1       0.011   0.033   2.116  0.00  0.00    +0.010 A 
ATOM     38  C   UNL     1      -0.248   1.384   2.227  0.00  0.00    +0.001 A 
ATOM     39  C   UNL     1      -1.253   1.963   1.474  0.00  0.00    +0.000 A 
ATOM     40  C   UNL     1      -2.004   1.192   0.605  0.00  0.00    +0.001 A 
ATOM     41  C   UNL     1      -1.751  -0.159   0.481  0.00  0.00    +0.010 A 
ENDBRANCH  31  36
ENDBRANCH  24  32
ENDBRANCH   1  24
TORSDOF 8
