REMARK  Name = ZINC45071010
REMARK  2 active torsions:
REMARK  status: ('A' for Active; 'I' for Inactive)
REMARK    1  A    between atoms: C_10  and  C_12
REMARK    2  A    between atoms: C_12  and  O_13
REMARK                            x       y       z     vdW  Elec       q    Type
REMARK                         _______ _______ _______ _____ _____    ______ ____
ROOT
ATOM      1  C   UNL     1      -0.019   1.529   0.011  0.00  0.00    +0.035 C 
ATOM      2  C   UNL     1       1.376   2.084   0.000  0.00  0.00    -0.030 C 
ATOM      3  C   UNL     1       2.449   1.356  -0.104  0.00  0.00    -0.023 C 
ATOM      4  C   UNL     1       2.335  -0.156  -0.207  0.00  0.00    +0.039 C 
ATOM      5  C   UNL     1       1.905  -0.615   1.183  0.00  0.00    -0.023 C 
ATOM      6  C   UNL     1       0.604  -0.509   1.297  0.00  0.00    -0.026 C 
ATOM      7  C   UNL     1       0.002  -0.004   0.002  0.00  0.00    +0.021 C 
ATOM      8  C   UNL     1       1.068  -0.423  -1.073  0.00  0.00    +0.032 C 
ENDROOT
BRANCH   8   9
ATOM      9  C   UNL     1       0.941  -1.901  -1.449  0.00  0.00    +0.160 C 
BRANCH   9  10
ATOM     10  O   UNL     1       2.013  -2.265  -2.321  0.00  0.00    -0.395 OA
ATOM     11  H   UNL     1       1.995  -3.191  -2.601  0.00  0.00    +0.209 HD
ENDBRANCH   9  10
ENDBRANCH   8   9
TORSDOF 2
