REMARK  Name = ZINC32734489
REMARK  13 active torsions:
REMARK  status: ('A' for Active; 'I' for Inactive)
REMARK    1  A    between atoms: C_1  and  C_2
REMARK    2  A    between atoms: C_2  and  C_3
REMARK    3  A    between atoms: C_6  and  C_9
REMARK    4  A    between atoms: C_9  and  C_11
REMARK    5  A    between atoms: C_9  and  N_30
REMARK    6  A    between atoms: C_11  and  N_12
REMARK    7  A    between atoms: C_13  and  C_15
REMARK    8  A    between atoms: C_15  and  S_16
REMARK    9  A    between atoms: S_16  and  C_17
REMARK   10  A    between atoms: N_21  and  C_22
REMARK   11  A    between atoms: C_25  and  C_29
REMARK   12  A    between atoms: N_30  and  C_31
REMARK   13  A    between atoms: N_30  and  C_32
REMARK                            x       y       z     vdW  Elec       q    Type
REMARK                         _______ _______ _______ _____ _____    ______ ____
ROOT
ATOM      1  N   UNL     1      -6.768   2.962  -4.787  0.00  0.00    -0.316 N 
ATOM      2  C   UNL     1      -5.545   3.012  -4.223  0.00  0.00    +0.223 C 
ATOM      3  O   UNL     1      -4.763   2.099  -4.388  0.00  0.00    -0.275 OA
ATOM      4  H   UNL     1      -7.477   3.790  -4.637  0.00  0.00    +0.149 HD
ENDROOT
BRANCH   1   5
ATOM      5  C   UNL     1      -7.154   1.806  -5.600  0.00  0.00    +0.093 C 
BRANCH   5   6
ATOM      6  C   UNL     1      -8.629   1.924  -5.988  0.00  0.00    -0.021 C 
BRANCH   6  10
ATOM      7  C   UNL     1      -9.706  -1.357  -8.502  0.00  0.00    -0.048 A 
ATOM      8  C   UNL     1      -9.515  -0.102  -9.048  0.00  0.00    +0.004 A 
ATOM      9  C   UNL     1      -9.167   0.960  -8.234  0.00  0.00    +0.002 A 
ATOM     10  C   UNL     1      -9.009   0.766  -6.875  0.00  0.00    -0.059 A 
ATOM     11  C   UNL     1      -9.195  -0.490  -6.329  0.00  0.00    +0.002 A 
ATOM     12  C   UNL     1      -9.549  -1.551  -7.142  0.00  0.00    +0.004 A 
BRANCH   7  14
ATOM     13  C   UNL     1      -8.819  -3.208  -9.893  0.00  0.00    +0.009 C 
ATOM     14  C   UNL     1     -10.086  -2.515  -9.389  0.00  0.00    +0.032 C 
ENDBRANCH   7  14
ENDBRANCH   6  10
BRANCH   6  15
ATOM     15  N   UNL     1      -9.457   1.905  -4.775  0.00  0.00    +0.382 N 
ATOM     16  C   UNL     1      -8.804   1.142  -3.703  0.00  0.00    -0.096 C 
ATOM     17  C   UNL     1      -9.775   3.269  -4.333  0.00  0.00    -0.096 C 
ATOM     18  H   UNL     1     -10.404   1.400  -5.020  0.00  0.00    -0.082 HD
ENDBRANCH   6  15
ENDBRANCH   5   6
ENDBRANCH   1   5
BRANCH   2  19
ATOM     19  C   UNL     1      -5.148   4.202  -3.388  0.00  0.00    +0.173 C 
BRANCH  19  20
ATOM     20  S   UNL     1      -3.461   3.973  -2.775  0.00  0.00    -0.076 S 
BRANCH  20  21
ATOM     21  C   UNL     1      -3.263   5.465  -1.858  0.00  0.00    +0.196 A 
ATOM     22  N   UNL     1      -4.155   6.417  -1.715  0.00  0.00    -0.122 NA
ATOM     23  N   UNL     1      -3.675   7.361  -0.988  0.00  0.00    -0.137 NA
ATOM     24  C   UNL     1      -2.459   7.070  -0.620  0.00  0.00    +0.230 A 
ATOM     25  N   UNL     1      -2.152   5.848  -1.158  0.00  0.00    -0.277 N 
BRANCH  25  26
ATOM     26  C   UNL     1      -0.949   5.141  -1.024  0.00  0.00    +0.051 A 
ATOM     27  C   UNL     1       0.262   5.775  -1.274  0.00  0.00    +0.026 A 
ATOM     28  C   UNL     1       1.446   5.077  -1.142  0.00  0.00    +0.007 A 
ATOM     29  C   UNL     1       1.428   3.748  -0.760  0.00  0.00    -0.032 A 
ATOM     30  C   UNL     1       0.224   3.113  -0.510  0.00  0.00    +0.046 A 
ATOM     31  C   UNL     1      -0.965   3.806  -0.647  0.00  0.00    +0.046 A 
ATOM     32 CL   UNL     1       0.205   1.445  -0.030  0.00  0.00    -0.083 Cl
ATOM     33  C   UNL     1       2.722   2.989  -0.616  0.00  0.00    +0.045 C 
ENDBRANCH  25  26
ENDBRANCH  20  21
ENDBRANCH  19  20
ENDBRANCH   2  19
TORSDOF 9
