REMARK  Name = ZINC09494901
REMARK  6 active torsions:
REMARK  status: ('A' for Active; 'I' for Inactive)
REMARK    1  A    between atoms: C_1  and  C_2
REMARK    2  A    between atoms: C_7  and  C_8
REMARK    3  A    between atoms: C_7  and  C_9
REMARK    4  A    between atoms: C_11  and  O_13
REMARK    5  A    between atoms: O_13  and  C_14
REMARK    6  A    between atoms: C_14  and  C_16
REMARK                            x       y       z     vdW  Elec       q    Type
REMARK                         _______ _______ _______ _____ _____    ______ ____
ROOT
ATOM      1  C   UNL     1      -0.306  -0.683  -4.778  0.00  0.00    +0.096 A 
ATOM      2  C   UNL     1      -0.838   0.428  -5.467  0.00  0.00    +0.061 A 
ATOM      3  C   UNL     1      -0.765   1.804  -5.210  0.00  0.00    +0.027 A 
ATOM      4  C   UNL     1      -1.386   2.678  -6.057  0.00  0.00    +0.003 A 
ATOM      5  C   UNL     1      -2.083   2.182  -7.165  0.00  0.00    +0.018 A 
ATOM      6  C   UNL     1      -2.140   0.848  -7.393  0.00  0.00    +0.092 A 
ATOM      7  N   UNL     1      -1.524  -0.030  -6.555  0.00  0.00    -0.312 N 
ATOM      8  C   UNL     1      -1.450  -1.408  -6.587  0.00  0.00    +0.106 A 
ATOM      9  C   UNL     1      -0.694  -1.834  -5.498  0.00  0.00    +0.066 A 
ATOM     10  C   UNL     1      -0.441  -3.273  -5.280  0.00  0.00    +0.197 C 
ATOM     11  O   UNL     1       0.216  -3.640  -4.326  0.00  0.00    -0.287 OA
ATOM     12  C   UNL     1      -0.993  -4.265  -6.228  0.00  0.00    +0.033 A 
ATOM     13  C   UNL     1      -0.766  -5.624  -6.039  0.00  0.00    +0.012 A 
ATOM     14  C   UNL     1      -1.290  -6.540  -6.935  0.00  0.00    +0.001 A 
ATOM     15  C   UNL     1      -2.037  -6.112  -8.018  0.00  0.00    +0.001 A 
ATOM     16  C   UNL     1      -2.270  -4.762  -8.219  0.00  0.00    +0.012 A 
ATOM     17  C   UNL     1      -1.752  -3.828  -7.327  0.00  0.00    +0.035 A 
ATOM     18  C   UNL     1      -2.001  -2.384  -7.525  0.00  0.00    +0.211 C 
ATOM     19  O   UNL     1      -2.657  -2.006  -8.479  0.00  0.00    -0.285 OA
ENDROOT
BRANCH   1  20
ATOM     20  C   UNL     1       0.500  -0.649  -3.553  0.00  0.00    +0.342 C 
ATOM     21  O   UNL     1       1.711  -0.568  -3.625  0.00  0.00    -0.245 OA
BRANCH  20  22
ATOM     22  O   UNL     1      -0.102  -0.707  -2.348  0.00  0.00    -0.457 OA
BRANCH  22  32
ATOM     23  C   UNL     1      -0.019   1.526   0.010  0.00  0.00    +0.015 C 
ATOM     24  C   UNL     1       0.002  -0.004   0.002  0.00  0.00    +0.010 C 
ATOM     25  C   UNL     1      -1.389  -0.705   0.062  0.00  0.00    +0.011 C 
ATOM     26  C   UNL     1      -1.084  -2.139   0.552  0.00  0.00    +0.005 C 
ATOM     27  C   UNL     1       0.463  -2.169   0.743  0.00  0.00    -0.001 C 
ATOM     28  C   UNL     1       0.727  -0.695   1.211  0.00  0.00    -0.023 C 
ATOM     29  C   UNL     1       0.042  -0.385   2.543  0.00  0.00    +0.012 C 
ATOM     30  C   UNL     1       2.220  -0.363   1.250  0.00  0.00    +0.012 C 
ATOM     31  C   UNL     1       1.035  -2.139  -0.708  0.00  0.00    +0.049 C 
ATOM     32  C   UNL     1       0.744  -0.669  -1.197  0.00  0.00    +0.183 C 
ENDBRANCH  22  32
ENDBRANCH  20  22
ENDBRANCH   1  20
TORSDOF 3
