REMARK  Name = ZINC67038091
REMARK  6 active torsions:
REMARK  status: ('A' for Active; 'I' for Inactive)
REMARK    1  A    between atoms: C_1  and  C_2
REMARK    2  A    between atoms: C_6  and  C_7
REMARK    3  A    between atoms: N_9  and  N_10
REMARK    4  A    between atoms: N_13  and  C_14
REMARK    5  A    between atoms: C_14  and  C_16
REMARK    6  A    between atoms: C_14  and  C_17
REMARK                            x       y       z     vdW  Elec       q    Type
REMARK                         _______ _______ _______ _____ _____    ______ ____
ROOT
ATOM      1  N   UNL     1       0.058  -0.732   4.900  0.00  0.00    -0.218 N 
ATOM      2  C   UNL     1       0.080  -1.625   5.909  0.00  0.00    +0.316 C 
ATOM      3  O   UNL     1       0.086  -1.239   7.062  0.00  0.00    -0.251 OA
ATOM      4  N   UNL     1       0.096  -2.945   5.640  0.00  0.00    -0.292 N 
ATOM      5  H   UNL     1       0.047   0.219   5.094  0.00  0.00    +0.174 HD
ATOM      6  H   UNL     1       0.091  -3.253   4.720  0.00  0.00    +0.151 HD
ENDROOT
BRANCH   1   9
ATOM      7  C   UNL     1       0.030  -0.283   2.562  0.00  0.00    +0.267 C 
ATOM      8  O   UNL     1       0.016   0.910   2.805  0.00  0.00    -0.268 OA
ATOM      9  N   UNL     1       0.052  -1.176   3.571  0.00  0.00    -0.229 N 
ATOM     10  H   UNL     1       0.063  -2.126   3.378  0.00  0.00    +0.173 HD
BRANCH   7  16
ATOM     11  C   UNL     1      -0.018   1.503   0.010  0.00  0.00    +0.045 C 
ATOM     12  C   UNL     1       0.002  -0.004   0.002  0.00  0.00    -0.031 A 
ATOM     13  C   UNL     1       0.007  -0.729  -1.166  0.00  0.00    +0.011 A 
ATOM     14  C   UNL     1       0.026  -2.083  -1.101  0.00  0.00    +0.046 A 
ATOM     15  S   UNL     1       0.038  -2.416   0.545  0.00  0.00    -0.092 S 
ATOM     16  C   UNL     1       0.023  -0.748   1.172  0.00  0.00    +0.078 A 
ENDBRANCH   7  16
ENDBRANCH   1   9
BRANCH   4  17
ATOM     17  C   UNL     1       0.119  -3.916   6.737  0.00  0.00    +0.103 C 
ATOM     18  C   UNL     1       1.564  -4.141   7.189  0.00  0.00    +0.033 C 
BRANCH  17  19
ATOM     19  C   UNL     1      -0.468  -5.221   6.265  0.00  0.00    -0.006 A 
ATOM     20  C   UNL     1      -0.441  -5.546   4.922  0.00  0.00    +0.046 A 
ATOM     21  C   UNL     1      -0.980  -6.744   4.488  0.00  0.00    +0.142 A 
ATOM     22  C   UNL     1      -1.547  -7.619   5.402  0.00  0.00    +0.077 A 
ATOM     23  C   UNL     1      -1.573  -7.293   6.745  0.00  0.00    +0.043 A 
ATOM     24  C   UNL     1      -1.029  -6.097   7.178  0.00  0.00    +0.047 A 
ATOM     25 CL   UNL     1      -1.057  -5.691   8.865  0.00  0.00    -0.083 Cl
ATOM     26 CL   UNL     1      -2.224  -9.123   4.859  0.00  0.00    -0.081 Cl
ATOM     27  F   UNL     1      -0.955  -7.061   3.175  0.00  0.00    -0.204 F 
ENDBRANCH  17  19
ENDBRANCH   4  17
TORSDOF 4
