REMARK  Name = ZINC39666103
REMARK  9 active torsions:
REMARK  status: ('A' for Active; 'I' for Inactive)
REMARK    1  A    between atoms: C_1  and  C_2
REMARK    2  A    between atoms: C_5  and  O_8
REMARK    3  A    between atoms: O_8  and  C_9
REMARK    4  A    between atoms: C_9  and  C_11
REMARK    5  A    between atoms: C_9  and  C_12
REMARK    6  A    between atoms: C_12  and  N_13
REMARK    7  A    between atoms: C_14  and  C_16
REMARK    8  A    between atoms: C_27  and  C_29
REMARK    9  A    between atoms: C_33  and  C_36
REMARK                            x       y       z     vdW  Elec       q    Type
REMARK                         _______ _______ _______ _____ _____    ______ ____
ROOT
ATOM      1  C   UNL     1      -3.890  -6.928  -0.092  0.00  0.00    +0.100 C 
ATOM      2  C   UNL     1      -3.846  -6.412  -1.548  0.00  0.00    +0.121 C 
ATOM      3  N   UNL     1      -3.911  -7.637  -2.380  0.00  0.00    -0.296 N 
ATOM      4  C   UNL     1      -4.879  -8.511  -1.676  0.00  0.00    +0.115 C 
ATOM      5  C   UNL     1      -4.571  -8.303  -0.180  0.00  0.00    -0.004 C 
ATOM      6  C   UNL     1      -3.628  -9.393   0.320  0.00  0.00    -0.010 C 
ATOM      7  C   UNL     1      -4.347 -10.744   0.276  0.00  0.00    -0.082 C 
ATOM      8  N   UNL     1      -5.550 -10.687   1.116  0.00  0.00    +0.379 N 
ATOM      9  C   UNL     1      -6.493  -9.701   0.575  0.00  0.00    -0.082 C 
ATOM     10  C   UNL     1      -5.864  -8.306   0.631  0.00  0.00    -0.010 C 
ATOM     11  C   UNL     1      -3.240  -7.897  -3.520  0.00  0.00    +0.252 C 
ATOM     12  O   UNL     1      -3.403  -8.958  -4.092  0.00  0.00    -0.270 OA
ATOM     13  H   UNL     1      -5.989 -11.596   1.134  0.00  0.00    -0.086 HD
ATOM     14  H   UNL     1      -5.291 -10.423   2.054  0.00  0.00    -0.086 HD
ENDROOT
BRANCH  11  15
ATOM     15  C   UNL     1      -2.310  -6.895  -4.074  0.00  0.00    +0.107 A 
ATOM     16  C   UNL     1      -0.962  -6.905  -3.701  0.00  0.00    +0.138 A 
ATOM     17  C   UNL     1      -0.097  -5.963  -4.224  0.00  0.00    +0.039 A 
ATOM     18  C   UNL     1      -0.561  -5.012  -5.115  0.00  0.00    +0.009 A 
ATOM     19  C   UNL     1      -1.892  -4.994  -5.489  0.00  0.00    -0.014 A 
ATOM     20  C   UNL     1      -2.769  -5.933  -4.980  0.00  0.00    +0.141 A 
ATOM     21  F   UNL     1      -4.068  -5.918  -5.351  0.00  0.00    -0.204 F 
ATOM     22  C   UNL     1      -2.386  -3.953  -6.460  0.00  0.00    +0.047 C 
ATOM     23  F   UNL     1      -0.506  -7.832  -2.830  0.00  0.00    -0.205 F 
ENDBRANCH  11  15
BRANCH   1  25
ATOM     24  N   UNL     1      -2.273  -6.941   1.780  0.00  0.00    -0.312 N 
ATOM     25  C   UNL     1      -2.493  -7.068   0.457  0.00  0.00    +0.218 C 
ATOM     26  O   UNL     1      -1.567  -7.294  -0.293  0.00  0.00    -0.275 OA
ATOM     27  H   UNL     1      -3.014  -6.760   2.380  0.00  0.00    +0.149 HD
BRANCH  24  28
ATOM     28  C   UNL     1      -0.916  -7.078   2.314  0.00  0.00    +0.148 C 
BRANCH  28  29
ATOM     29  C   UNL     1      -0.943  -6.891   3.832  0.00  0.00    +0.187 C 
ATOM     30  C   UNL     1       0.475  -7.034   4.389  0.00  0.00    +0.053 C 
BRANCH  29  31
ATOM     31  O   UNL     1      -1.449  -5.592   4.144  0.00  0.00    -0.488 OA
BRANCH  31  36
ATOM     32  C   UNL     1      -3.790  -4.907   9.220  0.00  0.00    +0.044 C 
ATOM     33  C   UNL     1      -3.164  -5.091   7.862  0.00  0.00    -0.050 A 
ATOM     34  C   UNL     1      -2.555  -6.289   7.539  0.00  0.00    +0.007 A 
ATOM     35  C   UNL     1      -1.980  -6.459   6.294  0.00  0.00    +0.046 A 
ATOM     36  C   UNL     1      -2.014  -5.427   5.368  0.00  0.00    +0.121 A 
ATOM     37  C   UNL     1      -2.627  -4.226   5.695  0.00  0.00    +0.046 A 
ATOM     38  C   UNL     1      -3.205  -4.062   6.939  0.00  0.00    +0.007 A 
ENDBRANCH  31  36
ENDBRANCH  29  31
ENDBRANCH  28  29
ENDBRANCH  24  28
ENDBRANCH   1  25
TORSDOF 6
