REMARK  Name = ZINC62655737
REMARK  7 active torsions:
REMARK  status: ('A' for Active; 'I' for Inactive)
REMARK    1  A    between atoms: C_1  and  C_2
REMARK    2  A    between atoms: C_4  and  C_11
REMARK    3  A    between atoms: C_5  and  C_10
REMARK    4  A    between atoms: N_6  and  C_7
REMARK    5  A    between atoms: C_11  and  C_13
REMARK    6  A    between atoms: C_13  and  N_14
REMARK    7  A    between atoms: C_18  and  C_21
REMARK                            x       y       z     vdW  Elec       q    Type
REMARK                         _______ _______ _______ _____ _____    ______ ____
ROOT
ATOM      1  C   UNL     1       0.096  -3.368  -1.463  0.00  0.00    +0.149 C 
ATOM      2  O   UNL     1       0.295  -4.450  -0.953  0.00  0.00    -0.294 OA
ENDROOT
BRANCH   1   6
ATOM      3  C   UNL     1      -0.304   1.483   0.043  0.00  0.00    +0.063 C 
ATOM      4  C   UNL     1      -0.124  -0.013   0.017  0.00  0.00    +0.017 A 
ATOM      5  C   UNL     1      -0.173  -0.783  -1.083  0.00  0.00    +0.034 A 
ATOM      6  C   UNL     1       0.056  -2.163  -0.632  0.00  0.00    +0.036 A 
ATOM      7  C   UNL     1       0.226  -2.089   0.738  0.00  0.00    +0.027 A 
ATOM      8  N   UNL     1       0.120  -0.800   1.105  0.00  0.00    -0.345 N 
ATOM      9  C   UNL     1       0.489  -3.252   1.659  0.00  0.00    +0.064 C 
BRANCH   8  10
ATOM     10  C   UNL     1       0.246  -0.309   2.479  0.00  0.00    +0.087 C 
ATOM     11  C   UNL     1       1.153   0.900   2.718  0.00  0.00    +0.027 C 
ATOM     12  C   UNL     1       1.597  -0.491   3.174  0.00  0.00    +0.027 C 
ENDBRANCH   8  10
ENDBRANCH   1   6
BRANCH   1  13
ATOM     13  C   UNL     1      -0.111  -3.263  -2.952  0.00  0.00    +0.002 C 
BRANCH  13  14
ATOM     14  N   UNL     1      -0.025  -4.601  -3.553  0.00  0.00    +0.385 N 
ATOM     15  C   UNL     1       1.333  -5.128  -3.377  0.00  0.00    -0.078 C 
ATOM     16  C   UNL     1       1.406  -6.554  -3.930  0.00  0.00    -0.018 C 
ATOM     17  C   UNL     1       1.052  -6.537  -5.420  0.00  0.00    -0.001 C 
ATOM     18  C   UNL     1      -0.336  -5.916  -5.598  0.00  0.00    -0.031 C 
ATOM     19  C   UNL     1      -0.345  -4.514  -4.983  0.00  0.00    -0.075 C 
ATOM     20  C   UNL     1      -0.667  -5.824  -7.088  0.00  0.00    +0.005 C 
ATOM     21  H   UNL     1      -0.684  -5.216  -3.099  0.00  0.00    -0.081 HD
ENDBRANCH  13  14
ENDBRANCH   1  13
TORSDOF 4
