REMARK  Name = ZINC43552322
REMARK  9 active torsions:
REMARK  status: ('A' for Active; 'I' for Inactive)
REMARK    1  A    between atoms: C_1  and  C_2
REMARK    2  A    between atoms: C_2  and  C_3
REMARK    3  A    between atoms: N_5  and  C_6
REMARK    4  A    between atoms: C_9  and  C_12
REMARK    5  A    between atoms: C_12  and  C_14
REMARK    6  A    between atoms: C_12  and  N_15
REMARK    7  A    between atoms: N_18  and  C_19
REMARK    8  A    between atoms: C_24  and  S_25
REMARK    9  A    between atoms: S_25  and  C_26
REMARK                            x       y       z     vdW  Elec       q    Type
REMARK                         _______ _______ _______ _____ _____    ______ ____
ROOT
ATOM      1  N   UNL     1       4.245  -4.606   5.981  0.00  0.00    -0.293 N 
ATOM      2  C   UNL     1       5.280  -4.853   6.808  0.00  0.00    +0.304 C 
ATOM      3  O   UNL     1       5.464  -4.144   7.779  0.00  0.00    -0.252 OA
ATOM      4  N   UNL     1       6.110  -5.885   6.559  0.00  0.00    -0.268 N 
ATOM      5  H   UNL     1       4.097  -5.171   5.206  0.00  0.00    +0.151 HD
ATOM      6  H   UNL     1       6.003  -6.409   5.750  0.00  0.00    +0.156 HD
ENDROOT
BRANCH   4   7
ATOM      7  C   UNL     1       7.128  -6.200   7.469  0.00  0.00    +0.048 A 
ATOM      8  C   UNL     1       7.771  -5.192   8.171  0.00  0.00    +0.024 A 
ATOM      9  C   UNL     1       8.775  -5.505   9.068  0.00  0.00    +0.002 A 
ATOM     10  C   UNL     1       9.143  -6.823   9.268  0.00  0.00    +0.001 A 
ATOM     11  C   UNL     1       8.508  -7.835   8.574  0.00  0.00    +0.017 A 
ATOM     12  C   UNL     1       7.495  -7.530   7.676  0.00  0.00    +0.034 A 
BRANCH  12  13
ATOM     13  S   UNL     1       6.678  -8.819   6.794  0.00  0.00    -0.054 S 
BRANCH  13  14
ATOM     14  C   UNL     1       7.482 -10.334   7.387  0.00  0.00    +0.404 C 
ATOM     15  F   UNL     1       8.849 -10.280   7.096  0.00  0.00    -0.197 F 
ATOM     16  F   UNL     1       7.303 -10.446   8.770  0.00  0.00    -0.197 F 
ENDBRANCH  13  14
ENDBRANCH  12  13
ENDBRANCH   4   7
BRANCH   1  17
ATOM     17  C   UNL     1       3.342  -3.484   6.251  0.00  0.00    +0.102 C 
ATOM     18  C   UNL     1       2.259  -3.927   7.237  0.00  0.00    +0.033 C 
BRANCH  17  22
ATOM     19  C   UNL     1       1.516  -2.213   2.602  0.00  0.00    +0.033 A 
ATOM     20  C   UNL     1       1.931  -1.274   3.537  0.00  0.00    +0.023 A 
ATOM     21  C   UNL     1       2.521  -1.688   4.715  0.00  0.00    +0.007 A 
ATOM     22  C   UNL     1       2.698  -3.036   4.965  0.00  0.00    -0.027 A 
ATOM     23  C   UNL     1       2.286  -3.974   4.036  0.00  0.00    +0.007 A 
ATOM     24  C   UNL     1       1.690  -3.567   2.859  0.00  0.00    +0.023 A 
BRANCH  19  27
ATOM     25  C   UNL     1      -0.071  -2.530   0.858  0.00  0.00    +0.217 C 
ATOM     26  O   UNL     1      -0.387  -3.591   1.353  0.00  0.00    -0.275 OA
ATOM     27  N   UNL     1       0.918  -1.797   1.408  0.00  0.00    -0.286 N 
ATOM     28  H   UNL     1       1.215  -0.982   0.975  0.00  0.00    +0.155 HD
BRANCH  25  30
ATOM     29  C   UNL     1      -1.854  -3.042  -0.787  0.00  0.00    +0.013 C 
ATOM     30  C   UNL     1      -0.785  -2.030  -0.371  0.00  0.00    +0.093 C 
ENDBRANCH  25  30
ENDBRANCH  19  27
ENDBRANCH  17  22
ENDBRANCH   1  17
TORSDOF 7
