REMARK  Name = ZINC04626073
REMARK  11 active torsions:
REMARK  status: ('A' for Active; 'I' for Inactive)
REMARK    1  A    between atoms: C_4  and  C_7
REMARK    2  A    between atoms: C_9  and  C_21
REMARK    3  A    between atoms: C_10  and  O_20
REMARK    4  A    between atoms: N_13  and  C_14
REMARK    5  A    between atoms: C_14  and  C_15
REMARK    6  A    between atoms: C_15  and  C_16
REMARK    7  A    between atoms: C_16  and  N_51
REMARK    8  A    between atoms: C_17  and  C_18
REMARK    9  A    between atoms: C_17  and  N_51
REMARK   10  A    between atoms: C_18  and  O_19
REMARK   11  A    between atoms: C_21  and  C_23
REMARK                            x       y       z     vdW  Elec       q    Type
REMARK                         _______ _______ _______ _____ _____    ______ ____
ROOT
ATOM      1  C   UNL     1       0.995   2.216   3.642  0.00  0.00    +0.144 C 
ATOM      2  C   UNL     1       1.395   0.959   4.378  0.00  0.00    +0.071 C 
ATOM      3  C   UNL     1       0.681  -0.055   3.835  0.00  0.00    +0.188 C 
ATOM      4  C   UNL     1      -0.188   0.481   2.765  0.00  0.00    +0.282 C 
ATOM      5  O   UNL     1      -0.953  -0.180   2.092  0.00  0.00    -0.267 OA
ATOM      6  N   UNL     1      -0.003   1.808   2.646  0.00  0.00    -0.284 N 
ENDROOT
BRANCH   1  10
ATOM      7  C   UNL     1      -0.716   5.030   6.363  0.00  0.00    +0.000 A 
ATOM      8  C   UNL     1       0.559   5.234   5.869  0.00  0.00    +0.000 A 
ATOM      9  C   UNL     1       1.113   4.323   4.988  0.00  0.00    +0.006 A 
ATOM     10  C   UNL     1       0.391   3.209   4.602  0.00  0.00    -0.022 A 
ATOM     11  C   UNL     1      -0.885   3.008   5.092  0.00  0.00    +0.006 A 
ATOM     12  C   UNL     1      -1.437   3.917   5.976  0.00  0.00    +0.000 A 
ENDBRANCH   1  10
BRANCH   3  13
ATOM     13  O   UNL     1       0.747  -1.351   4.216  0.00  0.00    -0.502 OA
ATOM     14  H   UNL     1       0.120  -1.895   3.657  0.00  0.00    +0.292 HD
ENDBRANCH   3  13
BRANCH   2  15
ATOM     15  C   UNL     1       2.368   0.857   5.469  0.00  0.00    +0.195 C 
ATOM     16  O   UNL     1       2.005   0.510   6.577  0.00  0.00    -0.287 OA
BRANCH  15  17
ATOM     17  C   UNL     1       3.791   1.175   5.223  0.00  0.00    +0.022 A 
ATOM     18  C   UNL     1       4.233   1.454   3.928  0.00  0.00    +0.012 A 
ATOM     19  C   UNL     1       5.561   1.754   3.707  0.00  0.00    +0.001 A 
ATOM     20  C   UNL     1       6.456   1.771   4.762  0.00  0.00    +0.000 A 
ATOM     21  C   UNL     1       6.025   1.490   6.047  0.00  0.00    +0.001 A 
ATOM     22  C   UNL     1       4.699   1.193   6.284  0.00  0.00    +0.012 A 
ENDBRANCH  15  17
ENDBRANCH   2  15
BRANCH   6  23
ATOM     23  C   UNL     1      -0.681   2.690   1.693  0.00  0.00    +0.107 C 
BRANCH  23  24
ATOM     24  C   UNL     1       0.135   2.770   0.401  0.00  0.00    -0.000 C 
BRANCH  24  25
ATOM     25  C   UNL     1      -0.574   3.692  -0.594  0.00  0.00    -0.081 C 
BRANCH  25  26
ATOM     26  N   UNL     1       0.219   3.763  -1.835  0.00  0.00    +0.381 N 
ATOM     27  H   UNL     1       0.309   2.822  -2.235  0.00  0.00    -0.086 HD
ATOM     28  H   UNL     1       1.153   4.134  -1.621  0.00  0.00    -0.086 HD
BRANCH  26  29
ATOM     29  C   UNL     1      -0.442   4.647  -2.815  0.00  0.00    -0.054 C 
BRANCH  29  30
ATOM     30  C   UNL     1       0.402   4.701  -4.090  0.00  0.00    +0.137 C 
BRANCH  30  31
ATOM     31  O   UNL     1       0.429   3.409  -4.699  0.00  0.00    -0.397 OA
ATOM     32  H   UNL     1       0.947   3.369  -5.514  0.00  0.00    +0.209 HD
ENDBRANCH  30  31
ENDBRANCH  29  30
ENDBRANCH  26  29
ENDBRANCH  25  26
ENDBRANCH  24  25
ENDBRANCH  23  24
ENDBRANCH   6  23
TORSDOF 11
