REMARK  Name = ZINC15072947
REMARK  12 active torsions:
REMARK  status: ('A' for Active; 'I' for Inactive)
REMARK    1  A    between atoms: C_1  and  C_2
REMARK    2  A    between atoms: C_2  and  O_3
REMARK    3  A    between atoms: O_3  and  C_4
REMARK    4  A    between atoms: C_8  and  C_11
REMARK    5  A    between atoms: C_9  and  O_10
REMARK    6  A    between atoms: C_11  and  N_65
REMARK    7  A    between atoms: C_14  and  C_17
REMARK    8  A    between atoms: C_20  and  S_25
REMARK    9  A    between atoms: N_21  and  C_22
REMARK   10  A    between atoms: C_22  and  C_23
REMARK   11  A    between atoms: S_25  and  C_26
REMARK   12  A    between atoms: C_26  and  C_27
REMARK                            x       y       z     vdW  Elec       q    Type
REMARK                         _______ _______ _______ _____ _____    ______ ____
ROOT
ATOM      1  C   UNL     1      -4.927  -2.755  -1.888  0.00  0.00    -0.078 C 
ATOM      2  C   UNL     1      -5.339  -2.661  -3.359  0.00  0.00    -0.008 C 
ATOM      3  C   UNL     1      -6.707  -3.323  -3.545  0.00  0.00    +0.054 C 
ATOM      4  C   UNL     1      -6.630  -4.777  -3.072  0.00  0.00    -0.008 C 
ATOM      5  C   UNL     1      -6.181  -4.810  -1.609  0.00  0.00    -0.078 C 
ATOM      6  N   UNL     1      -4.848  -4.180  -1.503  0.00  0.00    +0.382 N 
ATOM      7  H   UNL     1      -4.200  -4.662  -2.138  0.00  0.00    -0.081 HD
ENDROOT
BRANCH   3   8
ATOM      8  C   UNL     1      -7.091  -3.286  -5.001  0.00  0.00    +0.137 A 
ATOM      9  N   UNL     1      -6.429  -3.821  -5.988  0.00  0.00    -0.133 NA
ATOM     10  N   UNL     1      -7.038  -3.602  -7.098  0.00  0.00    -0.122 NA
ATOM     11  C   UNL     1      -8.131  -2.909  -6.878  0.00  0.00    +0.192 A 
ATOM     12  N   UNL     1      -8.202  -2.690  -5.532  0.00  0.00    -0.302 N 
BRANCH  12  13
ATOM     13  C   UNL     1      -9.248  -1.965  -4.807  0.00  0.00    +0.152 C 
BRANCH  13  14
ATOM     14  C   UNL     1      -8.880  -0.506  -4.720  0.00  0.00    -0.013 C 
ATOM     15  C   UNL     1      -9.714   0.406  -5.155  0.00  0.00    +0.005 C 
ENDBRANCH  13  14
ENDBRANCH  12  13
BRANCH  11  16
ATOM     16  S   UNL     1      -9.291  -2.369  -8.089  0.00  0.00    -0.081 S 
BRANCH  16  17
ATOM     17  C   UNL     1      -8.520  -3.038  -9.584  0.00  0.00    +0.112 C 
BRANCH  17  18
ATOM     18  C   UNL     1      -9.363  -2.689 -10.783  0.00  0.00    -0.036 A 
ATOM     19  C   UNL     1      -9.133  -1.512 -11.471  0.00  0.00    +0.004 A 
ATOM     20  C   UNL     1      -9.905  -1.191 -12.572  0.00  0.00    +0.002 A 
ATOM     21  C   UNL     1     -10.908  -2.048 -12.986  0.00  0.00    +0.020 A 
ATOM     22  C   UNL     1     -11.139  -3.226 -12.298  0.00  0.00    +0.041 A 
ATOM     23  C   UNL     1     -10.362  -3.549 -11.199  0.00  0.00    +0.024 A 
ATOM     24 CL   UNL     1     -12.398  -4.302 -12.818  0.00  0.00    -0.084 Cl
ENDBRANCH  17  18
ENDBRANCH  16  17
ENDBRANCH  11  16
ENDBRANCH   3   8
BRANCH   6  25
ATOM     25  C   UNL     1      -4.342  -4.302  -0.120  0.00  0.00    -0.039 C 
BRANCH  25  30
ATOM     26  C   UNL     1      -0.604  -4.622  -0.627  0.00  0.00    +0.162 A 
ATOM     27  C   UNL     1      -0.156  -3.418  -0.107  0.00  0.00    +0.049 A 
ATOM     28  C   UNL     1      -1.060  -2.507   0.406  0.00  0.00    +0.004 A 
ATOM     29  C   UNL     1      -2.413  -2.794   0.402  0.00  0.00    +0.005 A 
ATOM     30  C   UNL     1      -2.867  -3.993  -0.116  0.00  0.00    -0.019 A 
ATOM     31  C   UNL     1      -1.966  -4.908  -0.637  0.00  0.00    +0.160 A 
BRANCH  31  32
ATOM     32  O   UNL     1      -2.411  -6.085  -1.152  0.00  0.00    -0.503 OA
ATOM     33  H   UNL     1      -2.486  -6.796  -0.501  0.00  0.00    +0.292 HD
ENDBRANCH  31  32
BRANCH  26  34
ATOM     34  O   UNL     1       0.284  -5.519  -1.133  0.00  0.00    -0.489 OA
BRANCH  34  36
ATOM     35  C   UNL     1       2.506  -6.281  -1.702  0.00  0.00    +0.048 C 
ATOM     36  C   UNL     1       1.666  -5.155  -1.095  0.00  0.00    +0.226 C 
ENDBRANCH  34  36
ENDBRANCH  26  34
ENDBRANCH  25  30
ENDBRANCH   6  25
TORSDOF 11
