REMARK  Name = ZINC39967085
REMARK  11 active torsions:
REMARK  status: ('A' for Active; 'I' for Inactive)
REMARK    1  A    between atoms: C_1  and  C_2
REMARK    2  A    between atoms: C_3  and  C_33
REMARK    3  A    between atoms: C_5  and  N_10
REMARK    4  A    between atoms: C_6  and  C_7
REMARK    5  A    between atoms: C_11  and  C_13
REMARK    6  A    between atoms: C_13  and  S_14
REMARK    7  A    between atoms: S_14  and  C_15
REMARK    8  A    between atoms: C_18  and  C_21
REMARK    9  A    between atoms: N_19  and  C_20
REMARK   10  A    between atoms: C_24  and  O_27
REMARK   11  A    between atoms: O_27  and  C_28
REMARK                            x       y       z     vdW  Elec       q    Type
REMARK                         _______ _______ _______ _____ _____    ______ ____
ROOT
ATOM      1  S   UNL     1       0.250  -7.837   2.456  0.00  0.00    -0.077 S 
ENDROOT
BRANCH   1   2
ATOM      2  C   UNL     1       0.319  -8.794   3.934  0.00  0.00    +0.192 A 
ATOM      3  N   UNL     1       0.376  -8.329   5.161  0.00  0.00    -0.122 NA
ATOM      4  N   UNL     1       0.414  -9.301   6.000  0.00  0.00    -0.128 NA
ATOM      5  C   UNL     1       0.384 -10.447   5.361  0.00  0.00    +0.165 A 
ATOM      6  N   UNL     1       0.316 -10.158   4.018  0.00  0.00    -0.305 N 
ATOM      7  C   UNL     1       0.256 -11.113   2.908  0.00  0.00    +0.153 C 
BRANCH   5   8
ATOM      8  C   UNL     1       0.412 -11.794   5.969  0.00  0.00    +0.019 A 
ATOM      9  C   UNL     1       0.757 -12.904   5.196  0.00  0.00    +0.015 A 
ATOM     10  C   UNL     1       0.782 -14.158   5.767  0.00  0.00    +0.046 A 
ATOM     11  C   UNL     1       0.465 -14.318   7.110  0.00  0.00    +0.121 A 
ATOM     12  C   UNL     1       0.121 -13.217   7.882  0.00  0.00    +0.046 A 
ATOM     13  C   UNL     1       0.099 -11.958   7.320  0.00  0.00    +0.015 A 
BRANCH  11  14
ATOM     14  O   UNL     1       0.490 -15.556   7.669  0.00  0.00    -0.489 OA
BRANCH  14  15
ATOM     15  C   UNL     1       0.927 -16.634   6.839  0.00  0.00    +0.173 C 
ATOM     16  C   UNL     1       2.466 -16.790   6.920  0.00  0.00    +0.044 C 
ATOM     17  C   UNL     1       2.682 -18.268   6.511  0.00  0.00    +0.004 C 
ATOM     18  C   UNL     1       1.498 -19.017   7.158  0.00  0.00    +0.004 C 
ATOM     19  C   UNL     1       0.383 -17.978   7.367  0.00  0.00    +0.044 C 
ENDBRANCH  14  15
ENDBRANCH  11  14
ENDBRANCH   5   8
ENDBRANCH   1   2
BRANCH   1  20
ATOM     20  C   UNL     1       0.288  -6.121   3.041  0.00  0.00    +0.173 C 
BRANCH  20  22
ATOM     21  N   UNL     1       0.250  -3.852   2.056  0.00  0.00    -0.279 N 
ATOM     22  C   UNL     1       0.234  -5.186   1.861  0.00  0.00    +0.228 C 
ATOM     23  O   UNL     1       0.175  -5.633   0.735  0.00  0.00    -0.275 OA
ATOM     24  H   UNL     1       0.297  -3.495   2.956  0.00  0.00    +0.155 HD
BRANCH  21  29
ATOM     25  C   UNL     1       0.149   0.552  -0.441  0.00  0.00    +0.045 C 
ATOM     26  C   UNL     1       0.148  -0.949  -0.307  0.00  0.00    -0.027 A 
ATOM     27  C   UNL     1       0.090  -1.763  -1.378  0.00  0.00    -0.008 A 
ATOM     28  S   UNL     1       0.117  -3.390  -0.658  0.00  0.00    -0.078 S 
ATOM     29  C   UNL     1       0.201  -2.992   0.970  0.00  0.00    +0.084 A 
ATOM     30  C   UNL     1       0.215  -1.605   0.979  0.00  0.00    +0.068 A 
ATOM     31  C   UNL     1       0.018  -1.386  -2.835  0.00  0.00    +0.052 C 
BRANCH  30  32
ATOM     32  C   UNL     1       0.288  -0.843   2.230  0.00  0.00    +0.244 C 
ATOM     33  O   UNL     1      -0.734  -0.521   2.807  0.00  0.00    -0.270 OA
ATOM     34  N   UNL     1       1.487  -0.500   2.740  0.00  0.00    -0.325 N 
ATOM     35  H   UNL     1       2.302  -0.757   2.280  0.00  0.00    +0.145 HD
ATOM     36  H   UNL     1       1.536   0.004   3.568  0.00  0.00    +0.145 HD
ENDBRANCH  30  32
ENDBRANCH  21  29
ENDBRANCH  20  22
ENDBRANCH   1  20
TORSDOF 8
