REMARK  Name = ZINC66595777
REMARK  7 active torsions:
REMARK  status: ('A' for Active; 'I' for Inactive)
REMARK    1  A    between atoms: C_1  and  C_2
REMARK    2  A    between atoms: C_3  and  C_7
REMARK    3  A    between atoms: C_7  and  N_8
REMARK    4  A    between atoms: N_8  and  C_9
REMARK    5  A    between atoms: N_12  and  C_13
REMARK    6  A    between atoms: C_13  and  C_15
REMARK    7  A    between atoms: C_13  and  C_16
REMARK                            x       y       z     vdW  Elec       q    Type
REMARK                         _______ _______ _______ _____ _____    ______ ____
ROOT
ATOM      1  N   UNL     1       0.999   0.417  -3.539  0.00  0.00    -0.284 N 
ATOM      2  C   UNL     1       1.585  -0.730  -4.238  0.00  0.00    +0.134 C 
ATOM      3  C   UNL     1       1.773   1.466  -3.200  0.00  0.00    +0.303 C 
ATOM      4  O   UNL     1       1.287   2.418  -2.619  0.00  0.00    -0.253 OA
ATOM      5  N   UNL     1       3.086   1.462  -3.504  0.00  0.00    -0.293 N 
ATOM      6  H   UNL     1       3.474   0.702  -3.967  0.00  0.00    +0.151 HD
ENDROOT
BRANCH   5   7
ATOM      7  C   UNL     1       3.928   2.603  -3.135  0.00  0.00    +0.103 C 
ATOM      8  C   UNL     1       4.458   2.407  -1.713  0.00  0.00    +0.033 C 
BRANCH   7   9
ATOM      9  C   UNL     1       5.087   2.702  -4.094  0.00  0.00    -0.014 A 
ATOM     10  C   UNL     1       5.555   1.569  -4.733  0.00  0.00    +0.006 A 
ATOM     11  C   UNL     1       6.618   1.661  -5.612  0.00  0.00    +0.000 A 
ATOM     12  C   UNL     1       7.212   2.885  -5.853  0.00  0.00    +0.001 A 
ATOM     13  C   UNL     1       6.745   4.019  -5.215  0.00  0.00    +0.015 A 
ATOM     14  C   UNL     1       5.678   3.928  -4.339  0.00  0.00    +0.023 A 
ATOM     15 BR   UNL     1       5.033   5.480  -3.470  0.00  0.00    -0.050 Br
ENDBRANCH   7   9
ENDBRANCH   5   7
BRANCH   1  16
ATOM     16  C   UNL     1      -0.428   0.422  -3.208  0.00  0.00    +0.153 C 
BRANCH  16  19
ATOM     17  C   UNL     1      -0.432   1.881  -0.461  0.00  0.00    +0.066 C 
ATOM     18  C   UNL     1      -0.641   0.398  -0.623  0.00  0.00    +0.050 A 
ATOM     19  C   UNL     1      -0.630  -0.191  -1.847  0.00  0.00    +0.029 A 
ATOM     20  S   UNL     1      -0.922  -1.894  -1.395  0.00  0.00    -0.079 S 
ATOM     21  C   UNL     1      -1.025  -1.676   0.271  0.00  0.00    +0.156 A 
ATOM     22  N   UNL     1      -0.838  -0.388   0.416  0.00  0.00    -0.252 NA
ENDBRANCH  16  19
ENDBRANCH   1  16
TORSDOF 4
