REMARK  Name = ZINC45813447
REMARK  16 active torsions:
REMARK  status: ('A' for Active; 'I' for Inactive)
REMARK    1  A    between atoms: C_1  and  C_2
REMARK    2  A    between atoms: C_2  and  C_3
REMARK    3  A    between atoms: C_2  and  C_4
REMARK    4  A    between atoms: C_4  and  C_6
REMARK    5  A    between atoms: C_4  and  N_13
REMARK    6  A    between atoms: N_8  and  C_9
REMARK    7  A    between atoms: C_9  and  C_10
REMARK    8  A    between atoms: C_9  and  C_11
REMARK    9  A    between atoms: C_9  and  C_12
REMARK   10  A    between atoms: N_13  and  C_14
REMARK   11  A    between atoms: C_14  and  C_15
REMARK   12  A    between atoms: C_19  and  S_21
REMARK   13  A    between atoms: S_21  and  N_24
REMARK   14  A    between atoms: N_24  and  C_25
REMARK   15  A    between atoms: C_25  and  C_26
REMARK   16  A    between atoms: C_25  and  C_27
REMARK                            x       y       z     vdW  Elec       q    Type
REMARK                         _______ _______ _______ _____ _____    ______ ____
ROOT
ATOM      1  N   UNL     1      -2.396  -0.212  -1.060  0.00  0.00    +0.389 N 
ATOM      2  H   UNL     1      -2.079  -0.534  -1.962  0.00  0.00    -0.084 HD
ATOM      3  H   UNL     1      -3.292  -0.625  -0.851  0.00  0.00    -0.084 HD
ENDROOT
BRANCH   1   4
ATOM      4  C   UNL     1      -1.424  -0.606  -0.031  0.00  0.00    +0.019 C 
BRANCH   4   5
ATOM      5  C   UNL     1      -1.409  -2.108   0.097  0.00  0.00    +0.200 C 
ATOM      6  O   UNL     1      -1.965  -2.793  -0.735  0.00  0.00    -0.278 OA
ATOM      7  N   UNL     1      -0.779  -2.689   1.137  0.00  0.00    -0.312 N 
ATOM      8  H   UNL     1      -0.384  -2.141   1.833  0.00  0.00    +0.149 HD
BRANCH   7   9
ATOM      9  C   UNL     1      -0.688  -4.149   1.216  0.00  0.00    +0.026 C 
ATOM     10  C   UNL     1       0.054  -4.681  -0.012  0.00  0.00    +0.031 C 
ATOM     11  C   UNL     1       0.071  -4.546   2.483  0.00  0.00    +0.031 C 
ATOM     12  C   UNL     1      -2.097  -4.745   1.257  0.00  0.00    +0.031 C 
ENDBRANCH   7   9
ENDBRANCH   4   5
BRANCH   4  14
ATOM     13  C   UNL     1       0.952  -0.386   0.711  0.00  0.00    +0.006 C 
ATOM     14  C   UNL     1      -0.031  -0.115  -0.430  0.00  0.00    -0.023 C 
ATOM     15  C   UNL     1       0.430  -0.854  -1.687  0.00  0.00    +0.006 C 
ENDBRANCH   4  14
ENDBRANCH   1   4
BRANCH   1  16
ATOM     16  C   UNL     1      -2.523   1.251  -1.079  0.00  0.00    -0.046 C 
BRANCH  16  17
ATOM     17  C   UNL     1      -3.619   1.648  -2.033  0.00  0.00    -0.063 A 
ATOM     18  C   UNL     1      -3.326   1.882  -3.364  0.00  0.00    +0.002 A 
ATOM     19  C   UNL     1      -4.332   2.246  -4.239  0.00  0.00    +0.002 A 
ATOM     20  C   UNL     1      -5.631   2.375  -3.784  0.00  0.00    +0.028 A 
ATOM     21  C   UNL     1      -5.924   2.140  -2.454  0.00  0.00    +0.105 A 
ATOM     22  C   UNL     1      -4.919   1.772  -1.580  0.00  0.00    +0.030 A 
BRANCH  21  23
ATOM     23  S   UNL     1      -7.580   2.306  -1.875  0.00  0.00    +0.059 S 
ATOM     24  O   UNL     1      -7.498   2.562  -0.479  0.00  0.00    -0.153 OA
ATOM     25  O   UNL     1      -8.239   3.187  -2.774  0.00  0.00    -0.153 OA
BRANCH  23  26
ATOM     26  N   UNL     1      -8.307   0.827  -2.042  0.00  0.00    -0.187 NA
ATOM     27  H   UNL     1      -9.048   0.718  -2.659  0.00  0.00    +0.148 HD
BRANCH  26  28
ATOM     28  C   UNL     1      -7.832  -0.316  -1.258  0.00  0.00    +0.070 C 
ATOM     29  C   UNL     1      -8.677  -0.451   0.010  0.00  0.00    +0.025 C 
ATOM     30  C   UNL     1      -7.956  -1.593  -2.091  0.00  0.00    +0.025 C 
ENDBRANCH  26  28
ENDBRANCH  23  26
ENDBRANCH  21  23
ENDBRANCH  16  17
ENDBRANCH   1  16
TORSDOF 9
