REMARK  Name = ZINC46813118
REMARK  6 active torsions:
REMARK  status: ('A' for Active; 'I' for Inactive)
REMARK    1  A    between atoms: C_1  and  C_2
REMARK    2  A    between atoms: C_2  and  C_4
REMARK    3  A    between atoms: C_7  and  S_10
REMARK    4  A    between atoms: S_10  and  N_13
REMARK    5  A    between atoms: C_19  and  C_21
REMARK    6  A    between atoms: C_21  and  C_22
REMARK                            x       y       z     vdW  Elec       q    Type
REMARK                         _______ _______ _______ _____ _____    ______ ____
ROOT
ATOM      1  N   UNL     1      -5.588  -3.325  -1.546  0.00  0.00    -0.174 NA
ATOM      2  C   UNL     1      -6.425  -2.347  -2.255  0.00  0.00    +0.128 C 
ATOM      3  C   UNL     1      -5.695  -1.911  -3.532  0.00  0.00    +0.125 C 
ATOM      4  N   UNL     1      -5.247  -3.113  -4.250  0.00  0.00    -0.299 N 
ATOM      5  C   UNL     1      -4.410  -4.091  -3.541  0.00  0.00    +0.125 C 
ATOM      6  C   UNL     1      -5.135  -4.523  -2.266  0.00  0.00    +0.128 C 
ATOM      7  C   UNL     1      -5.598  -3.315  -5.535  0.00  0.00    +0.220 C 
ATOM      8  O   UNL     1      -6.290  -2.501  -6.110  0.00  0.00    -0.275 OA
ENDROOT
BRANCH   1   9
ATOM      9  S   UNL     1      -5.156  -3.076   0.033  0.00  0.00    +0.061 S 
ATOM     10  O   UNL     1      -4.864  -4.355   0.580  0.00  0.00    -0.153 OA
ATOM     11  O   UNL     1      -6.138  -2.215   0.592  0.00  0.00    -0.153 OA
BRANCH   9  15
ATOM     12  C   UNL     1      -1.262  -0.757   0.010  0.00  0.00    +0.017 A 
ATOM     13  C   UNL     1      -2.485  -0.078   0.019  0.00  0.00    +0.013 A 
ATOM     14  C   UNL     1      -3.665  -0.791   0.026  0.00  0.00    +0.029 A 
ATOM     15  C   UNL     1      -3.642  -2.175   0.024  0.00  0.00    +0.106 A 
ATOM     16  C   UNL     1      -2.436  -2.854   0.015  0.00  0.00    +0.029 A 
ATOM     17  C   UNL     1      -1.248  -2.156   0.002  0.00  0.00    +0.013 A 
BRANCH  12  19
ATOM     18  C   UNL     1      -0.018   1.503   0.010  0.00  0.00    +0.091 C 
ATOM     19  C   UNL     1       0.002  -0.004   0.002  0.00  0.00    +0.160 C 
ATOM     20  O   UNL     1       1.060  -0.596  -0.011  0.00  0.00    -0.292 OA
ENDBRANCH  12  19
ENDBRANCH   9  15
ENDBRANCH   1   9
BRANCH   7  21
ATOM     21  C   UNL     1      -5.132  -4.552  -6.259  0.00  0.00    +0.136 C 
BRANCH  21  22
ATOM     22  C   UNL     1      -5.658  -4.537  -7.671  0.00  0.00    +0.026 A 
ATOM     23  C   UNL     1      -4.883  -4.056  -8.675  0.00  0.00    +0.019 A 
ATOM     24  C   UNL     1      -5.424  -4.056 -10.036  0.00  0.00    -0.001 A 
ATOM     25  C   UNL     1      -4.672  -3.573 -11.112  0.00  0.00    +0.010 A 
ATOM     26  C   UNL     1      -5.205  -3.587 -12.370  0.00  0.00    +0.001 A 
ATOM     27  C   UNL     1      -6.486  -4.075 -12.589  0.00  0.00    +0.002 A 
ATOM     28  C   UNL     1      -7.245  -4.555 -11.544  0.00  0.00    +0.026 A 
ATOM     29  C   UNL     1      -6.723  -4.552 -10.254  0.00  0.00    +0.049 A 
ATOM     30  N   UNL     1      -7.459  -5.027  -9.190  0.00  0.00    -0.322 N 
ATOM     31  H   UNL     1      -8.354  -5.368  -9.342  0.00  0.00    +0.169 HD
ATOM     32  C   UNL     1      -6.952  -5.028  -7.944  0.00  0.00    +0.253 A 
ATOM     33  O   UNL     1      -7.630  -5.460  -7.028  0.00  0.00    -0.268 OA
ENDBRANCH  21  22
ENDBRANCH   7  21
TORSDOF 5
