REMARK  Name = ZINC32945209
REMARK  11 active torsions:
REMARK  status: ('A' for Active; 'I' for Inactive)
REMARK    1  A    between atoms: C_1  and  N_2
REMARK    2  A    between atoms: N_2  and  C_3
REMARK    3  A    between atoms: N_2  and  C_4
REMARK    4  A    between atoms: C_4  and  C_6
REMARK    5  A    between atoms: C_4  and  C_30
REMARK    6  A    between atoms: C_6  and  N_7
REMARK    7  A    between atoms: C_8  and  C_10
REMARK    8  A    between atoms: C_10  and  S_11
REMARK    9  A    between atoms: S_11  and  C_12
REMARK   10  A    between atoms: N_22  and  C_23
REMARK   11  A    between atoms: C_23  and  C_24
REMARK                            x       y       z     vdW  Elec       q    Type
REMARK                         _______ _______ _______ _____ _____    ______ ____
ROOT
ATOM      1  S   UNL     1      -0.194  -1.087   1.052  0.00  0.00    -0.078 S 
ENDROOT
BRANCH   1   2
ATOM      2  C   UNL     1       1.388  -0.440   0.625  0.00  0.00    +0.173 A 
ATOM      3  N   UNL     1       2.249  -1.234   0.036  0.00  0.00    -0.223 NA
ATOM      4  C   UNL     1       3.481  -0.801  -0.319  0.00  0.00    +0.080 A 
ATOM      5  C   UNL     1       4.401  -1.646  -0.946  0.00  0.00    +0.048 A 
ATOM      6  C   UNL     1       5.644  -1.161  -1.290  0.00  0.00    +0.043 A 
ATOM      7  C   UNL     1       5.993   0.158  -1.020  0.00  0.00    +0.021 A 
ATOM      8  C   UNL     1       5.110   1.003  -0.408  0.00  0.00    +0.017 A 
ATOM      9  C   UNL     1       3.846   0.538  -0.049  0.00  0.00    +0.065 A 
ATOM     10  C   UNL     1       2.860   1.405   0.611  0.00  0.00    +0.263 A 
ATOM     11  O   UNL     1       3.115   2.567   0.869  0.00  0.00    -0.267 OA
ATOM     12  N   UNL     1       1.659   0.865   0.921  0.00  0.00    -0.280 N 
ATOM     13 CL   UNL     1       6.788  -2.209  -2.068  0.00  0.00    -0.083 Cl
BRANCH  12  14
ATOM     14  C   UNL     1       0.639   1.688   1.575  0.00  0.00    +0.201 C 
BRANCH  14  15
ATOM     15  C   UNL     1       0.787   1.579   3.070  0.00  0.00    +0.125 A 
ATOM     16  C   UNL     1       1.553   2.368   3.845  0.00  0.00    +0.046 A 
ATOM     17  C   UNL     1       1.393   1.916   5.175  0.00  0.00    +0.041 A 
ATOM     18  C   UNL     1       0.546   0.872   5.132  0.00  0.00    +0.195 A 
ATOM     19  O   UNL     1       0.183   0.672   3.855  0.00  0.00    -0.466 OA
ENDBRANCH  14  15
ENDBRANCH  12  14
ENDBRANCH   1   2
BRANCH   1  20
ATOM     20  C   UNL     1      -0.011  -2.786   0.454  0.00  0.00    +0.173 C 
BRANCH  20  22
ATOM     21  N   UNL     1      -1.377  -4.846   0.357  0.00  0.00    -0.316 N 
ATOM     22  C   UNL     1      -1.282  -3.552   0.720  0.00  0.00    +0.223 C 
ATOM     23  O   UNL     1      -2.218  -3.004   1.262  0.00  0.00    -0.275 OA
ATOM     24  H   UNL     1      -0.527  -5.344  -0.134  0.00  0.00    +0.149 HD
BRANCH  21  25
ATOM     25  C   UNL     1      -2.611  -5.591   0.617  0.00  0.00    +0.093 C 
BRANCH  25  26
ATOM     26  C   UNL     1      -2.457  -7.027   0.111  0.00  0.00    -0.021 C 
BRANCH  26  27
ATOM     27  C   UNL     1      -3.765  -7.758   0.265  0.00  0.00    -0.059 A 
ATOM     28  C   UNL     1      -3.792  -9.011   0.847  0.00  0.00    +0.002 A 
ATOM     29  C   UNL     1      -4.994  -9.680   0.993  0.00  0.00    +0.000 A 
ATOM     30  C   UNL     1      -6.167  -9.098   0.548  0.00  0.00    +0.000 A 
ATOM     31  C   UNL     1      -6.139  -7.847  -0.038  0.00  0.00    +0.000 A 
ATOM     32  C   UNL     1      -4.938  -7.177  -0.180  0.00  0.00    +0.002 A 
ENDBRANCH  26  27
BRANCH  26  34
ATOM     33  C   UNL     1      -1.735  -8.357  -1.779  0.00  0.00    -0.096 C 
ATOM     34  N   UNL     1      -2.071  -7.008  -1.307  0.00  0.00    +0.382 N 
ATOM     35  C   UNL     1      -3.128  -6.409  -2.132  0.00  0.00    -0.096 C 
ATOM     36  H   UNL     1      -1.171  -6.382  -1.404  0.00  0.00    -0.082 HD
ENDBRANCH  26  34
ENDBRANCH  25  26
ENDBRANCH  21  25
ENDBRANCH  20  22
ENDBRANCH   1  20
TORSDOF 9
