REMARK  Name = ZINC05256362
REMARK  10 active torsions:
REMARK  status: ('A' for Active; 'I' for Inactive)
REMARK    1  A    between atoms: C_1  and  C_2
REMARK    2  A    between atoms: C_2  and  C_3
REMARK    3  A    between atoms: C_3  and  C_4
REMARK    4  A    between atoms: C_3  and  N_6
REMARK    5  A    between atoms: C_4  and  C_5
REMARK    6  A    between atoms: C_17  and  C_19
REMARK    7  A    between atoms: C_21  and  O_27
REMARK    8  A    between atoms: C_24  and  O_25
REMARK    9  A    between atoms: O_25  and  C_26
REMARK   10  A    between atoms: O_27  and  C_28
REMARK                            x       y       z     vdW  Elec       q    Type
REMARK                         _______ _______ _______ _____ _____    ______ ____
ROOT
ATOM      1  N   UNL     1       0.725  -3.050  -2.518  0.00  0.00    -0.296 N 
ATOM      2  C   UNL     1      -0.113  -2.994  -1.464  0.00  0.00    +0.303 C 
ATOM      3  O   UNL     1      -1.253  -3.402  -1.571  0.00  0.00    -0.253 OA
ATOM      4  N   UNL     1       0.314  -2.486  -0.291  0.00  0.00    -0.271 N 
ATOM      5  C   UNL     1      -0.542  -2.514   0.907  0.00  0.00    +0.132 C 
ATOM      6  C   UNL     1       0.108  -3.400   1.975  0.00  0.00    +0.140 C 
ATOM      7  N   UNL     1       1.530  -3.056   2.086  0.00  0.00    -0.347 N 
ATOM      8  C   UNL     1       2.362  -3.345   3.124  0.00  0.00    +0.086 A 
ATOM      9  C   UNL     1       3.589  -2.866   2.829  0.00  0.00    +0.019 A 
ATOM     10  C   UNL     1       3.511  -2.254   1.560  0.00  0.00    +0.025 A 
ATOM     11  C   UNL     1       2.244  -2.382   1.133  0.00  0.00    +0.044 A 
ATOM     12  C   UNL     1       1.655  -1.885  -0.167  0.00  0.00    +0.158 C 
ATOM     13  H   UNL     1       1.651  -2.782  -2.417  0.00  0.00    +0.151 HD
ENDROOT
BRANCH  12  14
ATOM     14  C   UNL     1       1.544  -0.382  -0.140  0.00  0.00    +0.024 A 
ATOM     15  C   UNL     1       1.511   0.287   1.069  0.00  0.00    +0.055 A 
ATOM     16  C   UNL     1       1.409   1.669   1.094  0.00  0.00    +0.121 A 
ATOM     17  C   UNL     1       1.341   2.381  -0.095  0.00  0.00    +0.049 A 
ATOM     18  C   UNL     1       1.374   1.713  -1.303  0.00  0.00    +0.049 A 
ATOM     19  C   UNL     1       1.476   0.330  -1.328  0.00  0.00    +0.126 A 
BRANCH  19  20
ATOM     20  O   UNL     1       1.509  -0.328  -2.517  0.00  0.00    -0.495 OA
ATOM     21  C   UNL     1       1.556   0.472  -3.700  0.00  0.00    +0.277 C 
ENDBRANCH  19  20
BRANCH  16  22
ATOM     22  O   UNL     1       1.371   2.327   2.283  0.00  0.00    -0.495 OA
ATOM     23  C   UNL     1       1.265   3.751   2.234  0.00  0.00    +0.277 C 
ENDBRANCH  16  22
ENDBRANCH  12  14
BRANCH   1  24
ATOM     24  C   UNL     1       0.236  -3.518  -3.818  0.00  0.00    +0.074 C 
BRANCH  24  26
ATOM     25  C   UNL     1      -1.518  -1.742  -3.930  0.00  0.00    +0.006 C 
ATOM     26  C   UNL     1      -0.287  -2.327  -4.624  0.00  0.00    +0.019 C 
ENDBRANCH  24  26
BRANCH  24  27
ATOM     27  C   UNL     1       1.379  -4.188  -4.582  0.00  0.00    +0.019 C 
ATOM     28  C   UNL     1       1.819  -5.450  -3.837  0.00  0.00    +0.006 C 
ENDBRANCH  24  27
ENDBRANCH   1  24
TORSDOF 6
