REMARK  Name = ZINC59850232
REMARK  9 active torsions:
REMARK  status: ('A' for Active; 'I' for Inactive)
REMARK    1  A    between atoms: C_1  and  C_2
REMARK    2  A    between atoms: C_5  and  C_8
REMARK    3  A    between atoms: C_9  and  S_10
REMARK    4  A    between atoms: S_10  and  N_13
REMARK    5  A    between atoms: N_13  and  C_14
REMARK    6  A    between atoms: C_14  and  C_15
REMARK    7  A    between atoms: N_17  and  C_18
REMARK    8  A    between atoms: N_23  and  C_25
REMARK    9  A    between atoms: C_25  and  C_26
REMARK                            x       y       z     vdW  Elec       q    Type
REMARK                         _______ _______ _______ _____ _____    ______ ____
ROOT
ATOM      1  C   UNL     1       3.010  -7.697   3.627  0.00  0.00    +0.229 C 
ATOM      2  O   UNL     1       3.546  -8.459   2.850  0.00  0.00    -0.274 OA
ATOM      3  N   UNL     1       3.463  -7.594   4.892  0.00  0.00    -0.313 N 
ATOM      4  H   UNL     1       3.034  -6.985   5.513  0.00  0.00    +0.149 HD
ENDROOT
BRANCH   3   5
ATOM      5  C   UNL     1       4.603  -8.403   5.330  0.00  0.00    +0.056 C 
ATOM      6  C   UNL     1       4.109  -9.783   5.776  0.00  0.00    +0.018 C 
ATOM      7  C   UNL     1       5.297 -10.592   6.304  0.00  0.00    -0.017 C 
ATOM      8  C   UNL     1       5.968  -9.820   7.442  0.00  0.00    -0.078 C 
ATOM      9  N   UNL     1       6.441  -8.522   6.946  0.00  0.00    +0.384 N 
ATOM     10  C   UNL     1       5.300  -7.712   6.503  0.00  0.00    -0.056 C 
ATOM     11  H   UNL     1       7.069  -8.669   6.170  0.00  0.00    -0.081 HD
BRANCH   9  12
ATOM     12  C   UNL     1       7.152  -7.818   8.021  0.00  0.00    -0.043 C 
BRANCH  12  13
ATOM     13  C   UNL     1       8.398  -8.584   8.385  0.00  0.00    -0.064 A 
ATOM     14  C   UNL     1       8.348  -9.559   9.364  0.00  0.00    +0.002 A 
ATOM     15  C   UNL     1       9.491 -10.262   9.698  0.00  0.00    +0.000 A 
ATOM     16  C   UNL     1      10.683  -9.990   9.053  0.00  0.00    +0.000 A 
ATOM     17  C   UNL     1      10.732  -9.016   8.073  0.00  0.00    +0.000 A 
ATOM     18  C   UNL     1       9.588  -8.316   7.736  0.00  0.00    +0.002 A 
ENDBRANCH  12  13
ENDBRANCH   9  12
ENDBRANCH   3   5
BRANCH   1  19
ATOM     19  C   UNL     1       1.837  -6.864   3.177  0.00  0.00    +0.201 C 
BRANCH  19  20
ATOM     20  N   UNL     1       1.542  -7.156   1.772  0.00  0.00    -0.182 NA
ATOM     21  H   UNL     1       2.192  -7.627   1.227  0.00  0.00    +0.149 HD
BRANCH  20  22
ATOM     22  S   UNL     1       0.098  -6.682   1.113  0.00  0.00    +0.052 S 
ATOM     23  O   UNL     1      -0.917  -7.106   2.012  0.00  0.00    -0.154 OA
ATOM     24  O   UNL     1       0.123  -7.080  -0.251  0.00  0.00    -0.154 OA
BRANCH  22  26
ATOM     25  C   UNL     1       0.060  -4.251  -0.021  0.00  0.00    +0.028 C 
ATOM     26  C   UNL     1       0.074  -4.920   1.123  0.00  0.00    +0.153 C 
BRANCH  25  31
ATOM     27  C   UNL     1      -0.018   1.503   0.010  0.00  0.00    +0.044 C 
ATOM     28  C   UNL     1       0.002  -0.004   0.002  0.00  0.00    -0.050 A 
ATOM     29  C   UNL     1       0.006  -0.686  -1.202  0.00  0.00    +0.004 A 
ATOM     30  C   UNL     1       0.024  -2.066  -1.216  0.00  0.00    +0.008 A 
ATOM     31  C   UNL     1       0.040  -2.773  -0.013  0.00  0.00    -0.024 A 
ATOM     32  C   UNL     1       0.037  -2.079   1.197  0.00  0.00    +0.008 A 
ATOM     33  C   UNL     1       0.023  -0.699   1.198  0.00  0.00    +0.004 A 
ENDBRANCH  25  31
ENDBRANCH  22  26
ENDBRANCH  20  22
ENDBRANCH  19  20
ENDBRANCH   1  19
TORSDOF 8
