REMARK  Name = ZINC59087700
REMARK  8 active torsions:
REMARK  status: ('A' for Active; 'I' for Inactive)
REMARK    1  A    between atoms: C_1  and  C_2
REMARK    2  A    between atoms: C_2  and  C_4
REMARK    3  A    between atoms: C_2  and  N_10
REMARK    4  A    between atoms: N_10  and  C_11
REMARK    5  A    between atoms: N_10  and  C_17
REMARK    6  A    between atoms: C_11  and  C_12
REMARK    7  A    between atoms: C_17  and  N_19
REMARK    8  A    between atoms: N_19  and  C_20
REMARK                            x       y       z     vdW  Elec       q    Type
REMARK                         _______ _______ _______ _____ _____    ______ ____
ROOT
ATOM      1  N   UNL     1      -1.271  -0.750   0.193  0.00  0.00    -0.298 N 
ENDROOT
BRANCH   1   3
ATOM      2  C   UNL     1       0.473   0.957   0.350  0.00  0.00    +0.033 C 
ATOM      3  C   UNL     1       0.174  -0.543   0.317  0.00  0.00    +0.103 C 
BRANCH   3   4
ATOM      4  C   UNL     1       0.665  -1.182   1.591  0.00  0.00    -0.027 A 
ATOM      5  C   UNL     1       0.038  -2.310   2.085  0.00  0.00    +0.005 A 
ATOM      6  C   UNL     1       0.488  -2.896   3.253  0.00  0.00    +0.000 A 
ATOM      7  C   UNL     1       1.567  -2.353   3.927  0.00  0.00    +0.000 A 
ATOM      8  C   UNL     1       2.195  -1.226   3.433  0.00  0.00    +0.000 A 
ATOM      9  C   UNL     1       1.746  -0.642   2.262  0.00  0.00    +0.005 A 
ENDBRANCH   3   4
ENDBRANCH   1   3
BRANCH   1  10
ATOM     10  C   UNL     1      -1.760  -1.510  -0.807  0.00  0.00    +0.138 C 
ATOM     11  S   UNL     1      -0.692  -2.234  -1.932  0.00  0.00    -0.018 S 
BRANCH  10  12
ATOM     12  N   UNL     1      -3.089  -1.700  -0.921  0.00  0.00    -0.296 N 
ATOM     13  H   UNL     1      -3.692  -1.325  -0.259  0.00  0.00    +0.154 HD
BRANCH  12  14
ATOM     14  C   UNL     1      -3.601  -2.439  -1.994  0.00  0.00    +0.053 A 
ATOM     15  C   UNL     1      -3.043  -2.306  -3.258  0.00  0.00    +0.044 A 
ATOM     16  C   UNL     1      -3.551  -3.036  -4.316  0.00  0.00    +0.043 A 
ATOM     17  C   UNL     1      -4.615  -3.899  -4.116  0.00  0.00    +0.021 A 
ATOM     18  C   UNL     1      -5.172  -4.033  -2.858  0.00  0.00    +0.023 A 
ATOM     19  C   UNL     1      -4.665  -3.311  -1.795  0.00  0.00    +0.062 A 
ATOM     20 CL   UNL     1      -5.361  -3.485  -0.214  0.00  0.00    -0.082 Cl
ATOM     21 CL   UNL     1      -2.855  -2.871  -5.898  0.00  0.00    -0.083 Cl
ENDBRANCH  12  14
ENDBRANCH  10  12
ENDBRANCH   1  10
BRANCH   1  22
ATOM     22  C   UNL     1      -2.185  -0.131   1.156  0.00  0.00    +0.181 C 
BRANCH  22  23
ATOM     23  C   UNL     1      -2.695   1.173   0.599  0.00  0.00    +0.122 A 
ATOM     24  C   UNL     1      -3.803   1.330  -0.148  0.00  0.00    +0.046 A 
ATOM     25  C   UNL     1      -3.900   2.708  -0.451  0.00  0.00    +0.041 A 
ATOM     26  C   UNL     1      -2.846   3.310   0.127  0.00  0.00    +0.195 A 
ATOM     27  O   UNL     1      -2.122   2.377   0.767  0.00  0.00    -0.466 OA
ENDBRANCH  22  23
ENDBRANCH   1  22
TORSDOF 7
