REMARK  Name = ZINC33087294
REMARK  7 active torsions:
REMARK  status: ('A' for Active; 'I' for Inactive)
REMARK    1  A    between atoms: C_1  and  C_2
REMARK    2  A    between atoms: C_5  and  C_8
REMARK    3  A    between atoms: N_15  and  C_16
REMARK    4  A    between atoms: C_16  and  C_17
REMARK    5  A    between atoms: C_21  and  O_24
REMARK    6  A    between atoms: C_22  and  O_23
REMARK    7  A    between atoms: O_24  and  C_25
REMARK                            x       y       z     vdW  Elec       q    Type
REMARK                         _______ _______ _______ _____ _____    ______ ____
ROOT
ATOM      1  C   UNL     1      -0.906   1.984  -3.714  0.00  0.00    -0.037 C 
ATOM      2  C   UNL     1      -2.144   2.610  -3.123  0.00  0.00    -0.011 C 
ATOM      3  C   UNL     1      -2.556   3.881  -3.886  0.00  0.00    -0.001 C 
ATOM      4  C   UNL     1      -1.338   4.745  -4.268  0.00  0.00    -0.002 C 
ATOM      5  C   UNL     1      -0.320   4.833  -3.159  0.00  0.00    -0.019 C 
ATOM      6  C   UNL     1       0.738   3.725  -3.359  0.00  0.00    -0.078 C 
ATOM      7  N   UNL     1       0.262   2.475  -2.956  0.00  0.00    +0.387 N 
ATOM      8  H   UNL     1      -0.083   2.685  -1.932  0.00  0.00    -0.080 HD
ENDROOT
BRANCH   1  13
ATOM      9  C   UNL     1      -1.234  -3.769  -3.288  0.00  0.00    +0.044 C 
ATOM     10  C   UNL     1      -1.148  -2.269  -3.399  0.00  0.00    -0.050 A 
ATOM     11  C   UNL     1      -1.080  -1.671  -4.644  0.00  0.00    +0.003 A 
ATOM     12  C   UNL     1      -1.001  -0.294  -4.745  0.00  0.00    +0.002 A 
ATOM     13  C   UNL     1      -0.992   0.484  -3.603  0.00  0.00    -0.061 A 
ATOM     14  C   UNL     1      -1.054  -0.115  -2.359  0.00  0.00    +0.002 A 
ATOM     15  C   UNL     1      -1.137  -1.491  -2.257  0.00  0.00    +0.003 A 
ENDBRANCH   1  13
BRANCH   7  16
ATOM     16  C   UNL     1       1.341   1.478  -2.947  0.00  0.00    -0.038 C 
BRANCH  16  17
ATOM     17  C   UNL     1       2.361   1.851  -1.903  0.00  0.00    -0.019 A 
ATOM     18  C   UNL     1       3.582   2.376  -2.287  0.00  0.00    +0.005 A 
ATOM     19  C   UNL     1       4.521   2.718  -1.332  0.00  0.00    +0.004 A 
ATOM     20  C   UNL     1       4.243   2.539   0.011  0.00  0.00    +0.049 A 
ATOM     21  C   UNL     1       3.020   2.020   0.402  0.00  0.00    +0.161 A 
ATOM     22  C   UNL     1       2.077   1.669  -0.560  0.00  0.00    +0.160 A 
BRANCH  22  23
ATOM     23  O   UNL     1       0.876   1.154  -0.181  0.00  0.00    -0.503 OA
ATOM     24  H   UNL     1       0.652   1.010   0.886  0.00  0.00    +0.292 HD
ENDBRANCH  22  23
BRANCH  21  25
ATOM     25  O   UNL     1       2.743   1.849   1.722  0.00  0.00    -0.491 OA
ATOM     26  C   UNL     1       3.757   2.231   2.653  0.00  0.00    +0.277 C 
ENDBRANCH  21  25
ENDBRANCH  16  17
ENDBRANCH   7  16
TORSDOF 5
