REMARK  Name = ZINC20454302
REMARK  14 active torsions:
REMARK  status: ('A' for Active; 'I' for Inactive)
REMARK    1  A    between atoms: C_1  and  C_2
REMARK    2  A    between atoms: C_3  and  C_34
REMARK    3  A    between atoms: C_4  and  O_32
REMARK    4  A    between atoms: C_7  and  C_8
REMARK    5  A    between atoms: C_8  and  N_9
REMARK    6  A    between atoms: N_9  and  C_10
REMARK    7  A    between atoms: C_13  and  C_20
REMARK    8  A    between atoms: N_15  and  C_17
REMARK    9  A    between atoms: C_17  and  C_18
REMARK   10  A    between atoms: C_17  and  C_19
REMARK   11  A    between atoms: N_22  and  C_23
REMARK   12  A    between atoms: C_23  and  C_24
REMARK   13  A    between atoms: C_24  and  C_25
REMARK   14  A    between atoms: O_32  and  C_33
REMARK                            x       y       z     vdW  Elec       q    Type
REMARK                         _______ _______ _______ _____ _____    ______ ____
ROOT
ATOM      1  C   UNL     1       1.371   5.637  -1.134  0.00  0.00    -0.055 C 
ATOM      2  C   UNL     1       1.060   5.878  -2.629  0.00  0.00    +0.014 C 
ATOM      3  C   UNL     1       1.949   7.067  -3.038  0.00  0.00    +0.142 C 
ATOM      4  N   UNL     1       2.693   7.487  -1.831  0.00  0.00    -0.291 NA
ATOM      5  C   UNL     1       2.767   6.285  -0.961  0.00  0.00    +0.070 C 
ENDROOT
BRANCH   3   6
ATOM      6  C   UNL     1       1.092   8.201  -3.539  0.00  0.00    +0.230 C 
ATOM      7  O   UNL     1       1.104   9.269  -2.964  0.00  0.00    -0.274 OA
ATOM      8  N   UNL     1       0.313   8.028  -4.625  0.00  0.00    -0.314 N 
ATOM      9  H   UNL     1       0.303   7.059  -5.146  0.00  0.00    +0.149 HD
BRANCH   8  10
ATOM     10  C   UNL     1      -0.520   9.130  -5.112  0.00  0.00    +0.109 C 
BRANCH  10  11
ATOM     11  C   UNL     1      -1.299   8.674  -6.347  0.00  0.00    +0.056 C 
BRANCH  11  12
ATOM     12  C   UNL     1      -2.156   9.808  -6.848  0.00  0.00    -0.011 A 
ATOM     13  C   UNL     1      -3.479   9.898  -6.460  0.00  0.00    +0.006 A 
ATOM     14  C   UNL     1      -4.264  10.941  -6.915  0.00  0.00    +0.000 A 
ATOM     15  C   UNL     1      -3.729  11.889  -7.767  0.00  0.00    +0.003 A 
ATOM     16  C   UNL     1      -2.407  11.798  -8.160  0.00  0.00    +0.038 A 
ATOM     17  C   UNL     1      -1.619  10.757  -7.701  0.00  0.00    +0.127 A 
ATOM     18  F   UNL     1      -0.327  10.666  -8.085  0.00  0.00    -0.205 F 
ENDBRANCH  11  12
ENDBRANCH  10  11
ENDBRANCH   8  10
ENDBRANCH   3   6
BRANCH   1  19
ATOM     19  N   UNL     1       1.426   4.198  -0.840  0.00  0.00    +0.384 N 
ATOM     20  H   UNL     1       2.434   3.828  -1.076  0.00  0.00    -0.085 HD
ATOM     21  H   UNL     1       0.688   3.681  -1.471  0.00  0.00    -0.085 HD
BRANCH  19  22
ATOM     22  C   UNL     1       1.128   3.938   0.575  0.00  0.00    -0.046 C 
BRANCH  22  29
ATOM     23  C   UNL     1       3.686   2.653   0.951  0.00  0.00    +0.044 C 
ATOM     24  C   UNL     1       2.418   1.841   1.018  0.00  0.00    -0.043 A 
ATOM     25  C   UNL     1       2.482   0.482   1.259  0.00  0.00    -0.006 A 
ATOM     26  C   UNL     1       1.314  -0.265   1.321  0.00  0.00    +0.123 A 
ATOM     27  C   UNL     1       0.086   0.355   1.140  0.00  0.00    +0.046 A 
ATOM     28  C   UNL     1       0.029   1.713   0.899  0.00  0.00    +0.005 A 
ATOM     29  C   UNL     1       1.194   2.456   0.838  0.00  0.00    -0.061 A 
ATOM     30  C   UNL     1       3.817  -0.188   1.455  0.00  0.00    +0.048 C 
BRANCH  26  31
ATOM     31  O   UNL     1       1.374  -1.602   1.558  0.00  0.00    -0.495 OA
ATOM     32  C   UNL     1       0.132  -2.308   1.609  0.00  0.00    +0.277 C 
ENDBRANCH  26  31
ENDBRANCH  22  29
ENDBRANCH  19  22
ENDBRANCH   1  19
BRANCH   4  33
ATOM     33  C   UNL     1       4.037   7.967  -2.181  0.00  0.00    +0.051 C 
ATOM     34  C   UNL     1       3.921   9.249  -3.009  0.00  0.00    +0.024 C 
ATOM     35  C   UNL     1       4.825   8.255  -0.902  0.00  0.00    +0.024 C 
ENDBRANCH   4  33
TORSDOF 9
