REMARK  Name = ZINC09550993
REMARK  6 active torsions:
REMARK  status: ('A' for Active; 'I' for Inactive)
REMARK    1  A    between atoms: N_12  and  C_13
REMARK    2  A    between atoms: C_13  and  C_14
REMARK    3  A    between atoms: C_14  and  C_15
REMARK    4  A    between atoms: C_15  and  O_17
REMARK    5  A    between atoms: O_17  and  C_18
REMARK    6  A    between atoms: C_18  and  C_19
REMARK                            x       y       z     vdW  Elec       q    Type
REMARK                         _______ _______ _______ _____ _____    ______ ____
ROOT
ATOM      1  C   UNL     1      -3.241   2.377  -1.370  0.00  0.00    +0.309 C 
ATOM      2  O   UNL     1      -3.682   3.085  -0.495  0.00  0.00    -0.251 OA
ENDROOT
BRANCH   1   3
ATOM      3  C   UNL     1      -4.037   2.151  -2.629  0.00  0.00    +0.139 C 
BRANCH   3   4
ATOM      4  C   UNL     1      -5.353   2.926  -2.546  0.00  0.00    +0.114 C 
BRANCH   4  16
ATOM      5  C   UNL     1      -8.753   2.272  -7.335  0.00  0.00    +0.001 A 
ATOM      6  C   UNL     1      -9.950   2.965  -7.282  0.00  0.00    +0.002 A 
ATOM      7  C   UNL     1     -10.250   3.725  -6.161  0.00  0.00    +0.030 A 
ATOM      8  C   UNL     1      -9.361   3.781  -5.126  0.00  0.00    +0.123 A 
ATOM      9  C   UNL     1      -8.139   3.096  -5.154  0.00  0.00    +0.043 A 
ATOM     10  C   UNL     1      -7.855   2.328  -6.293  0.00  0.00    +0.013 A 
ATOM     11  C   UNL     1      -7.357   3.307  -3.925  0.00  0.00    +0.150 C 
ATOM     12  N   UNL     1      -7.837   4.067  -2.993  0.00  0.00    -0.113 NA
ATOM     13  S   UNL     1      -9.323   4.595  -3.553  0.00  0.00    +0.101 S 
ATOM     14  O   UNL     1     -10.327   4.007  -2.736  0.00  0.00    -0.146 OA
ATOM     15  O   UNL     1      -9.226   5.993  -3.789  0.00  0.00    -0.146 OA
ATOM     16  N   UNL     1      -6.127   2.706  -3.771  0.00  0.00    -0.327 N 
ATOM     17  H   UNL     1      -5.773   2.138  -4.473  0.00  0.00    +0.148 HD
ENDBRANCH   4  16
ENDBRANCH   3   4
ENDBRANCH   1   3
BRANCH   1  18
ATOM     18  O   UNL     1      -2.042   1.792  -1.219  0.00  0.00    -0.458 OA
BRANCH  18  19
ATOM     19  C   UNL     1      -1.331   2.055   0.019  0.00  0.00    +0.287 C 
BRANCH  19  20
ATOM     20  C   UNL     1      -0.016   1.319   0.009  0.00  0.00    +0.086 A 
ATOM     21  C   UNL     1       1.170   2.027   0.002  0.00  0.00    +0.097 A 
ATOM     22  C   UNL     1       2.379   1.323  -0.013  0.00  0.00    +0.259 A 
ATOM     23  O   UNL     1       3.445   1.919  -0.020  0.00  0.00    -0.267 OA
ATOM     24  N   UNL     1       2.349  -0.027  -0.020  0.00  0.00    -0.267 N 
ATOM     25  C   UNL     1       3.517  -0.728  -0.034  0.00  0.00    +0.111 A 
ATOM     26  C   UNL     1       3.512  -2.080  -0.041  0.00  0.00    +0.035 A 
ATOM     27  C   UNL     1       2.297  -2.780  -0.034  0.00  0.00    +0.020 A 
ATOM     28  C   UNL     1       1.123  -2.088  -0.020  0.00  0.00    +0.048 A 
ATOM     29  C   UNL     1       1.149  -0.681  -0.013  0.00  0.00    +0.141 A 
ATOM     30  N   UNL     1       0.002  -0.004   0.002  0.00  0.00    -0.231 NA
ATOM     31 BR   UNL     1       5.147  -3.030  -0.060  0.00  0.00    -0.049 Br
ENDBRANCH  19  20
ENDBRANCH  18  19
ENDBRANCH   1  18
TORSDOF 6
