REMARK  Name = ZINC12833885
REMARK  15 active torsions:
REMARK  status: ('A' for Active; 'I' for Inactive)
REMARK    1  A    between atoms: C_1  and  C_2
REMARK    2  A    between atoms: C_4  and  C_41
REMARK    3  A    between atoms: C_9  and  C_14
REMARK    4  A    between atoms: C_14  and  C_16
REMARK    5  A    between atoms: C_14  and  N_77
REMARK    6  A    between atoms: N_20  and  C_21
REMARK    7  A    between atoms: C_21  and  C_22
REMARK    8  A    between atoms: C_21  and  C_23
REMARK    9  A    between atoms: C_21  and  C_24
REMARK   10  A    between atoms: C_25  and  C_26
REMARK   11  A    between atoms: C_25  and  N_77
REMARK   12  A    between atoms: C_30  and  O_32
REMARK   13  A    between atoms: O_32  and  C_33
REMARK   14  A    between atoms: C_34  and  C_35
REMARK   15  A    between atoms: C_34  and  N_77
REMARK                            x       y       z     vdW  Elec       q    Type
REMARK                         _______ _______ _______ _____ _____    ______ ____
ROOT
ATOM      1  C   UNL     1      -3.891  -4.175  -1.002  0.00  0.00    +0.039 C 
ENDROOT
BRANCH   1  10
ATOM      2  C   UNL     1      -3.959  -8.651  -6.966  0.00  0.00    +0.044 C 
ATOM      3  C   UNL     1      -4.308  -7.346  -6.298  0.00  0.00    -0.050 A 
ATOM      4  C   UNL     1      -4.989  -6.369  -7.012  0.00  0.00    +0.008 A 
ATOM      5  C   UNL     1      -5.318  -5.168  -6.421  0.00  0.00    -0.026 A 
ATOM      6  C   UNL     1      -4.967  -4.931  -5.096  0.00  0.00    +0.052 A 
ATOM      7  C   UNL     1      -4.277  -5.925  -4.376  0.00  0.00    -0.001 A 
ATOM      8  C   UNL     1      -3.953  -7.136  -4.997  0.00  0.00    +0.013 A 
ATOM      9  C   UNL     1      -3.912  -5.666  -2.982  0.00  0.00    +0.017 A 
ATOM     10  C   UNL     1      -4.252  -4.473  -2.434  0.00  0.00    +0.011 A 
ATOM     11  C   UNL     1      -4.949  -3.513  -3.198  0.00  0.00    +0.251 A 
ATOM     12  O   UNL     1      -5.250  -2.449  -2.684  0.00  0.00    -0.268 OA
ATOM     13  N   UNL     1      -5.284  -3.739  -4.481  0.00  0.00    -0.322 N 
ATOM     14  H   UNL     1      -5.759  -3.055  -4.978  0.00  0.00    +0.169 HD
ATOM     15  C   UNL     1      -6.056  -4.116  -7.208  0.00  0.00    +0.046 C 
ENDBRANCH   1  10
BRANCH   1  16
ATOM     16  C   UNL     1      -5.151  -4.000  -0.192  0.00  0.00    +0.143 A 
ATOM     17  N   UNL     1      -5.976  -2.984  -0.239  0.00  0.00    -0.115 NA
ATOM     18  N   UNL     1      -6.930  -3.206   0.598  0.00  0.00    -0.023 NA
ATOM     19  N   UNL     1      -6.730  -4.335   1.184  0.00  0.00    -0.043 NA
ATOM     20  N   UNL     1      -5.642  -4.855   0.724  0.00  0.00    -0.225 N 
BRANCH  20  21
ATOM     21  C   UNL     1      -5.053  -6.136   1.124  0.00  0.00    +0.059 C 
ATOM     22  C   UNL     1      -3.688  -5.889   1.770  0.00  0.00    +0.036 C 
ATOM     23  C   UNL     1      -5.975  -6.830   2.128  0.00  0.00    +0.036 C 
ATOM     24  C   UNL     1      -4.880  -7.025  -0.110  0.00  0.00    +0.036 C 
ENDBRANCH  20  21
ENDBRANCH   1  16
BRANCH   1  25
ATOM     25  N   UNL     1      -3.114  -2.919  -0.949  0.00  0.00    +0.394 N 
ATOM     26  H   UNL     1      -3.745  -2.129  -1.129  0.00  0.00    -0.080 HD
BRANCH  25  27
ATOM     27  C   UNL     1      -2.057  -2.935  -1.981  0.00  0.00    -0.041 C 
BRANCH  27  28
ATOM     28  C   UNL     1      -1.427  -1.568  -2.054  0.00  0.00    -0.060 A 
ATOM     29  C   UNL     1      -1.953  -0.610  -2.901  0.00  0.00    +0.002 A 
ATOM     30  C   UNL     1      -1.378   0.646  -2.970  0.00  0.00    +0.004 A 
ATOM     31  C   UNL     1      -0.280   0.948  -2.188  0.00  0.00    +0.045 A 
ATOM     32  C   UNL     1       0.253  -0.013  -1.341  0.00  0.00    +0.120 A 
ATOM     33  C   UNL     1      -0.326  -1.272  -1.274  0.00  0.00    +0.047 A 
BRANCH  32  34
ATOM     34  O   UNL     1       1.336   0.280  -0.575  0.00  0.00    -0.495 OA
ATOM     35  C   UNL     1       1.880   1.596  -0.696  0.00  0.00    +0.277 C 
ENDBRANCH  32  34
ENDBRANCH  27  28
ENDBRANCH  25  27
BRANCH  25  36
ATOM     36  C   UNL     1      -2.511  -2.754   0.391  0.00  0.00    -0.045 C 
BRANCH  36  37
ATOM     37  C   UNL     1      -3.600  -2.308   1.368  0.00  0.00    +0.102 C 
ATOM     38  C   UNL     1      -2.982  -2.036   2.753  0.00  0.00    +0.032 C 
ATOM     39  C   UNL     1      -3.333  -0.556   3.042  0.00  0.00    +0.030 C 
ATOM     40  C   UNL     1      -4.534  -0.317   2.092  0.00  0.00    +0.160 C 
ATOM     41  O   UNL     1      -4.190  -1.079   0.915  0.00  0.00    -0.378 OA
ENDBRANCH  36  37
ENDBRANCH  25  36
ENDBRANCH   1  25
TORSDOF 9
