REMARK  Name = ZINC38815253
REMARK  5 active torsions:
REMARK  status: ('A' for Active; 'I' for Inactive)
REMARK    1  A    between atoms: C_4  and  O_7
REMARK    2  A    between atoms: O_7  and  C_8
REMARK    3  A    between atoms: C_12  and  C_14
REMARK    4  A    between atoms: N_15  and  N_16
REMARK    5  A    between atoms: C_17  and  C_19
REMARK                            x       y       z     vdW  Elec       q    Type
REMARK                         _______ _______ _______ _____ _____    ______ ____
ROOT
ATOM      1  N   UNL     1       4.253  -6.901  -0.265  0.00  0.00    -0.205 N 
ATOM      2  C   UNL     1       4.124  -8.242  -0.303  0.00  0.00    +0.263 C 
ATOM      3  O   UNL     1       5.111  -8.947  -0.279  0.00  0.00    -0.271 OA
ATOM      4  H   UNL     1       3.464  -6.337  -0.284  0.00  0.00    +0.177 HD
ENDROOT
BRANCH   2   5
ATOM      5  C   UNL     1       2.754  -8.865  -0.376  0.00  0.00    +0.243 C 
ATOM      6  C   UNL     1       2.253  -8.883  -1.791  0.00  0.00    -0.007 C 
ATOM      7  C   UNL     1       2.102 -10.199  -2.084  0.00  0.00    +0.095 C 
ATOM      8  C   UNL     1       1.626 -10.599  -3.433  0.00  0.00    +0.005 A 
ATOM      9  C   UNL     1       1.192 -11.889  -3.699  0.00  0.00    +0.010 A 
ATOM     10  C   UNL     1       0.727 -12.205  -4.962  0.00  0.00    +0.001 A 
ATOM     11  C   UNL     1       0.695 -11.235  -5.947  0.00  0.00    +0.000 A 
ATOM     12  C   UNL     1       1.139  -9.952  -5.686  0.00  0.00    +0.004 A 
ATOM     13  C   UNL     1       1.623  -9.624  -4.434  0.00  0.00    -0.038 A 
ATOM     14  C   UNL     1       2.182  -8.251  -4.183  0.00  0.00    +0.040 C 
ATOM     15  C   UNL     1       1.935  -7.778  -2.749  0.00  0.00    +0.040 C 
ATOM     16  N   UNL     1       2.441 -10.951  -1.016  0.00  0.00    -0.153 NA
ATOM     17  N   UNL     1       2.812 -10.298  -0.026  0.00  0.00    -0.170 NA
ENDBRANCH   2   5
BRANCH   1  19
ATOM     18  C   UNL     1       5.649  -5.042  -0.017  0.00  0.00    +0.138 C 
ATOM     19  N   UNL     1       5.527  -6.321  -0.197  0.00  0.00    -0.188 NA
BRANCH  18  24
ATOM     20  C   UNL     1       3.383  -2.140   0.731  0.00  0.00    +0.129 A 
ATOM     21  C   UNL     1       2.346  -2.777   1.400  0.00  0.00    +0.046 A 
ATOM     22  C   UNL     1       2.385  -4.143   1.606  0.00  0.00    +0.004 A 
ATOM     23  C   UNL     1       3.455  -4.885   1.148  0.00  0.00    +0.010 A 
ATOM     24  C   UNL     1       4.503  -4.253   0.474  0.00  0.00    -0.002 A 
ATOM     25  C   UNL     1       4.459  -2.874   0.261  0.00  0.00    +0.055 A 
BRANCH  20  26
ATOM     26  O   UNL     1       3.339  -0.797   0.531  0.00  0.00    -0.456 OA
BRANCH  26  30
ATOM     27  C   UNL     1       0.974   0.629  -2.534  0.00  0.00    +0.000 A 
ATOM     28  C   UNL     1       0.963  -0.718  -2.223  0.00  0.00    +0.004 A 
ATOM     29  C   UNL     1       1.754  -1.198  -1.198  0.00  0.00    +0.046 A 
ATOM     30  C   UNL     1       2.560  -0.327  -0.479  0.00  0.00    +0.128 A 
ATOM     31  C   UNL     1       2.569   1.024  -0.792  0.00  0.00    +0.046 A 
ATOM     32  C   UNL     1       1.776   1.500  -1.819  0.00  0.00    +0.004 A 
ENDBRANCH  26  30
ENDBRANCH  20  26
ENDBRANCH  18  24
ENDBRANCH   1  19
TORSDOF 5
