REMARK  Name = ZINC09579534
REMARK  10 active torsions:
REMARK  status: ('A' for Active; 'I' for Inactive)
REMARK    1  A    between atoms: C_1  and  O_2
REMARK    2  A    between atoms: O_2  and  C_3
REMARK    3  A    between atoms: C_6  and  C_11
REMARK    4  A    between atoms: C_8  and  O_9
REMARK    5  A    between atoms: O_9  and  C_10
REMARK    6  A    between atoms: C_20  and  C_22
REMARK    7  A    between atoms: C_23  and  C_24
REMARK    8  A    between atoms: C_27  and  C_30
REMARK    9  A    between atoms: C_30  and  O_32
REMARK   10  A    between atoms: O_32  and  C_33
REMARK                            x       y       z     vdW  Elec       q    Type
REMARK                         _______ _______ _______ _____ _____    ______ ____
ROOT
ATOM      1  C   UNL     1       2.581  -2.538   4.300  0.00  0.00    +0.004 A 
ATOM      2  C   UNL     1       1.970  -3.539   4.980  0.00  0.00    +0.056 A 
ATOM      3  S   UNL     1       3.172  -3.994   6.215  0.00  0.00    -0.076 S 
ATOM      4  C   UNL     1       4.455  -2.842   5.794  0.00  0.00    +0.116 A 
ATOM      5  C   UNL     1       3.922  -2.134   4.700  0.00  0.00    +0.080 A 
ATOM      6  C   UNL     1       4.764  -1.120   4.141  0.00  0.00    +0.261 A 
ATOM      7  O   UNL     1       4.383  -0.454   3.195  0.00  0.00    -0.267 OA
ATOM      8  N   UNL     1       5.982  -0.911   4.675  0.00  0.00    -0.307 N 
ATOM      9  H   UNL     1       6.556  -0.225   4.300  0.00  0.00    +0.170 HD
ATOM     10  C   UNL     1       6.425  -1.653   5.740  0.00  0.00    +0.135 A 
ATOM     11  N   UNL     1       5.662  -2.586   6.278  0.00  0.00    -0.222 NA
ENDROOT
BRANCH   1  15
ATOM     12  C   UNL     1       0.626  -0.619   1.042  0.00  0.00    +0.162 A 
ATOM     13  C   UNL     1       1.202   0.140   2.050  0.00  0.00    +0.050 A 
ATOM     14  C   UNL     1       1.836  -0.480   3.108  0.00  0.00    +0.012 A 
ATOM     15  C   UNL     1       1.899  -1.872   3.164  0.00  0.00    -0.013 A 
ATOM     16  C   UNL     1       1.321  -2.635   2.151  0.00  0.00    +0.058 A 
ATOM     17  C   UNL     1       0.681  -2.009   1.096  0.00  0.00    +0.162 A 
BRANCH  12  19
ATOM     18  C   UNL     1      -0.017   1.425   0.010  0.00  0.00    +0.277 C 
ATOM     19  O   UNL     1       0.002  -0.004   0.002  0.00  0.00    -0.491 OA
ENDBRANCH  12  19
BRANCH  17  20
ATOM     20  O   UNL     1       0.112  -2.751   0.109  0.00  0.00    -0.491 OA
ATOM     21  C   UNL     1       0.206  -4.172   0.229  0.00  0.00    +0.277 C 
ENDBRANCH  17  20
ENDBRANCH   1  15
BRANCH  10  22
ATOM     22  C   UNL     1       7.756  -1.399   6.295  0.00  0.00    +0.047 C 
ATOM     23  C   UNL     1       8.199  -2.123   7.343  0.00  0.00    +0.011 C 
BRANCH  23  24
ATOM     24  C   UNL     1       9.537  -1.867   7.900  0.00  0.00    -0.025 A 
ATOM     25  C   UNL     1      10.347  -0.869   7.347  0.00  0.00    +0.009 A 
ATOM     26  C   UNL     1      11.588  -0.633   7.865  0.00  0.00    +0.015 A 
ATOM     27  C   UNL     1      12.050  -1.388   8.947  0.00  0.00    +0.059 A 
ATOM     28  C   UNL     1      11.242  -2.385   9.500  0.00  0.00    +0.015 A 
ATOM     29  C   UNL     1       9.997  -2.619   8.988  0.00  0.00    +0.009 A 
BRANCH  27  30
ATOM     30  C   UNL     1      13.393  -1.133   9.505  0.00  0.00    +0.339 C 
ATOM     31  O   UNL     1      14.096  -0.267   9.024  0.00  0.00    -0.245 OA
BRANCH  30  32
ATOM     32  O   UNL     1      13.838  -1.860  10.548  0.00  0.00    -0.464 OA
ATOM     33  C   UNL     1      15.146  -1.559  11.038  0.00  0.00    +0.280 C 
ENDBRANCH  30  32
ENDBRANCH  27  30
ENDBRANCH  23  24
ENDBRANCH  10  22
TORSDOF 7
