REMARK  Name = ZINC40764809
REMARK  4 active torsions:
REMARK  status: ('A' for Active; 'I' for Inactive)
REMARK    1  A    between atoms: C_3  and  C_6
REMARK    2  A    between atoms: C_8  and  C_11
REMARK    3  A    between atoms: C_13  and  C_18
REMARK    4  A    between atoms: C_15  and  N_17
REMARK                            x       y       z     vdW  Elec       q    Type
REMARK                         _______ _______ _______ _____ _____    ______ ____
ROOT
ATOM      1  C   UNL     1       7.312   1.341  -0.070  0.00  0.00    +0.042 A 
ATOM      2  C   UNL     1       8.365   2.258  -0.068  0.00  0.00    +0.025 A 
ATOM      3  C   UNL     1       9.670   1.810  -0.086  0.00  0.00    +0.057 A 
ATOM      4  C   UNL     1       9.940   0.455  -0.108  0.00  0.00    +0.035 A 
ATOM      5  C   UNL     1       8.899  -0.466  -0.111  0.00  0.00    +0.026 A 
ATOM      6  C   UNL     1       7.585  -0.026  -0.086  0.00  0.00    +0.036 A 
ENDROOT
BRANCH   1   9
ATOM      7  C   UNL     1       3.738   1.826  -0.025  0.00  0.00    +0.209 A 
ATOM      8  N   UNL     1       4.842   1.060  -0.044  0.00  0.00    -0.187 NA
ATOM      9  C   UNL     1       5.913   1.819  -0.050  0.00  0.00    +0.259 A 
ATOM     10  O   UNL     1       5.519   3.104  -0.033  0.00  0.00    -0.332 OA
ATOM     11  N   UNL     1       4.100   3.089  -0.022  0.00  0.00    -0.055 NA
BRANCH   7  14
ATOM     12  C   UNL     1      -0.016   1.355   0.009  0.00  0.00    +0.008 A 
ATOM     13  C   UNL     1       1.176   2.041   0.002  0.00  0.00    +0.019 A 
ATOM     14  C   UNL     1       2.346   1.330  -0.013  0.00  0.00    +0.060 A 
ATOM     15  S   UNL     1       1.753  -0.354  -0.017  0.00  0.00    -0.093 S 
ATOM     16  C   UNL     1       0.002  -0.004   0.002  0.00  0.00    +0.046 A 
ENDBRANCH   7  14
ENDBRANCH   1   9
BRANCH   3  17
ATOM     17  C   UNL     1      10.804   2.803  -0.084  0.00  0.00    +0.417 C 
ATOM     18  F   UNL     1      11.168   3.092   1.235  0.00  0.00    -0.166 F 
ATOM     19  F   UNL     1      11.901   2.259  -0.762  0.00  0.00    -0.166 F 
ATOM     20  F   UNL     1      10.397   3.978  -0.724  0.00  0.00    -0.166 F 
ENDBRANCH   3  17
BRANCH   5  21
ATOM     21  N   UNL     1       9.178  -1.835  -0.133  0.00  0.00    -0.358 N 
ATOM     22  H   UNL     1      10.098  -2.143  -0.147  0.00  0.00    +0.142 HD
ATOM     23  H   UNL     1       8.451  -2.478  -0.135  0.00  0.00    +0.142 HD
ENDBRANCH   5  21
TORSDOF 4
