REMARK  Name = ZINC60366853
REMARK  6 active torsions:
REMARK  status: ('A' for Active; 'I' for Inactive)
REMARK    1  A    between atoms: C_5  and  C_7
REMARK    2  A    between atoms: C_7  and  C_9
REMARK    3  A    between atoms: C_7  and  O_24
REMARK    4  A    between atoms: C_9  and  N_10
REMARK    5  A    between atoms: N_10  and  C_11
REMARK    6  A    between atoms: C_11  and  C_12
REMARK                            x       y       z     vdW  Elec       q    Type
REMARK                         _______ _______ _______ _____ _____    ______ ____
ROOT
ATOM      1  N   UNL     1       1.514  -4.165   1.392  0.00  0.00    +0.383 N 
ATOM      2  H   UNL     1       0.696  -4.576   0.969  0.00  0.00    -0.085 HD
ATOM      3  H   UNL     1       2.332  -4.418   0.858  0.00  0.00    -0.085 HD
ENDROOT
BRANCH   1   4
ATOM      4  C   UNL     1       1.375  -2.703   1.411  0.00  0.00    -0.046 C 
BRANCH   4   5
ATOM      5  C   UNL     1       1.228  -2.186  -0.022  0.00  0.00    +0.130 C 
BRANCH   5  10
ATOM      6  C   UNL     1      -0.017   1.378   0.010  0.00  0.00    +0.001 A 
ATOM      7  C   UNL     1       1.171   2.087   0.002  0.00  0.00    +0.003 A 
ATOM      8  C   UNL     1       2.377   1.414  -0.013  0.00  0.00    +0.039 A 
ATOM      9  C   UNL     1       2.397   0.029  -0.021  0.00  0.00    +0.129 A 
ATOM     10  C   UNL     1       1.208  -0.679  -0.013  0.00  0.00    +0.014 A 
ATOM     11  C   UNL     1       0.002  -0.004   0.002  0.00  0.00    +0.009 A 
ATOM     12  F   UNL     1       3.577  -0.630  -0.036  0.00  0.00    -0.205 F 
ENDBRANCH   5  10
BRANCH   5  13
ATOM     13  O   UNL     1       0.008  -2.676  -0.582  0.00  0.00    -0.389 OA
ATOM     14  H   UNL     1      -0.784  -2.404  -0.099  0.00  0.00    +0.210 HD
ENDBRANCH   5  13
ENDBRANCH   4   5
ENDBRANCH   1   4
BRANCH   1  15
ATOM     15  C   UNL     1       1.655  -4.661   2.768  0.00  0.00    -0.048 C 
BRANCH  15  16
ATOM     16  C   UNL     1       1.799  -6.161   2.749  0.00  0.00    -0.049 C 
ATOM     17  C   UNL     1       3.009  -6.711   2.769  0.00  0.00    +0.012 C 
ATOM     18  C   UNL     1       3.111  -8.184   2.713  0.00  0.00    +0.020 A 
ATOM     19  C   UNL     1       4.299  -8.841   3.013  0.00  0.00    +0.031 A 
ATOM     20  C   UNL     1       4.347 -10.222   2.962  0.00  0.00    +0.043 A 
ATOM     21  C   UNL     1       3.220 -10.948   2.614  0.00  0.00    +0.043 A 
ATOM     22  C   UNL     1       2.035 -10.301   2.308  0.00  0.00    +0.084 A 
ATOM     23  C   UNL     1       1.975  -8.920   2.349  0.00  0.00    +0.146 A 
ATOM     24  O   UNL     1       0.838  -8.253   2.020  0.00  0.00    -0.486 OA
ATOM     25  C   UNL     1       0.571  -7.031   2.713  0.00  0.00    +0.258 C 
ATOM     26 CL   UNL     1       0.629 -11.221   1.873  0.00  0.00    -0.080 Cl
ATOM     27 CL   UNL     1       5.828 -11.049   3.333  0.00  0.00    -0.083 Cl
ENDBRANCH  15  16
ENDBRANCH   1  15
TORSDOF 6
