REMARK  Name = ZINC39314800
REMARK  3 active torsions:
REMARK  status: ('A' for Active; 'I' for Inactive)
REMARK    1  A    between atoms: C_6  and  C_7
REMARK    2  A    between atoms: C_7  and  N_8
REMARK    3  A    between atoms: C_16  and  C_18
REMARK                            x       y       z     vdW  Elec       q    Type
REMARK                         _______ _______ _______ _____ _____    ______ ____
ROOT
ATOM      1  N   UNL     1      -1.804  -1.016  -1.413  0.00  0.00    -0.305 N 
ATOM      2  C   UNL     1      -2.676  -0.267  -2.216  0.00  0.00    +0.054 A 
ATOM      3  C   UNL     1      -3.410   0.877  -1.926  0.00  0.00    +0.046 A 
ATOM      4  C   UNL     1      -4.216   1.448  -2.894  0.00  0.00    +0.061 A 
ATOM      5  C   UNL     1      -4.295   0.882  -4.155  0.00  0.00    +0.061 A 
ATOM      6  C   UNL     1      -3.568  -0.256  -4.450  0.00  0.00    +0.046 A 
ATOM      7  C   UNL     1      -2.755  -0.836  -3.483  0.00  0.00    +0.051 A 
ATOM      8  N   UNL     1      -1.936  -1.973  -3.545  0.00  0.00    -0.323 N 
ATOM      9  C   UNL     1      -1.298  -2.123  -2.232  0.00  0.00    +0.175 C 
ATOM     10 CL   UNL     1      -5.309   1.602  -5.366  0.00  0.00    -0.082 Cl
ATOM     11 CL   UNL     1      -5.132   2.877  -2.526  0.00  0.00    -0.082 Cl
ATOM     12  H   UNL     1      -1.812  -2.551  -4.314  0.00  0.00    +0.148 HD
ENDROOT
BRANCH   9  13
ATOM     13  C   UNL     1      -1.690  -3.464  -1.608  0.00  0.00    +0.138 C 
ATOM     14  C   UNL     1      -0.977  -4.564  -2.371  0.00  0.00    -0.010 C 
ATOM     15  C   UNL     1      -1.737  -5.508  -2.946  0.00  0.00    +0.014 C 
ATOM     16  C   UNL     1      -3.141  -5.474  -2.842  0.00  0.00    +0.100 C 
ATOM     17  N   UNL     1      -3.806  -4.553  -2.199  0.00  0.00    -0.188 NA
ATOM     18  C   UNL     1      -3.203  -3.537  -1.568  0.00  0.00    +0.246 C 
ATOM     19  O   UNL     1      -3.853  -2.697  -0.979  0.00  0.00    -0.273 OA
ENDBRANCH   9  13
BRANCH   1  20
ATOM     20  C   UNL     1      -1.456  -0.740  -0.017  0.00  0.00    +0.142 C 
BRANCH  20  26
ATOM     21  C   UNL     1      -0.233   1.443   0.016  0.00  0.00    +0.006 A 
ATOM     22  C   UNL     1       0.936   2.179   0.064  0.00  0.00    +0.020 A 
ATOM     23  C   UNL     1       2.158   1.533   0.131  0.00  0.00    +0.041 A 
ATOM     24  C   UNL     1       2.208   0.151   0.149  0.00  0.00    +0.020 A 
ATOM     25  C   UNL     1       1.039  -0.584   0.102  0.00  0.00    +0.006 A 
ATOM     26  C   UNL     1      -0.181   0.062   0.035  0.00  0.00    -0.030 A 
ATOM     27 CL   UNL     1       3.627   2.457   0.190  0.00  0.00    -0.084 Cl
ENDBRANCH  20  26
ENDBRANCH   1  20
TORSDOF 3
