REMARK  Name = ZINC18107265
REMARK  10 active torsions:
REMARK  status: ('A' for Active; 'I' for Inactive)
REMARK    1  A    between atoms: C_1  and  C_2
REMARK    2  A    between atoms: C_2  and  N_3
REMARK    3  A    between atoms: N_3  and  C_4
REMARK    4  A    between atoms: N_3  and  C_6
REMARK    5  A    between atoms: C_4  and  C_5
REMARK    6  A    between atoms: C_9  and  C_12
REMARK    7  A    between atoms: C_17  and  C_32
REMARK    8  A    between atoms: C_29  and  C_31
REMARK    9  A    between atoms: C_35  and  O_38
REMARK   10  A    between atoms: O_38  and  C_39
REMARK                            x       y       z     vdW  Elec       q    Type
REMARK                         _______ _______ _______ _____ _____    ______ ____
ROOT
ATOM      1  C   UNL     1       0.027  -6.324  -1.681  0.00  0.00    +0.032 C 
ATOM      2  C   UNL     1      -1.479  -6.595  -1.786  0.00  0.00    +0.088 C 
ATOM      3  C   UNL     1      -1.686  -8.066  -1.990  0.00  0.00    +0.163 C 
ATOM      4  C   UNL     1      -0.718  -8.889  -2.614  0.00  0.00    +0.037 C 
ATOM      5  C   UNL     1      -1.118 -10.342  -2.700  0.00  0.00    +0.146 C 
ATOM      6  N   UNL     1      -0.047 -11.236  -3.089  0.00  0.00    -0.258 N 
ATOM      7  C   UNL     1       0.543 -11.149  -4.351  0.00  0.00    +0.058 A 
ATOM      8  C   UNL     1       0.432 -12.176  -5.274  0.00  0.00    +0.025 A 
ATOM      9  C   UNL     1       0.996 -12.026  -6.529  0.00  0.00    +0.002 A 
ATOM     10  C   UNL     1       1.662 -10.860  -6.862  0.00  0.00    +0.002 A 
ATOM     11  C   UNL     1       1.789  -9.839  -5.936  0.00  0.00    +0.025 A 
ATOM     12  C   UNL     1       1.244  -9.997  -4.674  0.00  0.00    +0.053 A 
ATOM     13  N   UNL     1       1.428  -9.060  -3.664  0.00  0.00    -0.316 N 
ATOM     14  C   UNL     1       0.429  -8.359  -3.067  0.00  0.00    +0.017 C 
ATOM     15  C   UNL     1       0.688  -6.865  -2.947  0.00  0.00    +0.059 C 
ATOM     16  C   UNL     1       0.387 -12.167  -2.217  0.00  0.00    +0.218 C 
ATOM     17  O   UNL     1      -0.118 -12.252  -1.118  0.00  0.00    -0.276 OA
ATOM     18  C   UNL     1       1.501 -13.104  -2.608  0.00  0.00    +0.110 C 
ATOM     19  O   UNL     1      -2.724  -8.570  -1.607  0.00  0.00    -0.292 OA
ATOM     20  H   UNL     1       2.335  -8.895  -3.364  0.00  0.00    +0.152 HD
ENDROOT
BRANCH   1  24
ATOM     21  C   UNL     1       0.723  -2.121  -1.370  0.00  0.00    +0.013 A 
ATOM     22  C   UNL     1       1.155  -2.969  -0.367  0.00  0.00    +0.022 A 
ATOM     23  C   UNL     1       0.929  -4.329  -0.468  0.00  0.00    +0.006 A 
ATOM     24  C   UNL     1       0.272  -4.841  -1.571  0.00  0.00    -0.043 A 
ATOM     25  C   UNL     1      -0.160  -3.993  -2.573  0.00  0.00    +0.006 A 
ATOM     26  C   UNL     1       0.061  -2.632  -2.471  0.00  0.00    +0.022 A 
BRANCH  21  27
ATOM     27  N   UNL     1       0.952  -0.745  -1.268  0.00  0.00    -0.394 NA
ATOM     28  H   UNL     1       0.570  -0.280  -2.079  0.00  0.00    +0.126 HD
BRANCH  27  30
ATOM     29  C   UNL     1      -1.217  -0.360  -0.197  0.00  0.00    +0.022 C 
ATOM     30  C   UNL     1       0.301  -0.229  -0.056  0.00  0.00    +0.081 C 
ENDBRANCH  27  30
BRANCH  27  31
ATOM     31  C   UNL     1       2.397  -0.493  -1.194  0.00  0.00    +0.081 C 
ATOM     32  C   UNL     1       3.057  -0.917  -2.507  0.00  0.00    +0.022 C 
ENDBRANCH  27  31
ENDBRANCH  21  27
ENDBRANCH   1  24
BRANCH   5  33
ATOM     33  C   UNL     1      -2.234 -10.473  -3.705  0.00  0.00    -0.022 A 
ATOM     34  C   UNL     1      -3.482 -10.908  -3.299  0.00  0.00    +0.009 A 
ATOM     35  C   UNL     1      -4.505 -11.028  -4.218  0.00  0.00    +0.046 A 
ATOM     36  C   UNL     1      -4.281 -10.712  -5.550  0.00  0.00    +0.120 A 
ATOM     37  C   UNL     1      -3.028 -10.275  -5.955  0.00  0.00    +0.046 A 
ATOM     38  C   UNL     1      -2.009 -10.152  -5.031  0.00  0.00    +0.009 A 
BRANCH  36  39
ATOM     39  O   UNL     1      -5.286 -10.830  -6.457  0.00  0.00    -0.495 OA
ATOM     40  C   UNL     1      -4.983 -10.488  -7.811  0.00  0.00    +0.277 C 
ENDBRANCH  36  39
ENDBRANCH   5  33
TORSDOF 6
