REMARK  Name = ZINC02278808
REMARK  5 active torsions:
REMARK  status: ('A' for Active; 'I' for Inactive)
REMARK    1  A    between atoms: C_1  and  C_2
REMARK    2  A    between atoms: C_5  and  N_14
REMARK    3  A    between atoms: N_14  and  C_15
REMARK    4  A    between atoms: C_21  and  C_23
REMARK    5  A    between atoms: C_23  and  N_24
REMARK                            x       y       z     vdW  Elec       q    Type
REMARK                         _______ _______ _______ _____ _____    ______ ____
ROOT
ATOM      1  N   UNL     1       1.302  -2.561   2.458  0.00  0.00    -0.263 N 
ATOM      2  C   UNL     1       0.725  -2.246   3.634  0.00  0.00    +0.238 C 
ATOM      3  O   UNL     1      -0.300  -1.597   3.653  0.00  0.00    -0.273 OA
ENDROOT
BRANCH   1   7
ATOM      4  C   UNL     1       0.011   1.594   0.103  0.00  0.00    +0.028 C 
ATOM      5  C   UNL     1      -0.012   0.064   0.076  0.00  0.00    +0.069 C 
ATOM      6  C   UNL     1       0.741  -0.488   1.294  0.00  0.00    +0.049 C 
ATOM      7  C   UNL     1       0.765  -2.014   1.209  0.00  0.00    +0.115 C 
ATOM      8  C   UNL     1      -0.625  -2.552   0.988  0.00  0.00    -0.006 A 
ATOM      9  C   UNL     1      -0.891  -3.873   1.306  0.00  0.00    +0.007 A 
ATOM     10  C   UNL     1      -2.154  -4.396   1.112  0.00  0.00    +0.000 A 
ATOM     11  C   UNL     1      -3.163  -3.602   0.597  0.00  0.00    +0.002 A 
ATOM     12  C   UNL     1      -2.907  -2.284   0.278  0.00  0.00    +0.023 A 
ATOM     13  C   UNL     1      -1.636  -1.755   0.474  0.00  0.00    +0.032 A 
ATOM     14  N   UNL     1      -1.399  -0.414   0.150  0.00  0.00    -0.341 N 
ATOM     15  H   UNL     1      -2.138   0.190  -0.021  0.00  0.00    +0.146 HD
ENDBRANCH   1   7
BRANCH   1  16
ATOM     16  C   UNL     1       2.414  -3.409   2.429  0.00  0.00    +0.037 A 
ATOM     17  C   UNL     1       3.646  -2.928   2.005  0.00  0.00    +0.023 A 
ATOM     18  C   UNL     1       4.742  -3.767   1.982  0.00  0.00    +0.002 A 
ATOM     19  C   UNL     1       4.613  -5.087   2.373  0.00  0.00    +0.000 A 
ATOM     20  C   UNL     1       3.387  -5.571   2.791  0.00  0.00    +0.002 A 
ATOM     21  C   UNL     1       2.287  -4.736   2.820  0.00  0.00    +0.023 A 
ENDBRANCH   1  16
BRANCH   2  22
ATOM     22  C   UNL     1       1.352  -2.699   4.927  0.00  0.00    +0.213 C 
BRANCH  22  23
ATOM     23  N   UNL     1       0.610  -2.132   6.056  0.00  0.00    -0.225 N 
ATOM     24  C   UNL     1       0.891  -0.951   6.636  0.00  0.00    +0.254 C 
ATOM     25  O   UNL     1       1.786  -0.197   6.311  0.00  0.00    -0.270 OA
ATOM     26  C   UNL     1      -0.074  -0.723   7.732  0.00  0.00    +0.049 A 
ATOM     27  C   UNL     1      -0.271   0.294   8.652  0.00  0.00    +0.014 A 
ATOM     28  C   UNL     1      -1.296   0.193   9.579  0.00  0.00    +0.001 A 
ATOM     29  C   UNL     1      -2.123  -0.915   9.592  0.00  0.00    +0.001 A 
ATOM     30  C   UNL     1      -1.938  -1.940   8.678  0.00  0.00    +0.014 A 
ATOM     31  C   UNL     1      -0.917  -1.853   7.745  0.00  0.00    +0.049 A 
ATOM     32  C   UNL     1      -0.439  -2.727   6.652  0.00  0.00    +0.254 C 
ATOM     33  O   UNL     1      -0.913  -3.802   6.345  0.00  0.00    -0.270 OA
ENDBRANCH  22  23
ENDBRANCH   2  22
TORSDOF 4
