REMARK  Name = ZINC39514924
REMARK  5 active torsions:
REMARK  status: ('A' for Active; 'I' for Inactive)
REMARK    1  A    between atoms: C_1  and  C_2
REMARK    2  A    between atoms: C_2  and  C_4
REMARK    3  A    between atoms: C_2  and  N_20
REMARK    4  A    between atoms: N_9  and  C_10
REMARK    5  A    between atoms: C_24  and  O_27
REMARK                            x       y       z     vdW  Elec       q    Type
REMARK                         _______ _______ _______ _____ _____    ______ ____
ROOT
ATOM      1  C   UNL     1       0.673  -0.401   1.292  0.00  0.00    +0.207 C 
ATOM      2  O   UNL     1       0.041  -0.974   2.153  0.00  0.00    -0.277 OA
ATOM      3  N   UNL     1       1.977  -0.120   1.487  0.00  0.00    -0.242 N 
ATOM      4  C   UNL     1       2.577  -0.475   2.640  0.00  0.00    +0.306 C 
ATOM      5  O   UNL     1       1.943  -1.049   3.504  0.00  0.00    -0.252 OA
ATOM      6  N   UNL     1       3.881  -0.194   2.836  0.00  0.00    -0.294 N 
ATOM      7  H   UNL     1       2.483   0.338   0.798  0.00  0.00    +0.159 HD
ATOM      8  H   UNL     1       4.387   0.264   2.146  0.00  0.00    +0.151 HD
ENDROOT
BRANCH   6   9
ATOM      9  C   UNL     1       4.533  -0.581   4.089  0.00  0.00    +0.037 C 
ATOM     10  C   UNL     1       4.453  -2.099   4.259  0.00  0.00    +0.029 C 
ATOM     11  C   UNL     1       5.135  -2.502   5.569  0.00  0.00    -0.008 C 
ATOM     12  C   UNL     1       6.602  -2.070   5.534  0.00  0.00    +0.007 C 
ATOM     13  C   UNL     1       6.682  -0.551   5.364  0.00  0.00    -0.008 C 
ATOM     14  C   UNL     1       6.001  -0.148   4.055  0.00  0.00    +0.029 C 
ATOM     15  C   UNL     1       5.977   0.132   6.537  0.00  0.00    +0.007 C 
ATOM     16  C   UNL     1       4.510  -0.301   6.572  0.00  0.00    -0.008 C 
ATOM     17  C   UNL     1       4.429  -1.819   6.742  0.00  0.00    +0.007 C 
ATOM     18  C   UNL     1       3.828   0.102   5.263  0.00  0.00    +0.029 C 
ENDBRANCH   6   9
BRANCH   1  20
ATOM     19  C   UNL     1      -0.557   1.414   0.134  0.00  0.00    -0.004 C 
ATOM     20  C   UNL     1       0.002  -0.004   0.002  0.00  0.00    +0.017 C 
BRANCH  20  21
ATOM     21  N   UNL     1      -1.094  -0.938  -0.287  0.00  0.00    +0.389 N 
ATOM     22  C   UNL     1      -0.559  -2.300  -0.395  0.00  0.00    -0.078 C 
ATOM     23  C   UNL     1      -1.707  -3.288  -0.616  0.00  0.00    -0.016 C 
ATOM     24  C   UNL     1      -2.445  -2.924  -1.907  0.00  0.00    +0.027 C 
ATOM     25  C   UNL     1      -2.934  -1.476  -1.813  0.00  0.00    +0.098 C 
ATOM     26  C   UNL     1      -1.741  -0.556  -1.548  0.00  0.00    -0.046 C 
ATOM     27  H   UNL     1      -1.771  -0.903   0.461  0.00  0.00    -0.081 HD
BRANCH  25  28
ATOM     28  O   UNL     1      -3.562  -1.103  -3.042  0.00  0.00    -0.394 OA
ATOM     29  H   UNL     1      -4.326  -1.648  -3.275  0.00  0.00    +0.210 HD
ENDBRANCH  25  28
ENDBRANCH  20  21
ENDBRANCH   1  20
TORSDOF 4
