REMARK  Name = ZINC40853791
REMARK  7 active torsions:
REMARK  status: ('A' for Active; 'I' for Inactive)
REMARK    1  A    between atoms: C_1  and  C_2
REMARK    2  A    between atoms: C_2  and  O_3
REMARK    3  A    between atoms: O_3  and  C_4
REMARK    4  A    between atoms: C_4  and  C_6
REMARK    5  A    between atoms: C_10  and  N_11
REMARK    6  A    between atoms: N_14  and  N_15
REMARK    7  A    between atoms: C_16  and  C_17
REMARK                            x       y       z     vdW  Elec       q    Type
REMARK                         _______ _______ _______ _____ _____    ______ ____
ROOT
ATOM      1  N   UNL     1      -0.577  -2.410  -4.054  0.00  0.00    -0.262 N 
ATOM      2  C   UNL     1      -1.039  -2.183  -5.300  0.00  0.00    +0.324 C 
ATOM      3  O   UNL     1      -0.272  -2.182  -6.242  0.00  0.00    -0.251 OA
ATOM      4  N   UNL     1      -2.353  -1.956  -5.500  0.00  0.00    -0.191 N 
ATOM      5  H   UNL     1      -1.190  -2.410  -3.302  0.00  0.00    +0.157 HD
ATOM      6  H   UNL     1      -2.686  -1.793  -6.397  0.00  0.00    +0.179 HD
ENDROOT
BRANCH   1  11
ATOM      7  C   UNL     1       1.422  -2.892  -2.648  0.00  0.00    +0.091 A 
ATOM      8  C   UNL     1       2.858  -3.111  -2.703  0.00  0.00    -0.021 A 
ATOM      9  C   UNL     1       3.381  -3.034  -3.945  0.00  0.00    -0.004 A 
ATOM     10  S   UNL     1       2.001  -2.683  -4.993  0.00  0.00    -0.077 S 
ATOM     11  C   UNL     1       0.773  -2.642  -3.848  0.00  0.00    +0.088 A 
ATOM     12  C   UNL     1       4.818  -3.210  -4.328  0.00  0.00    +0.043 C 
ATOM     13  C   UNL     1       5.671  -3.118  -3.054  0.00  0.00    +0.005 C 
ATOM     14  C   UNL     1       5.051  -4.012  -1.977  0.00  0.00    +0.005 C 
ATOM     15  C   UNL     1       3.732  -3.405  -1.493  0.00  0.00    +0.037 C 
BRANCH   7  16
ATOM     16  C   UNL     1       0.691  -2.939  -1.380  0.00  0.00    +0.342 C 
ATOM     17  O   UNL     1       0.229  -3.992  -0.984  0.00  0.00    -0.245 OA
BRANCH  16  18
ATOM     18  O   UNL     1       0.530  -1.815  -0.652  0.00  0.00    -0.461 OA
BRANCH  18  20
ATOM     19  C   UNL     1      -0.273  -0.566   1.254  0.00  0.00    +0.048 C 
ATOM     20  C   UNL     1      -0.194  -1.934   0.574  0.00  0.00    +0.229 C 
ENDBRANCH  18  20
ENDBRANCH  16  18
ENDBRANCH   7  16
ENDBRANCH   1  11
BRANCH   4  21
ATOM     21  N   UNL     1      -3.238  -1.957  -4.414  0.00  0.00    -0.186 NA
ATOM     22  C   UNL     1      -4.515  -1.857  -4.618  0.00  0.00    +0.138 C 
BRANCH  22  23
ATOM     23  C   UNL     1      -5.082  -2.214  -5.932  0.00  0.00    -0.004 A 
ATOM     24  C   UNL     1      -4.313  -2.919  -6.860  0.00  0.00    +0.009 A 
ATOM     25  C   UNL     1      -4.850  -3.250  -8.087  0.00  0.00    +0.002 A 
ATOM     26  C   UNL     1      -6.147  -2.885  -8.399  0.00  0.00    +0.015 A 
ATOM     27  C   UNL     1      -6.916  -2.186  -7.484  0.00  0.00    +0.018 A 
ATOM     28  C   UNL     1      -6.394  -1.854  -6.251  0.00  0.00    +0.024 A 
ATOM     29 BR   UNL     1      -8.688  -1.692  -7.923  0.00  0.00    -0.050 Br
ENDBRANCH  22  23
ENDBRANCH   4  21
TORSDOF 6
