REMARK  Name = ZINC38546597
REMARK  10 active torsions:
REMARK  status: ('A' for Active; 'I' for Inactive)
REMARK    1  A    between atoms: C_1  and  C_2
REMARK    2  A    between atoms: C_2  and  N_3
REMARK    3  A    between atoms: N_6  and  C_9
REMARK    4  A    between atoms: C_9  and  C_11
REMARK    5  A    between atoms: C_9  and  C_20
REMARK    6  A    between atoms: C_14  and  C_17
REMARK    7  A    between atoms: C_17  and  C_18
REMARK    8  A    between atoms: C_17  and  C_19
REMARK    9  A    between atoms: C_24  and  N_25
REMARK   10  A    between atoms: C_26  and  C_28
REMARK                            x       y       z     vdW  Elec       q    Type
REMARK                         _______ _______ _______ _____ _____    ______ ____
ROOT
ATOM      1  C   UNL     1       3.483  -2.463  -3.743  0.00  0.00    +0.120 C 
ENDROOT
BRANCH   1   2
ATOM      2  C   UNL     1       3.612  -3.963  -3.674  0.00  0.00    +0.006 A 
ATOM      3  C   UNL     1       4.870  -4.562  -3.749  0.00  0.00    -0.030 A 
ATOM      4  C   UNL     1       4.904  -5.920  -3.680  0.00  0.00    -0.005 A 
ATOM      5  S   UNL     1       3.201  -6.380  -3.510  0.00  0.00    -0.078 S 
ATOM      6  C   UNL     1       2.502  -4.736  -3.533  0.00  0.00    +0.078 A 
ATOM      7  C   UNL     1       6.107  -6.805  -3.738  0.00  0.00    +0.043 C 
ATOM      8  C   UNL     1       7.292  -5.976  -4.257  0.00  0.00    +0.005 C 
ATOM      9  C   UNL     1       7.339  -4.652  -3.489  0.00  0.00    +0.005 C 
ATOM     10  C   UNL     1       6.163  -3.766  -3.901  0.00  0.00    +0.036 C 
BRANCH   6  11
ATOM     11  N   UNL     1       1.165  -4.347  -3.433  0.00  0.00    -0.273 N 
ATOM     12  C   UNL     1       0.191  -5.279  -3.414  0.00  0.00    +0.284 C 
ATOM     13  O   UNL     1       0.478  -6.460  -3.483  0.00  0.00    -0.266 OA
ATOM     14  H   UNL     1       0.937  -3.406  -3.378  0.00  0.00    +0.156 HD
BRANCH  12  15
ATOM     15  C   UNL     1      -1.213  -4.869  -3.309  0.00  0.00    +0.189 A 
ATOM     16  C   UNL     1      -2.292  -5.706  -3.274  0.00  0.00    +0.054 A 
ATOM     17  C   UNL     1      -3.430  -4.891  -3.170  0.00  0.00    +0.042 A 
ATOM     18  C   UNL     1      -3.002  -3.610  -3.147  0.00  0.00    +0.196 A 
ATOM     19  O   UNL     1      -1.665  -3.601  -3.226  0.00  0.00    -0.458 OA
ENDBRANCH  12  15
ENDBRANCH   6  11
ENDBRANCH   1   2
BRANCH   1  23
ATOM     20  N   UNL     1       1.751  -0.570  -0.384  0.00  0.00    +0.381 N 
ATOM     21  C   UNL     1       1.852  -2.036  -0.375  0.00  0.00    -0.063 C 
ATOM     22  C   UNL     1       2.906  -2.481  -1.391  0.00  0.00    +0.067 C 
ATOM     23  N   UNL     1       2.524  -2.007  -2.728  0.00  0.00    -0.295 NA
ATOM     24  C   UNL     1       2.394  -0.543  -2.747  0.00  0.00    +0.067 C 
ATOM     25  C   UNL     1       1.345  -0.114  -1.720  0.00  0.00    -0.063 C 
ATOM     26  H   UNL     1       2.647  -0.170  -0.150  0.00  0.00    -0.082 HD
BRANCH  20  28
ATOM     27  C   UNL     1       1.235  -0.508   2.009  0.00  0.00    -0.017 C 
ATOM     28  C   UNL     1       0.752  -0.142   0.605  0.00  0.00    -0.082 C 
ENDBRANCH  20  28
ENDBRANCH   1  23
BRANCH   1  29
ATOM     29  C   UNL     1       2.996  -2.063  -5.112  0.00  0.00    -0.026 A 
ATOM     30  C   UNL     1       1.640  -1.999  -5.371  0.00  0.00    +0.006 A 
ATOM     31  C   UNL     1       1.193  -1.631  -6.626  0.00  0.00    +0.004 A 
ATOM     32  C   UNL     1       2.102  -1.328  -7.622  0.00  0.00    -0.045 A 
ATOM     33  C   UNL     1       3.459  -1.392  -7.363  0.00  0.00    +0.004 A 
ATOM     34  C   UNL     1       3.906  -1.755  -6.106  0.00  0.00    +0.006 A 
BRANCH  32  35
ATOM     35  C   UNL     1       1.615  -0.929  -8.991  0.00  0.00    +0.013 C 
ATOM     36  C   UNL     1       2.121   0.477  -9.323  0.00  0.00    +0.012 C 
ATOM     37  C   UNL     1       2.145  -1.919 -10.030  0.00  0.00    +0.012 C 
ENDBRANCH  32  35
ENDBRANCH   1  29
TORSDOF 7
