REMARK  Name = ZINC35957456
REMARK  6 active torsions:
REMARK  status: ('A' for Active; 'I' for Inactive)
REMARK    1  A    between atoms: C_4  and  C_7
REMARK    2  A    between atoms: C_7  and  C_8
REMARK    3  A    between atoms: C_8  and  C_10
REMARK    4  A    between atoms: C_8  and  N_16
REMARK    5  A    between atoms: C_17  and  C_19
REMARK    6  A    between atoms: N_33  and  C_34
REMARK                            x       y       z     vdW  Elec       q    Type
REMARK                         _______ _______ _______ _____ _____    ______ ____
ROOT
ATOM      1  C   UNL     1       4.315   1.650   4.490  0.00  0.00    +0.078 C 
ATOM      2  C   UNL     1       5.725   2.018   4.024  0.00  0.00    +0.032 C 
ATOM      3  C   UNL     1       6.099   3.396   4.579  0.00  0.00    +0.108 C 
ATOM      4  N   UNL     1       5.931   3.379   6.039  0.00  0.00    -0.302 N 
ATOM      5  C   UNL     1       4.641   2.953   6.596  0.00  0.00    +0.108 C 
ATOM      6  C   UNL     1       4.283   1.580   6.019  0.00  0.00    +0.032 C 
ATOM      7  C   UNL     1       6.966   3.756   6.869  0.00  0.00    +0.177 A 
ATOM      8  N   UNL     1       7.831   2.936   7.413  0.00  0.00    -0.327 N 
ATOM      9  C   UNL     1       8.712   3.640   8.171  0.00  0.00    +0.065 A 
ATOM     10  C   UNL     1       9.812   3.275   8.952  0.00  0.00    +0.028 A 
ATOM     11  C   UNL     1      10.527   4.244   9.620  0.00  0.00    +0.002 A 
ATOM     12  C   UNL     1      10.164   5.579   9.525  0.00  0.00    +0.002 A 
ATOM     13  C   UNL     1       9.081   5.955   8.758  0.00  0.00    +0.028 A 
ATOM     14  C   UNL     1       8.349   4.994   8.077  0.00  0.00    +0.068 A 
ATOM     15  N   UNL     1       7.244   5.039   7.243  0.00  0.00    -0.310 N 
ATOM     16  H   UNL     1       7.841   1.974   7.292  0.00  0.00    +0.169 HD
ENDROOT
BRANCH  15  17
ATOM     17  C   UNL     1       6.509   6.240   6.839  0.00  0.00    +0.090 C 
ATOM     18  C   UNL     1       7.469   7.249   6.175  0.00  0.00    +0.025 C 
ATOM     19  C   UNL     1       6.961   8.631   6.656  0.00  0.00    +0.002 C 
ATOM     20  C   UNL     1       6.549   8.351   8.123  0.00  0.00    +0.002 C 
ATOM     21  C   UNL     1       5.924   6.942   8.078  0.00  0.00    +0.025 C 
ENDBRANCH  15  17
BRANCH   1  23
ATOM     22  N   UNL     1       3.889   0.134   2.582  0.00  0.00    -0.308 N 
ATOM     23  C   UNL     1       3.930   0.310   3.918  0.00  0.00    +0.217 C 
ATOM     24  O   UNL     1       3.657  -0.610   4.660  0.00  0.00    -0.275 OA
ATOM     25  H   UNL     1       4.107   0.870   1.990  0.00  0.00    +0.149 HD
BRANCH  22  26
ATOM     26  C   UNL     1       3.515  -1.168   2.026  0.00  0.00    +0.107 C 
BRANCH  26  27
ATOM     27  C   UNL     1       4.732  -2.054   1.960  0.00  0.00    -0.027 A 
ATOM     28  C   UNL     1       5.952  -1.526   1.582  0.00  0.00    +0.005 A 
ATOM     29  C   UNL     1       7.069  -2.339   1.522  0.00  0.00    +0.000 A 
ATOM     30  C   UNL     1       6.965  -3.680   1.840  0.00  0.00    +0.000 A 
ATOM     31  C   UNL     1       5.745  -4.208   2.219  0.00  0.00    +0.000 A 
ATOM     32  C   UNL     1       4.630  -3.395   2.284  0.00  0.00    +0.005 A 
ENDBRANCH  26  27
BRANCH  26  33
ATOM     33  C   UNL     1       2.946  -0.978   0.619  0.00  0.00    +0.062 C 
BRANCH  33  37
ATOM     34  C   UNL     1      -0.696   1.243   0.841  0.00  0.00    +0.000 A 
ATOM     35  C   UNL     1       0.509   1.904   0.696  0.00  0.00    +0.000 A 
ATOM     36  C   UNL     1       1.688   1.186   0.624  0.00  0.00    +0.004 A 
ATOM     37  C   UNL     1       1.661  -0.194   0.698  0.00  0.00    -0.045 A 
ATOM     38  C   UNL     1       0.457  -0.856   0.845  0.00  0.00    +0.004 A 
ATOM     39  C   UNL     1      -0.722  -0.137   0.915  0.00  0.00    +0.000 A 
ENDBRANCH  33  37
ENDBRANCH  26  33
ENDBRANCH  22  26
ENDBRANCH   1  23
TORSDOF 6
