REMARK  Name = ZINC23954098
REMARK  7 active torsions:
REMARK  status: ('A' for Active; 'I' for Inactive)
REMARK    1  A    between atoms: C_1  and  C_2
REMARK    2  A    between atoms: C_2  and  C_3
REMARK    3  A    between atoms: C_3  and  C_23
REMARK    4  A    between atoms: N_6  and  N_10
REMARK    5  A    between atoms: C_11  and  C_13
REMARK    6  A    between atoms: C_13  and  C_14
REMARK    7  A    between atoms: C_19  and  N_20
REMARK                            x       y       z     vdW  Elec       q    Type
REMARK                         _______ _______ _______ _____ _____    ______ ____
ROOT
ATOM      1  C   UNL     1      -0.030   3.185   1.034  0.00  0.00    +0.139 C 
ATOM      2  C   UNL     1       1.458   3.148   0.745  0.00  0.00    +0.268 C 
ATOM      3  O   UNL     1       2.202   4.096   0.616  0.00  0.00    -0.271 OA
ATOM      4  N   UNL     1       1.781   1.842   0.664  0.00  0.00    -0.137 N 
ATOM      5  C   UNL     1       0.715   1.057   0.859  0.00  0.00    +0.327 C 
ATOM      6  O   UNL     1       0.757  -0.157   0.834  0.00  0.00    -0.251 OA
ATOM      7  N   UNL     1      -0.409   1.762   1.081  0.00  0.00    -0.280 N 
ATOM      8  H   UNL     1      -1.454   1.477   1.271  0.00  0.00    +0.152 HD
ENDROOT
BRANCH   1   9
ATOM      9  C   UNL     1      -0.768   3.892  -0.074  0.00  0.00    -0.015 A 
ATOM     10  C   UNL     1      -0.987   5.254   0.001  0.00  0.00    +0.006 A 
ATOM     11  C   UNL     1      -1.659   5.904  -1.018  0.00  0.00    +0.000 A 
ATOM     12  C   UNL     1      -2.121   5.188  -2.107  0.00  0.00    +0.000 A 
ATOM     13  C   UNL     1      -1.907   3.825  -2.179  0.00  0.00    +0.000 A 
ATOM     14  C   UNL     1      -1.230   3.176  -1.163  0.00  0.00    +0.006 A 
ENDBRANCH   1   9
BRANCH   4  15
ATOM     15  N   UNL     1       3.073   1.366   0.408  0.00  0.00    -0.223 N 
ATOM     16  C   UNL     1       3.380   0.869  -0.806  0.00  0.00    +0.234 C 
ATOM     17  O   UNL     1       2.537   0.833  -1.678  0.00  0.00    -0.274 OA
ATOM     18  H   UNL     1       3.838   1.398   1.198  0.00  0.00    +0.174 HD
BRANCH  16  19
ATOM     19  C   UNL     1       4.770   0.356  -1.082  0.00  0.00    +0.134 C 
BRANCH  19  20
ATOM     20  C   UNL     1       4.850  -0.141  -2.502  0.00  0.00    -0.008 A 
ATOM     21  C   UNL     1       4.777  -1.497  -2.765  0.00  0.00    +0.006 A 
ATOM     22  C   UNL     1       4.850  -1.953  -4.068  0.00  0.00    +0.000 A 
ATOM     23  C   UNL     1       4.996  -1.054  -5.108  0.00  0.00    +0.002 A 
ATOM     24  C   UNL     1       5.069   0.301  -4.845  0.00  0.00    +0.033 A 
ATOM     25  C   UNL     1       4.991   0.758  -3.542  0.00  0.00    +0.130 A 
BRANCH  25  26
ATOM     26  N   UNL     1       5.063   2.209  -3.261  0.00  0.00    +0.057 N 
ATOM     27  O   UNL     1       5.298   2.993  -4.163  0.00  0.00    -0.126 OA
ATOM     28  O   UNL     1       4.887   2.620  -2.128  0.00  0.00    -0.126 OA
ENDBRANCH  25  26
ENDBRANCH  19  20
ENDBRANCH  16  19
ENDBRANCH   4  15
BRANCH   1  30
ATOM     29  C   UNL     1       0.415   3.096   3.490  0.00  0.00    +0.007 C 
ATOM     30  C   UNL     1      -0.302   3.864   2.377  0.00  0.00    +0.037 C 
ENDBRANCH   1  30
TORSDOF 6
