REMARK  Name = ZINC50997956
REMARK  6 active torsions:
REMARK  status: ('A' for Active; 'I' for Inactive)
REMARK    1  A    between atoms: C_1  and  C_2
REMARK    2  A    between atoms: C_2  and  C_3
REMARK    3  A    between atoms: C_3  and  C_4
REMARK    4  A    between atoms: C_6  and  C_13
REMARK    5  A    between atoms: N_8  and  C_9
REMARK    6  A    between atoms: C_9  and  C_10
REMARK                            x       y       z     vdW  Elec       q    Type
REMARK                         _______ _______ _______ _____ _____    ______ ____
ROOT
ATOM      1  C   UNL     1       0.762  -2.018   1.233  0.00  0.00    +0.077 C 
ATOM      2  N   UNL     1      -0.153  -2.740   1.775  0.00  0.00    -0.363 N 
ATOM      3  C   UNL     1       0.197  -4.154   1.572  0.00  0.00    +0.175 C 
ATOM      4  C   UNL     1       1.502  -4.098   0.802  0.00  0.00    +0.101 C 
ATOM      5  N   UNL     1       1.753  -2.752   0.644  0.00  0.00    -0.267 N 
ATOM      6  N   UNL     1       2.217  -5.090   0.384  0.00  0.00    -0.388 N 
ATOM      7  H   UNL     1       1.931  -6.001   0.556  0.00  0.00    +0.157 HD
ATOM      8  H   UNL     1       3.041  -4.924  -0.102  0.00  0.00    +0.157 HD
ATOM      9  H   UNL     1      -0.939  -2.409   2.238  0.00  0.00    +0.162 HD
ENDROOT
BRANCH   3  10
ATOM     10  C   UNL     1       0.393  -4.846   2.897  0.00  0.00    +0.018 A 
ATOM     11  C   UNL     1       0.613  -4.101   4.040  0.00  0.00    +0.024 A 
ATOM     12  C   UNL     1       0.793  -4.735   5.255  0.00  0.00    +0.018 A 
ATOM     13  C   UNL     1       0.753  -6.116   5.328  0.00  0.00    +0.018 A 
ATOM     14  C   UNL     1       0.533  -6.862   4.186  0.00  0.00    +0.040 A 
ATOM     15  C   UNL     1       0.347  -6.228   2.970  0.00  0.00    +0.129 A 
ATOM     16  F   UNL     1       0.126  -6.956   1.853  0.00  0.00    -0.205 F 
ATOM     17 BR   UNL     1       1.095  -3.715   6.818  0.00  0.00    -0.050 Br
ENDBRANCH   3  10
BRANCH   1  18
ATOM     18  C   UNL     1       0.742  -0.511   1.242  0.00  0.00    +0.069 C 
BRANCH  18  20
ATOM     19  C   UNL     1      -0.019   1.526   0.010  0.00  0.00    +0.004 C 
ATOM     20  C   UNL     1       0.002  -0.004   0.002  0.00  0.00    +0.004 C 
ENDBRANCH  18  20
ENDBRANCH   1  18
BRANCH   5  21
ATOM     21  C   UNL     1       2.914  -2.190  -0.050  0.00  0.00    +0.201 C 
BRANCH  21  22
ATOM     22  C   UNL     1       4.014  -1.998   0.909  0.00  0.00    -0.086 C 
ATOM     23  C   UNL     1       4.892  -1.845   1.673  0.00  0.00    +0.005 C 
ENDBRANCH  21  22
ENDBRANCH   5  21
TORSDOF 5
