REMARK  Name = ZINC11970846
REMARK  5 active torsions:
REMARK  status: ('A' for Active; 'I' for Inactive)
REMARK    1  A    between atoms: C_6  and  C_7
REMARK    2  A    between atoms: C_7  and  C_8
REMARK    3  A    between atoms: N_10  and  C_11
REMARK    4  A    between atoms: C_11  and  C_12
REMARK    5  A    between atoms: C_19  and  C_22
REMARK                            x       y       z     vdW  Elec       q    Type
REMARK                         _______ _______ _______ _____ _____    ______ ____
ROOT
ATOM      1  C   UNL     1      -4.677   3.969   3.094  0.00  0.00    +0.195 C 
ATOM      2  C   UNL     1      -5.149   4.228   4.545  0.00  0.00    +0.085 C 
ATOM      3  C   UNL     1      -5.794   5.595   4.424  0.00  0.00    -0.000 A 
ATOM      4  C   UNL     1      -6.648   6.290   5.252  0.00  0.00    +0.027 A 
ATOM      5  C   UNL     1      -7.102   7.548   4.890  0.00  0.00    +0.042 A 
ATOM      6  C   UNL     1      -6.696   8.108   3.694  0.00  0.00    +0.032 A 
ATOM      7  C   UNL     1      -5.832   7.413   2.854  0.00  0.00    +0.026 A 
ATOM      8  C   UNL     1      -5.369   6.140   3.221  0.00  0.00    +0.132 A 
ATOM      9  O   UNL     1      -4.523   5.298   2.568  0.00  0.00    -0.486 OA
ATOM     10 CL   UNL     1      -8.177   8.420   5.937  0.00  0.00    -0.084 Cl
ENDROOT
BRANCH   7  11
ATOM     11  C   UNL     1      -5.399   8.018   1.571  0.00  0.00    -0.011 A 
ATOM     12  C   UNL     1      -4.045   8.074   1.224  0.00  0.00    +0.028 A 
ATOM     13  C   UNL     1      -3.687   8.641   0.019  0.00  0.00    +0.111 A 
ATOM     14  N   UNL     1      -4.599   9.135  -0.795  0.00  0.00    -0.263 NA
ATOM     15  C   UNL     1      -5.886   9.107  -0.503  0.00  0.00    +0.111 A 
ATOM     16  C   UNL     1      -6.332   8.554   0.679  0.00  0.00    +0.028 A 
ENDBRANCH   7  11
BRANCH   1  17
ATOM     17  C   UNL     1      -3.341   3.223   3.084  0.00  0.00    +0.149 C 
BRANCH  17  20
ATOM     18  C   UNL     1      -1.765   2.349   1.444  0.00  0.00    +0.217 C 
ATOM     19  O   UNL     1      -1.072   1.960   2.361  0.00  0.00    -0.275 OA
ATOM     20  N   UNL     1      -2.921   2.993   1.699  0.00  0.00    -0.312 N 
ATOM     21  H   UNL     1      -3.475   3.304   0.966  0.00  0.00    +0.149 HD
BRANCH  18  22
ATOM     22  C   UNL     1      -1.333   2.112   0.020  0.00  0.00    +0.131 C 
BRANCH  22  28
ATOM     23  C   UNL     1       0.002  -0.004   0.002  0.00  0.00    +0.008 A 
ATOM     24  C   UNL     1       1.207  -0.682  -0.014  0.00  0.00    +0.050 A 
ATOM     25  C   UNL     1       2.399   0.023  -0.022  0.00  0.00    +0.166 A 
ATOM     26  C   UNL     1       2.380   1.416  -0.014  0.00  0.00    +0.166 A 
ATOM     27  C   UNL     1       1.170   2.088   0.002  0.00  0.00    +0.053 A 
ATOM     28  C   UNL     1      -0.017   1.378   0.010  0.00  0.00    -0.035 A 
ATOM     29  O   UNL     1       3.668   1.870  -0.024  0.00  0.00    -0.453 OA
ATOM     30  C   UNL     1       4.475   0.746   0.373  0.00  0.00    +0.466 C 
ATOM     31  O   UNL     1       3.698  -0.395  -0.037  0.00  0.00    -0.453 OA
ENDBRANCH  22  28
ENDBRANCH  18  22
ENDBRANCH  17  20
ENDBRANCH   1  17
TORSDOF 5
