REMARK  Name = ZINC28156077
REMARK  10 active torsions:
REMARK  status: ('A' for Active; 'I' for Inactive)
REMARK    1  A    between atoms: C_1  and  C_2
REMARK    2  A    between atoms: C_2  and  C_3
REMARK    3  A    between atoms: C_6  and  C_9
REMARK    4  A    between atoms: C_12  and  C_34
REMARK    5  A    between atoms: C_19  and  C_22
REMARK    6  A    between atoms: C_22  and  C_23
REMARK    7  A    between atoms: N_25  and  C_26
REMARK    8  A    between atoms: C_28  and  C_33
REMARK    9  A    between atoms: C_31  and  C_32
REMARK   10  A    between atoms: C_37  and  C_40
REMARK                            x       y       z     vdW  Elec       q    Type
REMARK                         _______ _______ _______ _____ _____    ______ ____
ROOT
ATOM      1  C   UNL     1      -4.404  -7.973   2.603  0.00  0.00    +0.136 C 
ATOM      2  C   UNL     1      -4.172  -8.701   3.942  0.00  0.00    +0.087 C 
ATOM      3  C   UNL     1      -2.893  -8.092   4.471  0.00  0.00    +0.069 C 
ATOM      4  N   UNL     1      -2.459  -7.211   3.638  0.00  0.00    -0.182 NA
ATOM      5  N   UNL     1      -3.262  -7.049   2.511  0.00  0.00    -0.195 N 
ATOM      6  C   UNL     1      -3.026  -6.179   1.485  0.00  0.00    +0.170 C 
ATOM      7  N   UNL     1      -3.750  -5.987   0.390  0.00  0.00    -0.157 NA
ATOM      8  C   UNL     1      -3.453  -5.130  -0.548  0.00  0.00    +0.252 C 
ATOM      9  O   UNL     1      -4.143  -4.983  -1.537  0.00  0.00    -0.272 OA
ATOM     10  C   UNL     1      -2.180  -4.325  -0.316  0.00  0.00    +0.150 C 
ATOM     11  S   UNL     1      -1.668  -5.031   1.302  0.00  0.00    -0.078 S 
ENDROOT
BRANCH   3  12
ATOM     12  C   UNL     1      -2.240  -8.455   5.742  0.00  0.00    -0.002 A 
ATOM     13  C   UNL     1      -2.805  -9.430   6.568  0.00  0.00    +0.010 A 
ATOM     14  C   UNL     1      -2.186  -9.768   7.754  0.00  0.00    +0.004 A 
ATOM     15  C   UNL     1      -1.013  -9.137   8.130  0.00  0.00    -0.050 A 
ATOM     16  C   UNL     1      -0.451  -8.167   7.320  0.00  0.00    +0.004 A 
ATOM     17  C   UNL     1      -1.056  -7.822   6.129  0.00  0.00    +0.010 A 
ATOM     18  C   UNL     1      -0.346  -9.508   9.430  0.00  0.00    +0.044 C 
ENDBRANCH   3  12
BRANCH   1  22
ATOM     19  C   UNL     1      -4.358 -10.748  -0.644  0.00  0.00    -0.048 A 
ATOM     20  C   UNL     1      -5.558 -10.229  -0.195  0.00  0.00    +0.004 A 
ATOM     21  C   UNL     1      -5.573  -9.332   0.856  0.00  0.00    +0.006 A 
ATOM     22  C   UNL     1      -4.387  -8.952   1.458  0.00  0.00    -0.025 A 
ATOM     23  C   UNL     1      -3.187  -9.467   1.005  0.00  0.00    +0.006 A 
ATOM     24  C   UNL     1      -3.172 -10.369  -0.042  0.00  0.00    +0.004 A 
BRANCH  19  26
ATOM     25  C   UNL     1      -4.212 -10.964  -3.111  0.00  0.00    +0.009 C 
ATOM     26  C   UNL     1      -4.341 -11.727  -1.790  0.00  0.00    +0.032 C 
ENDBRANCH  19  26
ENDBRANCH   1  22
BRANCH  10  27
ATOM     27  C   UNL     1      -2.478  -2.828  -0.204  0.00  0.00    +0.120 C 
BRANCH  27  28
ATOM     28  C   UNL     1      -1.183  -2.065  -0.099  0.00  0.00    +0.219 C 
ATOM     29  O   UNL     1      -0.125  -2.659  -0.113  0.00  0.00    -0.275 OA
ATOM     30  N   UNL     1      -1.199  -0.722   0.010  0.00  0.00    -0.285 N 
ATOM     31  H   UNL     1      -2.158  -0.189   0.097  0.00  0.00    +0.155 HD
BRANCH  30  32
ATOM     32  C   UNL     1       0.003  -0.005   0.013  0.00  0.00    +0.037 A 
ATOM     33  C   UNL     1       1.136  -0.548   0.604  0.00  0.00    +0.027 A 
ATOM     34  C   UNL     1       2.320   0.162   0.605  0.00  0.00    -0.049 A 
ATOM     35  C   UNL     1       2.379   1.413   0.019  0.00  0.00    +0.004 A 
ATOM     36  C   UNL     1       1.253   1.956  -0.571  0.00  0.00    +0.005 A 
ATOM     37  C   UNL     1       0.065   1.251  -0.576  0.00  0.00    -0.029 A 
ATOM     38  C   UNL     1      -1.161   1.842  -1.224  0.00  0.00    +0.045 C 
ATOM     39  C   UNL     1       3.550  -0.427   1.247  0.00  0.00    +0.044 C 
ENDBRANCH  30  32
ENDBRANCH  27  28
ENDBRANCH  10  27
TORSDOF 6
