REMARK  Name = ZINC41740213
REMARK  10 active torsions:
REMARK  status: ('A' for Active; 'I' for Inactive)
REMARK    1  A    between atoms: C_1  and  C_2
REMARK    2  A    between atoms: C_2  and  C_3
REMARK    3  A    between atoms: C_3  and  C_4
REMARK    4  A    between atoms: C_4  and  C_5
REMARK    5  A    between atoms: C_8  and  N_11
REMARK    6  A    between atoms: C_12  and  C_14
REMARK    7  A    between atoms: N_16  and  C_17
REMARK    8  A    between atoms: C_17  and  C_18
REMARK    9  A    between atoms: C_18  and  C_20
REMARK   10  A    between atoms: C_18  and  O_28
REMARK                            x       y       z     vdW  Elec       q    Type
REMARK                         _______ _______ _______ _____ _____    ______ ____
ROOT
ATOM      1  C   UNL     1      -8.846  -4.573  -1.094  0.00  0.00    +0.299 C 
ATOM      2  O   UNL     1      -9.403  -4.784  -0.037  0.00  0.00    -0.265 OA
ATOM      3  N   UNL     1      -9.523  -4.710  -2.252  0.00  0.00    -0.305 N 
ATOM      4  H   UNL     1      -9.077  -4.541  -3.097  0.00  0.00    +0.149 HD
ENDROOT
BRANCH   1   6
ATOM      5  N   UNL     1      -6.733  -4.027   0.045  0.00  0.00    -0.278 N 
ATOM      6  C   UNL     1      -7.410  -4.163  -1.113  0.00  0.00    +0.303 C 
ATOM      7  O   UNL     1      -6.853  -3.952  -2.170  0.00  0.00    -0.265 OA
ATOM      8  H   UNL     1      -7.155  -4.268   0.884  0.00  0.00    +0.155 HD
BRANCH   5  12
ATOM      9  C   UNL     1      -2.833  -2.569   0.016  0.00  0.00    -0.047 A 
ATOM     10  C   UNL     1      -3.210  -3.510   0.956  0.00  0.00    +0.005 A 
ATOM     11  C   UNL     1      -4.503  -3.995   0.969  0.00  0.00    +0.023 A 
ATOM     12  C   UNL     1      -5.425  -3.537   0.035  0.00  0.00    +0.034 A 
ATOM     13  C   UNL     1      -5.042  -2.591  -0.908  0.00  0.00    +0.023 A 
ATOM     14  C   UNL     1      -3.749  -2.106  -0.911  0.00  0.00    +0.005 A 
BRANCH   9  15
ATOM     15  C   UNL     1      -1.421  -2.041   0.005  0.00  0.00    +0.035 C 
BRANCH  15  16
ATOM     16  C   UNL     1      -1.330  -0.809   0.909  0.00  0.00    +0.004 C 
BRANCH  16  18
ATOM     17  C   UNL     1       0.194   0.958   1.802  0.00  0.00    +0.004 C 
ATOM     18  C   UNL     1       0.103  -0.274   0.898  0.00  0.00    -0.003 C 
ENDBRANCH  16  18
ENDBRANCH  15  16
ENDBRANCH   9  15
ENDBRANCH   5  12
ENDBRANCH   1   6
BRANCH   3  19
ATOM     19  C   UNL     1     -10.931  -5.112  -2.234  0.00  0.00    +0.140 C 
BRANCH  19  20
ATOM     20  C   UNL     1     -11.457  -5.192  -3.668  0.00  0.00    +0.162 C 
BRANCH  20  21
ATOM     21  C   UNL     1     -12.935  -5.486  -3.646  0.00  0.00    -0.015 A 
ATOM     22  C   UNL     1     -13.379  -6.779  -3.442  0.00  0.00    +0.009 A 
ATOM     23  C   UNL     1     -14.734  -7.051  -3.421  0.00  0.00    +0.041 A 
ATOM     24  C   UNL     1     -15.648  -6.028  -3.603  0.00  0.00    +0.158 A 
ATOM     25  C   UNL     1     -15.203  -4.731  -3.808  0.00  0.00    +0.159 A 
ATOM     26  C   UNL     1     -13.845  -4.461  -3.824  0.00  0.00    +0.047 A 
ATOM     27  F   UNL     1     -16.093  -3.731  -3.987  0.00  0.00    -0.202 F 
ATOM     28  F   UNL     1     -16.973  -6.293  -3.583  0.00  0.00    -0.202 F 
ENDBRANCH  20  21
BRANCH  20  29
ATOM     29  O   UNL     1     -10.775  -6.235  -4.369  0.00  0.00    -0.386 OA
ATOM     30  H   UNL     1     -10.886  -7.111  -3.975  0.00  0.00    +0.210 HD
ENDBRANCH  20  29
ENDBRANCH  19  20
ENDBRANCH   3  19
TORSDOF 9
