REMARK  Name = ZINC04742838
REMARK  4 active torsions:
REMARK  status: ('A' for Active; 'I' for Inactive)
REMARK    1  A    between atoms: C_7  and  C_11
REMARK    2  A    between atoms: N_21  and  C_22
REMARK    3  A    between atoms: C_22  and  C_23
REMARK    4  A    between atoms: N_25  and  C_26
REMARK                            x       y       z     vdW  Elec       q    Type
REMARK                         _______ _______ _______ _____ _____    ______ ____
ROOT
ATOM      1  C   UNL     1      -4.271   2.342  -1.158  0.00  0.00    +0.140 C 
ATOM      2  C   UNL     1      -5.363   3.249  -0.647  0.00  0.00    -0.010 A 
ATOM      3  C   UNL     1      -6.305   4.033  -1.271  0.00  0.00    +0.006 A 
ATOM      4  C   UNL     1      -7.198   4.774  -0.516  0.00  0.00    +0.000 A 
ATOM      5  C   UNL     1      -7.146   4.729   0.866  0.00  0.00    +0.001 A 
ATOM      6  C   UNL     1      -6.205   3.946   1.502  0.00  0.00    +0.013 A 
ATOM      7  C   UNL     1      -5.301   3.195   0.747  0.00  0.00    +0.042 A 
ATOM      8  C   UNL     1      -4.209   2.280   1.127  0.00  0.00    +0.248 C 
ATOM      9  O   UNL     1      -3.895   2.009   2.270  0.00  0.00    -0.270 OA
ATOM     10  N   UNL     1      -3.608   1.789   0.029  0.00  0.00    -0.278 N 
ENDROOT
BRANCH   1  17
ATOM     11  C   UNL     1      -5.341   1.949  -5.705  0.00  0.00    +0.001 A 
ATOM     12  C   UNL     1      -5.880   0.711  -6.028  0.00  0.00    +0.002 A 
ATOM     13  C   UNL     1      -6.053  -0.254  -5.061  0.00  0.00    +0.026 A 
ATOM     14  C   UNL     1      -5.686   0.012  -3.746  0.00  0.00    +0.047 A 
ATOM     15  C   UNL     1      -5.140   1.267  -3.423  0.00  0.00    +0.005 A 
ATOM     16  C   UNL     1      -4.974   2.232  -4.419  0.00  0.00    +0.010 A 
ATOM     17  C   UNL     1      -4.864   1.231  -1.985  0.00  0.00    +0.002 A 
ATOM     18  C   UNL     1      -5.233   0.018  -1.545  0.00  0.00    +0.089 A 
ATOM     19  N   UNL     1      -5.731  -0.723  -2.582  0.00  0.00    -0.360 N 
ATOM     20  H   UNL     1      -6.064  -1.631  -2.509  0.00  0.00    +0.165 HD
ENDBRANCH   1  17
BRANCH  10  21
ATOM     21  C   UNL     1      -2.482   0.853   0.018  0.00  0.00    +0.204 C 
BRANCH  21  22
ATOM     22  C   UNL     1      -1.187   1.624   0.017  0.00  0.00    +0.231 C 
ATOM     23  O   UNL     1      -1.204   2.837   0.023  0.00  0.00    -0.274 OA
ATOM     24  N   UNL     1      -0.011   0.966   0.007  0.00  0.00    -0.311 N 
ATOM     25  H   UNL     1       0.002  -0.004   0.002  0.00  0.00    +0.149 HD
BRANCH  24  26
ATOM     26  C   UNL     1       1.248   1.716  -0.001  0.00  0.00    +0.073 C 
ATOM     27  C   UNL     1       1.608   2.092  -1.439  0.00  0.00    +0.022 C 
ATOM     28  C   UNL     1       2.922   2.875  -1.448  0.00  0.00    +0.002 C 
ATOM     29  C   UNL     1       4.035   2.010  -0.853  0.00  0.00    +0.000 C 
ATOM     30  C   UNL     1       3.675   1.633   0.585  0.00  0.00    +0.002 C 
ATOM     31  C   UNL     1       2.361   0.850   0.594  0.00  0.00    +0.022 C 
ENDBRANCH  24  26
ENDBRANCH  21  22
ENDBRANCH  10  21
TORSDOF 4
