REMARK  Name = ZINC37006587
REMARK  13 active torsions:
REMARK  status: ('A' for Active; 'I' for Inactive)
REMARK    1  A    between atoms: C_1  and  C_2
REMARK    2  A    between atoms: C_5  and  C_41
REMARK    3  A    between atoms: N_8  and  C_10
REMARK    4  A    between atoms: C_10  and  C_11
REMARK    5  A    between atoms: C_11  and  C_12
REMARK    6  A    between atoms: C_12  and  N_13
REMARK    7  A    between atoms: C_14  and  C_16
REMARK    8  A    between atoms: C_16  and  C_40
REMARK    9  A    between atoms: C_21  and  O_38
REMARK   10  A    between atoms: N_29  and  C_30
REMARK   11  A    between atoms: C_30  and  C_31
REMARK   12  A    between atoms: C_31  and  C_32
REMARK   13  A    between atoms: O_38  and  C_39
REMARK                            x       y       z     vdW  Elec       q    Type
REMARK                         _______ _______ _______ _____ _____    ______ ____
ROOT
ATOM      1  C   UNL     1       2.008   0.796   8.540  0.00  0.00    +0.128 C 
ATOM      2  C   UNL     1       0.863  -0.100   9.011  0.00  0.00    +0.157 C 
ATOM      3  N   UNL     1      -0.252   0.001   8.063  0.00  0.00    -0.334 N 
ATOM      4  C   UNL     1      -1.199  -0.907   7.726  0.00  0.00    +0.053 A 
ATOM      5  C   UNL     1      -1.427  -2.219   8.139  0.00  0.00    +0.072 A 
ATOM      6  C   UNL     1      -2.515  -2.877   7.582  0.00  0.00    +0.122 A 
ATOM      7  C   UNL     1      -3.351  -2.268   6.651  0.00  0.00    +0.046 A 
ATOM      8  C   UNL     1      -3.151  -0.981   6.227  0.00  0.00    +0.013 A 
ATOM      9  C   UNL     1      -2.057  -0.291   6.772  0.00  0.00    +0.001 A 
ATOM     10  C   UNL     1      -1.575   1.011   6.556  0.00  0.00    +0.041 A 
ATOM     11  C   UNL     1      -0.483   1.172   7.334  0.00  0.00    +0.106 A 
ATOM     12  C   UNL     1       0.413   2.332   7.473  0.00  0.00    +0.264 C 
ATOM     13  O   UNL     1       0.139   3.415   6.990  0.00  0.00    -0.268 OA
ATOM     14  N   UNL     1       1.558   2.132   8.167  0.00  0.00    -0.280 N 
ATOM     15  C   UNL     1       3.034   0.917   9.668  0.00  0.00    +0.043 C 
ENDROOT
BRANCH   1  17
ATOM     16  N   UNL     1       2.207   0.402   6.106  0.00  0.00    -0.314 N 
ATOM     17  C   UNL     1       2.669   0.154   7.348  0.00  0.00    +0.238 C 
ATOM     18  O   UNL     1       3.618  -0.585   7.505  0.00  0.00    -0.273 OA
ATOM     19  H   UNL     1       1.448   0.993   5.981  0.00  0.00    +0.149 HD
BRANCH  16  20
ATOM     20  C   UNL     1       2.850  -0.222   4.947  0.00  0.00    +0.102 C 
BRANCH  20  21
ATOM     21  C   UNL     1       2.136   0.221   3.668  0.00  0.00    +0.000 C 
BRANCH  21  22
ATOM     22  C   UNL     1       2.808  -0.431   2.458  0.00  0.00    -0.077 C 
BRANCH  22  28
ATOM     23  C   UNL     1      -0.019   1.526   0.010  0.00  0.00    +0.005 C 
ATOM     24  C   UNL     1       0.002  -0.004   0.002  0.00  0.00    -0.031 C 
ATOM     25  C   UNL     1       0.721  -0.499  -1.257  0.00  0.00    +0.003 C 
ATOM     26  C   UNL     1       2.177  -0.027  -1.220  0.00  0.00    -0.031 C 
ATOM     27  C   UNL     1       2.839  -0.534   0.063  0.00  0.00    -0.076 C 
ATOM     28  N   UNL     1       2.123  -0.005   1.230  0.00  0.00    +0.380 N 
ATOM     29  C   UNL     1       0.744  -0.512   1.240  0.00  0.00    -0.076 C 
ATOM     30  C   UNL     1       2.924  -0.581  -2.434  0.00  0.00    +0.005 C 
ATOM     31  H   UNL     1       2.109   1.003   1.187  0.00  0.00    -0.082 HD
ENDBRANCH  22  28
ENDBRANCH  21  22
ENDBRANCH  20  21
ENDBRANCH  16  20
ENDBRANCH   1  17
BRANCH   6  32
ATOM     32  O   UNL     1      -2.771  -4.157   7.957  0.00  0.00    -0.495 OA
ATOM     33  C   UNL     1      -3.901  -4.794   7.358  0.00  0.00    +0.277 C 
ENDBRANCH   6  32
BRANCH  14  34
ATOM     34  C   UNL     1       2.367   3.290   8.555  0.00  0.00    +0.114 C 
BRANCH  34  35
ATOM     35  C   UNL     1       3.382   3.594   7.451  0.00  0.00    +0.054 C 
BRANCH  35  36
ATOM     36  C   UNL     1       4.215   4.785   7.850  0.00  0.00    -0.046 A 
ATOM     37  C   UNL     1       3.804   6.061   7.511  0.00  0.00    +0.004 A 
ATOM     38  C   UNL     1       4.567   7.154   7.877  0.00  0.00    +0.000 A 
ATOM     39  C   UNL     1       5.743   6.971   8.582  0.00  0.00    +0.000 A 
ATOM     40  C   UNL     1       6.154   5.695   8.921  0.00  0.00    +0.000 A 
ATOM     41  C   UNL     1       5.388   4.603   8.559  0.00  0.00    +0.004 A 
ENDBRANCH  35  36
ENDBRANCH  34  35
ENDBRANCH  14  34
TORSDOF 9
