REMARK  Name = ZINC66980000
REMARK  5 active torsions:
REMARK  status: ('A' for Active; 'I' for Inactive)
REMARK    1  A    between atoms: C_1  and  C_2
REMARK    2  A    between atoms: C_2  and  C_3
REMARK    3  A    between atoms: C_2  and  C_4
REMARK    4  A    between atoms: C_9  and  N_13
REMARK    5  A    between atoms: N_16  and  C_17
REMARK                            x       y       z     vdW  Elec       q    Type
REMARK                         _______ _______ _______ _____ _____    ______ ____
ROOT
ATOM      1  N   UNL     1      -7.293  -2.722   0.021  0.00  0.00    -0.269 N 
ATOM      2  C   UNL     1      -8.274  -2.652   0.942  0.00  0.00    +0.304 C 
ATOM      3  O   UNL     1      -8.121  -1.980   1.944  0.00  0.00    -0.252 OA
ATOM      4  N   UNL     1      -9.426  -3.325   0.752  0.00  0.00    -0.292 N 
ATOM      5  H   UNL     1      -7.443  -3.194  -0.813  0.00  0.00    +0.156 HD
ATOM      6  H   UNL     1      -9.549  -3.861  -0.047  0.00  0.00    +0.151 HD
ENDROOT
BRANCH   4   7
ATOM      7  C   UNL     1     -10.493  -3.249   1.753  0.00  0.00    +0.106 C 
ATOM      8  C   UNL     1     -11.355  -4.506   1.666  0.00  0.00    +0.027 C 
ATOM      9  C   UNL     1     -12.588  -4.304   2.556  0.00  0.00    +0.008 C 
ATOM     10  C   UNL     1     -13.472  -3.238   1.912  0.00  0.00    +0.054 C 
ATOM     11  C   UNL     1     -12.667  -2.008   1.579  0.00  0.00    +0.024 A 
ATOM     12  C   UNL     1     -11.322  -2.016   1.501  0.00  0.00    -0.008 A 
ATOM     13  C   UNL     1     -10.636  -0.830   1.172  0.00  0.00    +0.012 A 
ATOM     14  C   UNL     1     -11.332   0.315   0.939  0.00  0.00    +0.070 A 
ATOM     15  C   UNL     1     -12.734   0.291   1.034  0.00  0.00    +0.249 A 
ATOM     16  O   UNL     1     -13.380   1.307   0.833  0.00  0.00    -0.268 OA
ATOM     17  N   UNL     1     -13.360  -0.853   1.350  0.00  0.00    -0.326 N 
ATOM     18  H   UNL     1     -14.328  -0.860   1.416  0.00  0.00    +0.169 HD
ENDBRANCH   4   7
BRANCH   1  24
ATOM     19  C   UNL     1      -1.990  -0.302   2.351  0.00  0.00    +0.082 A 
ATOM     20  N   UNL     1      -2.393  -0.327   1.110  0.00  0.00    -0.244 NA
ATOM     21  C   UNL     1      -3.565  -0.884   0.734  0.00  0.00    +0.079 A 
ATOM     22  C   UNL     1      -4.112  -0.974  -0.567  0.00  0.00    +0.031 A 
ATOM     23  C   UNL     1      -5.315  -1.570  -0.780  0.00  0.00    +0.025 A 
ATOM     24  C   UNL     1      -6.055  -2.114   0.268  0.00  0.00    +0.036 A 
ATOM     25  C   UNL     1      -5.552  -2.046   1.560  0.00  0.00    +0.040 A 
ATOM     26  C   UNL     1      -4.337  -1.444   1.778  0.00  0.00    +0.041 A 
ATOM     27  S   UNL     1      -3.322  -1.136   3.203  0.00  0.00    -0.072 S 
BRANCH  19  29
ATOM     28  C   UNL     1       0.487  -0.414   2.282  0.00  0.00    +0.014 C 
ATOM     29  C   UNL     1      -0.720   0.277   2.921  0.00  0.00    +0.039 C 
ATOM     30  C   UNL     1      -0.665   1.777   2.624  0.00  0.00    +0.014 C 
ENDBRANCH  19  29
ENDBRANCH   1  24
TORSDOF 3
