REMARK  Name = ZINC38656609
REMARK  11 active torsions:
REMARK  status: ('A' for Active; 'I' for Inactive)
REMARK    1  A    between atoms: C_1  and  C_2
REMARK    2  A    between atoms: C_2  and  C_3
REMARK    3  A    between atoms: C_6  and  O_9
REMARK    4  A    between atoms: O_9  and  C_10
REMARK    5  A    between atoms: C_10  and  C_12
REMARK    6  A    between atoms: C_10  and  C_13
REMARK    7  A    between atoms: C_13  and  O_15
REMARK    8  A    between atoms: O_15  and  C_16
REMARK    9  A    between atoms: C_23  and  N_34
REMARK   10  A    between atoms: C_24  and  C_32
REMARK   11  A    between atoms: C_25  and  C_27
REMARK                            x       y       z     vdW  Elec       q    Type
REMARK                         _______ _______ _______ _____ _____    ______ ____
ROOT
ATOM      1  C   UNL     1       6.099  -1.568  -7.522  0.00  0.00    +0.135 A 
ATOM      2  C   UNL     1       5.111  -1.320  -8.465  0.00  0.00    +0.047 A 
ATOM      3  C   UNL     1       5.458  -1.041  -9.772  0.00  0.00    +0.012 A 
ATOM      4  C   UNL     1       6.790  -1.008 -10.148  0.00  0.00    +0.008 A 
ATOM      5  C   UNL     1       7.781  -1.254  -9.210  0.00  0.00    +0.138 A 
ATOM      6  C   UNL     1       7.433  -1.529  -7.894  0.00  0.00    +0.093 A 
ATOM      7  O   UNL     1       9.091  -1.226  -9.559  0.00  0.00    -0.441 OA
ATOM      8  C   UNL     1       9.471  -0.598 -10.684  0.00  0.00    +0.199 C 
ATOM      9  C   UNL     1       8.597  -0.319 -11.680  0.00  0.00    +0.098 C 
ATOM     10  C   UNL     1       7.148  -0.702 -11.578  0.00  0.00    +0.105 C 
ENDROOT
BRANCH  10  11
ATOM     11  C   UNL     1       6.892  -1.921 -12.428  0.00  0.00    +0.002 A 
ATOM     12  C   UNL     1       6.063  -2.062 -13.491  0.00  0.00    +0.012 A 
ATOM     13  C   UNL     1       5.989  -3.287 -14.125  0.00  0.00    +0.008 A 
ATOM     14  C   UNL     1       6.748  -4.312 -13.666  0.00  0.00    +0.045 A 
ATOM     15  S   UNL     1       7.609  -3.551 -12.300  0.00  0.00    -0.101 S 
ENDBRANCH  10  11
BRANCH   8  16
ATOM     16  N   UNL     1      10.785  -0.226 -10.828  0.00  0.00    -0.328 N 
ATOM     17  H   UNL     1      11.423  -0.418 -10.123  0.00  0.00    +0.145 HD
ATOM     18  H   UNL     1      11.075   0.228 -11.634  0.00  0.00    +0.145 HD
ENDBRANCH   8  16
BRANCH   9  19
ATOM     19  C   UNL     1       9.064   0.354 -12.855  0.00  0.00    +0.101 C 
ATOM     20  N   UNL     1       9.434   0.889 -13.787  0.00  0.00    -0.191 NA
ENDBRANCH   9  19
BRANCH   1  21
ATOM     21  O   UNL     1       5.759  -1.843  -6.236  0.00  0.00    -0.423 OA
BRANCH  21  22
ATOM     22  C   UNL     1       5.098  -2.985  -5.989  0.00  0.00    +0.353 C 
ATOM     23  O   UNL     1       4.904  -3.776  -6.881  0.00  0.00    -0.246 OA
BRANCH  22  24
ATOM     24  C   UNL     1       4.596  -3.280  -4.599  0.00  0.00    +0.279 C 
ATOM     25  C   UNL     1       5.778  -3.321  -3.628  0.00  0.00    +0.064 C 
BRANCH  24  26
ATOM     26  O   UNL     1       3.930  -4.545  -4.591  0.00  0.00    -0.478 OA
BRANCH  26  30
ATOM     27  C   UNL     1       0.717  -4.953  -2.035  0.00  0.00    -0.047 A 
ATOM     28  C   UNL     1       1.486  -3.804  -2.000  0.00  0.00    +0.007 A 
ATOM     29  C   UNL     1       2.562  -3.665  -2.855  0.00  0.00    +0.046 A 
ATOM     30  C   UNL     1       2.872  -4.679  -3.749  0.00  0.00    +0.122 A 
ATOM     31  C   UNL     1       2.100  -5.831  -3.782  0.00  0.00    +0.046 A 
ATOM     32  C   UNL     1       1.028  -5.968  -2.922  0.00  0.00    +0.007 A 
BRANCH  27  34
ATOM     33  C   UNL     1       0.008  -5.752   0.202  0.00  0.00    +0.009 C 
ATOM     34  C   UNL     1      -0.457  -5.102  -1.102  0.00  0.00    +0.032 C 
ENDBRANCH  27  34
ENDBRANCH  26  30
ENDBRANCH  24  26
ENDBRANCH  22  24
ENDBRANCH  21  22
ENDBRANCH   1  21
TORSDOF 9
