REMARK  Name = ZINC43108005
REMARK  8 active torsions:
REMARK  status: ('A' for Active; 'I' for Inactive)
REMARK    1  A    between atoms: C_1  and  C_2
REMARK    2  A    between atoms: C_2  and  C_4
REMARK    3  A    between atoms: C_2  and  N_23
REMARK    4  A    between atoms: C_4  and  C_6
REMARK    5  A    between atoms: C_4  and  O_11
REMARK    6  A    between atoms: O_11  and  C_12
REMARK    7  A    between atoms: C_19  and  C_21
REMARK    8  A    between atoms: C_19  and  C_22
REMARK                            x       y       z     vdW  Elec       q    Type
REMARK                         _______ _______ _______ _____ _____    ______ ____
ROOT
ATOM      1  C   UNL     1       0.756  -0.542   1.310  0.00  0.00    +0.196 C 
ENDROOT
BRANCH   1   2
ATOM      2  C   UNL     1       0.819  -2.034   1.511  0.00  0.00    +0.028 A 
ATOM      3  C   UNL     1      -0.007  -2.834   2.229  0.00  0.00    +0.015 A 
ATOM      4  C   UNL     1       0.245  -4.192   2.272  0.00  0.00    +0.008 A 
ATOM      5  C   UNL     1       1.312  -4.684   1.596  0.00  0.00    +0.045 A 
ATOM      6  S   UNL     1       1.996  -3.208   0.860  0.00  0.00    -0.098 S 
ENDBRANCH   1   2
BRANCH   1   8
ATOM      7  C   UNL     1      -0.056   1.281  -0.193  0.00  0.00    -0.010 C 
ATOM      8  C   UNL     1       0.008  -0.234   0.012  0.00  0.00    -0.032 C 
BRANCH   8   9
ATOM      9  N   UNL     1      -1.356  -0.774   0.093  0.00  0.00    +0.382 N 
ATOM     10  H   UNL     1      -1.850  -0.571  -0.763  0.00  0.00    -0.089 HD
ATOM     11  H   UNL     1      -1.314  -1.774   0.228  0.00  0.00    -0.089 HD
ATOM     12  H   UNL     1      -1.840  -0.350   0.869  0.00  0.00    -0.089 HD
ENDBRANCH   8   9
ENDBRANCH   1   8
BRANCH   1  13
ATOM     13  O   UNL     1       2.083  -0.016   1.231  0.00  0.00    -0.482 OA
BRANCH  13  14
ATOM     14  C   UNL     1       2.286   1.225   1.748  0.00  0.00    +0.163 A 
ATOM     15  C   UNL     1       1.240   1.902   2.351  0.00  0.00    +0.049 A 
ATOM     16  C   UNL     1       1.439   3.164   2.878  0.00  0.00    +0.004 A 
ATOM     17  C   UNL     1       2.688   3.754   2.799  0.00  0.00    +0.007 A 
ATOM     18  C   UNL     1       3.731   3.084   2.197  0.00  0.00    +0.002 A 
ATOM     19  C   UNL     1       3.552   1.811   1.675  0.00  0.00    +0.166 A 
ATOM     20  O   UNL     1       4.712   1.323   1.155  0.00  0.00    -0.482 OA
ATOM     21  C   UNL     1       5.618   2.413   0.912  0.00  0.00    +0.109 C 
ATOM     22  C   UNL     1       5.179   3.465   1.953  0.00  0.00    +0.086 C 
ATOM     23  C   UNL     1       7.066   1.978   1.147  0.00  0.00    +0.056 C 
ATOM     24  C   UNL     1       5.438   2.962  -0.505  0.00  0.00    +0.056 C 
ENDBRANCH  13  14
ENDBRANCH   1  13
TORSDOF 5
