REMARK  Name = ZINC36595256
REMARK  10 active torsions:
REMARK  status: ('A' for Active; 'I' for Inactive)
REMARK    1  A    between atoms: C_1  and  C_2
REMARK    2  A    between atoms: C_5  and  C_7
REMARK    3  A    between atoms: C_7  and  N_8
REMARK    4  A    between atoms: N_8  and  C_9
REMARK    5  A    between atoms: C_9  and  C_11
REMARK    6  A    between atoms: C_9  and  C_18
REMARK    7  A    between atoms: C_14  and  O_17
REMARK    8  A    between atoms: N_20  and  C_21
REMARK    9  A    between atoms: C_27  and  C_29
REMARK   10  A    between atoms: C_34  and  O_35
REMARK                            x       y       z     vdW  Elec       q    Type
REMARK                         _______ _______ _______ _____ _____    ______ ____
ROOT
ATOM      1  C   UNL     1       1.843  -2.685  -3.181  0.00  0.00    +0.193 C 
ENDROOT
BRANCH   1   2
ATOM      2  C   UNL     1       3.284  -2.411  -2.831  0.00  0.00    -0.018 A 
ATOM      3  C   UNL     1       3.684  -2.408  -1.508  0.00  0.00    +0.009 A 
ATOM      4  C   UNL     1       5.004  -2.157  -1.185  0.00  0.00    +0.046 A 
ATOM      5  C   UNL     1       5.927  -1.909  -2.190  0.00  0.00    +0.117 A 
ATOM      6  C   UNL     1       5.523  -1.913  -3.517  0.00  0.00    +0.046 A 
ATOM      7  C   UNL     1       4.203  -2.170  -3.835  0.00  0.00    +0.009 A 
BRANCH   5   8
ATOM      8  O   UNL     1       7.226  -1.661  -1.875  0.00  0.00    -0.507 OA
ATOM      9  H   UNL     1       7.779  -2.454  -1.834  0.00  0.00    +0.292 HD
ENDBRANCH   5   8
ENDBRANCH   1   2
BRANCH   1  10
ATOM     10  C   UNL     1       1.402  -1.740  -4.269  0.00  0.00    +0.238 C 
ATOM     11  O   UNL     1       0.836  -0.707  -3.982  0.00  0.00    -0.273 OA
ATOM     12  N   UNL     1       1.637  -2.044  -5.561  0.00  0.00    -0.311 N 
ATOM     13  H   UNL     1       2.090  -2.870  -5.790  0.00  0.00    +0.149 HD
BRANCH  12  14
ATOM     14  C   UNL     1       1.209  -1.125  -6.619  0.00  0.00    +0.073 C 
ATOM     15  C   UNL     1      -0.254  -1.402  -6.972  0.00  0.00    +0.022 C 
ATOM     16  C   UNL     1      -0.702  -0.443  -8.077  0.00  0.00    +0.002 C 
ATOM     17  C   UNL     1       0.171  -0.650  -9.317  0.00  0.00    +0.000 C 
ATOM     18  C   UNL     1       1.633  -0.374  -8.963  0.00  0.00    +0.002 C 
ATOM     19  C   UNL     1       2.081  -1.333  -7.859  0.00  0.00    +0.022 C 
ENDBRANCH  12  14
ENDBRANCH   1  10
BRANCH   1  20
ATOM     20  N   UNL     1       1.007  -2.487  -1.994  0.00  0.00    -0.275 N 
ATOM     21  C   UNL     1       0.262  -3.505  -1.518  0.00  0.00    +0.251 C 
ATOM     22  O   UNL     1      -0.355  -3.372  -0.479  0.00  0.00    -0.270 OA
BRANCH  21  23
ATOM     23  C   UNL     1       0.196  -4.780  -2.257  0.00  0.00    +0.078 A 
ATOM     24  C   UNL     1       1.370  -5.451  -2.606  0.00  0.00    +0.017 A 
ATOM     25  C   UNL     1       1.302  -6.642  -3.296  0.00  0.00    +0.001 A 
ATOM     26  C   UNL     1       0.073  -7.177  -3.646  0.00  0.00    +0.004 A 
ATOM     27  C   UNL     1      -1.095  -6.524  -3.308  0.00  0.00    +0.046 A 
ATOM     28  C   UNL     1      -1.045  -5.327  -2.608  0.00  0.00    +0.129 A 
BRANCH  28  29
ATOM     29  O   UNL     1      -2.192  -4.687  -2.270  0.00  0.00    -0.506 OA
ATOM     30  H   UNL     1      -2.504  -4.059  -2.937  0.00  0.00    +0.292 HD
ENDBRANCH  28  29
ENDBRANCH  21  23
BRANCH  20  31
ATOM     31  C   UNL     1       0.981  -1.184  -1.325  0.00  0.00    +0.183 C 
BRANCH  31  36
ATOM     32  C   UNL     1      -3.335   1.034  -2.701  0.00  0.00    +0.086 C 
ATOM     33  C   UNL     1      -2.312   0.294  -1.879  0.00  0.00    +0.102 A 
ATOM     34  C   UNL     1      -2.496  -0.176  -0.632  0.00  0.00    +0.045 A 
ATOM     35  C   UNL     1      -1.286  -0.798  -0.246  0.00  0.00    +0.046 A 
ATOM     36  C   UNL     1      -0.436  -0.671  -1.281  0.00  0.00    +0.122 A 
ATOM     37  O   UNL     1      -1.064  -0.014  -2.269  0.00  0.00    -0.463 OA
ENDBRANCH  31  36
ENDBRANCH  20  31
ENDBRANCH   1  20
TORSDOF 9
