REMARK  Name = ZINC20558220
REMARK  5 active torsions:
REMARK  status: ('A' for Active; 'I' for Inactive)
REMARK    1  A    between atoms: C_4  and  C_7
REMARK    2  A    between atoms: C_7  and  N_8
REMARK    3  A    between atoms: C_20  and  C_28
REMARK    4  A    between atoms: C_22  and  C_26
REMARK    5  A    between atoms: C_23  and  N_25
REMARK                            x       y       z     vdW  Elec       q    Type
REMARK                         _______ _______ _______ _____ _____    ______ ____
ROOT
ATOM      1  N   UNL     1       3.249   3.732   1.024  0.00  0.00    -0.198 N 
ATOM      2  C   UNL     1       4.181   2.983   0.295  0.00  0.00    +0.062 A 
ATOM      3  C   UNL     1       5.499   3.421   0.247  0.00  0.00    +0.025 A 
ATOM      4  C   UNL     1       6.440   2.709  -0.470  0.00  0.00    +0.002 A 
ATOM      5  C   UNL     1       6.073   1.556  -1.142  0.00  0.00    +0.001 A 
ATOM      6  C   UNL     1       4.771   1.109  -1.100  0.00  0.00    +0.013 A 
ATOM      7  C   UNL     1       3.804   1.819  -0.374  0.00  0.00    +0.042 A 
ATOM      8  C   UNL     1       2.421   1.285  -0.360  0.00  0.00    +0.162 C 
ATOM      9  C   UNL     1       1.386   2.038  -0.000  0.00  0.00    +0.141 C 
ATOM     10  S   UNL     1       1.676   3.716   0.480  0.00  0.00    +0.076 S 
ATOM     11  O   UNL     1       1.637   4.500  -0.705  0.00  0.00    -0.150 OA
ATOM     12  O   UNL     1       0.844   3.977   1.602  0.00  0.00    -0.150 OA
ATOM     13  C   UNL     1      -0.018   1.500   0.010  0.00  0.00    +0.118 C 
ATOM     14  C   UNL     1       0.002  -0.004   0.002  0.00  0.00    +0.099 C 
ATOM     15  C   UNL     1       1.126  -0.669  -0.366  0.00  0.00    +0.199 C 
ATOM     16  O   UNL     1       2.237  -0.010  -0.731  0.00  0.00    -0.439 OA
ENDROOT
BRANCH  13  17
ATOM     17  C   UNL     1      -0.752   1.996  -1.209  0.00  0.00    -0.033 A 
ATOM     18  C   UNL     1      -0.289   1.678  -2.472  0.00  0.00    +0.004 A 
ATOM     19  C   UNL     1      -0.964   2.130  -3.590  0.00  0.00    +0.000 A 
ATOM     20  C   UNL     1      -2.099   2.907  -3.445  0.00  0.00    +0.000 A 
ATOM     21  C   UNL     1      -2.559   3.229  -2.182  0.00  0.00    +0.000 A 
ATOM     22  C   UNL     1      -1.886   2.774  -1.064  0.00  0.00    +0.004 A 
ENDBRANCH  13  17
BRANCH  15  23
ATOM     23  N   UNL     1       1.127  -2.042  -0.364  0.00  0.00    -0.328 N 
ATOM     24  H   UNL     1       2.033  -2.592  -0.660  0.00  0.00    +0.145 HD
ATOM     25  H   UNL     1       0.223  -2.592  -0.066  0.00  0.00    +0.145 HD
ENDBRANCH  15  23
BRANCH  14  26
ATOM     26  C   UNL     1      -1.168  -0.736   0.384  0.00  0.00    +0.101 C 
ATOM     27  N   UNL     1      -2.096  -1.317   0.686  0.00  0.00    -0.191 NA
ENDBRANCH  14  26
BRANCH   1  28
ATOM     28  C   UNL     1       3.642   4.496   2.211  0.00  0.00    +0.166 C 
BRANCH  28  32
ATOM     29  C   UNL     1       3.591   1.937   5.631  0.00  0.00    +0.000 A 
ATOM     30  C   UNL     1       4.745   2.067   4.882  0.00  0.00    +0.000 A 
ATOM     31  C   UNL     1       4.762   2.895   3.775  0.00  0.00    +0.005 A 
ATOM     32  C   UNL     1       3.623   3.593   3.417  0.00  0.00    -0.028 A 
ATOM     33  C   UNL     1       2.471   3.468   4.170  0.00  0.00    +0.005 A 
ATOM     34  C   UNL     1       2.453   2.636   5.274  0.00  0.00    +0.000 A 
ENDBRANCH  28  32
ENDBRANCH   1  28
TORSDOF 5
