REMARK  Name = ZINC15044512
REMARK  12 active torsions:
REMARK  status: ('A' for Active; 'I' for Inactive)
REMARK    1  A    between atoms: C_1  and  O_2
REMARK    2  A    between atoms: O_2  and  C_3
REMARK    3  A    between atoms: C_6  and  C_9
REMARK    4  A    between atoms: N_13  and  C_17
REMARK    5  A    between atoms: C_17  and  C_18
REMARK    6  A    between atoms: C_18  and  C_19
REMARK    7  A    between atoms: C_19  and  C_20
REMARK    8  A    between atoms: C_20  and  C_21
REMARK    9  A    between atoms: C_21  and  C_22
REMARK   10  A    between atoms: N_24  and  C_25
REMARK   11  A    between atoms: C_28  and  S_31
REMARK   12  A    between atoms: S_31  and  N_34
REMARK                            x       y       z     vdW  Elec       q    Type
REMARK                         _______ _______ _______ _____ _____    ______ ____
ROOT
ATOM      1  C   UNL     1       2.918   9.453   0.576  0.00  0.00    +0.002 C 
ENDROOT
BRANCH   1   2
ATOM      2  C   UNL     1       4.434   9.627   0.680  0.00  0.00    +0.019 C 
BRANCH   2   3
ATOM      3  C   UNL     1       4.783  11.116   0.610  0.00  0.00    +0.115 C 
BRANCH   3   8
ATOM      4  C   UNL     1       9.400  11.494  -1.164  0.00  0.00    +0.028 C 
ATOM      5  C   UNL     1       8.420  11.454  -0.226  0.00  0.00    +0.077 C 
ATOM      6  C   UNL     1       6.963  11.282  -0.394  0.00  0.00    +0.258 C 
ATOM      7  O   UNL     1       6.458  11.145  -1.493  0.00  0.00    -0.269 OA
ATOM      8  N   UNL     1       6.235  11.282   0.710  0.00  0.00    -0.255 N 
ATOM      9  C   UNL     1       6.798  11.438   1.925  0.00  0.00    +0.121 C 
ATOM     10  S   UNL     1       6.032  11.474   3.456  0.00  0.00    -0.027 S 
ATOM     11  S   UNL     1       8.537  11.598   1.552  0.00  0.00    -0.061 S 
BRANCH   4  15
ATOM     12  C   UNL     1      13.355  12.546  -0.054  0.00  0.00    +0.120 A 
ATOM     13  C   UNL     1      13.123  11.909  -1.267  0.00  0.00    +0.046 A 
ATOM     14  C   UNL     1      11.841  11.565  -1.633  0.00  0.00    +0.011 A 
ATOM     15  C   UNL     1      10.770  11.858  -0.779  0.00  0.00    -0.024 A 
ATOM     16  C   UNL     1      11.009  12.506   0.439  0.00  0.00    +0.011 A 
ATOM     17  C   UNL     1      12.296  12.840   0.797  0.00  0.00    +0.046 A 
BRANCH  12  19
ATOM     18  C   UNL     1      14.790  13.536   1.562  0.00  0.00    +0.277 C 
ATOM     19  O   UNL     1      14.621  12.883   0.302  0.00  0.00    -0.495 OA
ENDBRANCH  12  19
ENDBRANCH   4  15
ENDBRANCH   3   8
ENDBRANCH   2   3
ENDBRANCH   1   2
BRANCH   1  20
ATOM     20  C   UNL     1       2.570   7.965   0.645  0.00  0.00    +0.009 C 
BRANCH  20  21
ATOM     21  C   UNL     1       1.053   7.791   0.541  0.00  0.00    +0.096 C 
BRANCH  21  22
ATOM     22  C   UNL     1       0.710   6.325   0.610  0.00  0.00    +0.217 C 
ATOM     23  O   UNL     1       1.591   5.501   0.730  0.00  0.00    -0.275 OA
ATOM     24  N   UNL     1      -0.577   5.930   0.537  0.00  0.00    -0.285 N 
ATOM     25  H   UNL     1      -1.276   6.583   0.375  0.00  0.00    +0.155 HD
BRANCH  24  26
ATOM     26  C   UNL     1      -0.904   4.579   0.695  0.00  0.00    +0.033 A 
ATOM     27  C   UNL     1      -0.175   3.785   1.571  0.00  0.00    +0.025 A 
ATOM     28  C   UNL     1      -0.501   2.451   1.725  0.00  0.00    +0.030 A 
ATOM     29  C   UNL     1      -1.550   1.907   1.008  0.00  0.00    +0.105 A 
ATOM     30  C   UNL     1      -2.277   2.695   0.135  0.00  0.00    +0.030 A 
ATOM     31  C   UNL     1      -1.957   4.029  -0.024  0.00  0.00    +0.025 A 
BRANCH  29  32
ATOM     32  S   UNL     1      -1.962   0.205   1.207  0.00  0.00    +0.056 S 
ATOM     33  O   UNL     1      -2.634  -0.192   0.019  0.00  0.00    -0.153 OA
ATOM     34  O   UNL     1      -0.787  -0.445   1.671  0.00  0.00    -0.153 OA
BRANCH  32  35
ATOM     35  N   UNL     1      -3.072   0.110   2.433  0.00  0.00    -0.204 NA
ATOM     36  H   UNL     1      -3.735  -0.597   2.433  0.00  0.00    +0.144 HD
ATOM     37  H   UNL     1      -3.058   0.762   3.151  0.00  0.00    +0.144 HD
ENDBRANCH  32  35
ENDBRANCH  29  32
ENDBRANCH  24  26
ENDBRANCH  21  22
ENDBRANCH  20  21
ENDBRANCH   1  20
TORSDOF 11
