REMARK  Name = ZINC05562709
REMARK  6 active torsions:
REMARK  status: ('A' for Active; 'I' for Inactive)
REMARK    1  A    between atoms: C_1  and  C_2
REMARK    2  A    between atoms: N_4  and  C_5
REMARK    3  A    between atoms: C_8  and  C_11
REMARK    4  A    between atoms: C_14  and  C_25
REMARK    5  A    between atoms: C_20  and  N_24
REMARK    6  A    between atoms: C_21  and  C_22
REMARK                            x       y       z     vdW  Elec       q    Type
REMARK                         _______ _______ _______ _____ _____    ______ ____
ROOT
ATOM      1  C   UNL     1      -0.853  -6.349   0.342  0.00  0.00    +0.102 C 
ATOM      2  C   UNL     1      -1.597  -6.827   1.562  0.00  0.00    +0.055 A 
ATOM      3  C   UNL     1      -1.244  -6.719   2.913  0.00  0.00    +0.107 A 
ATOM      4  N   UNL     1      -2.203  -7.281   3.628  0.00  0.00    -0.170 NA
ATOM      5  N   UNL     1      -3.187  -7.760   2.749  0.00  0.00    -0.246 N 
ATOM      6  H   UNL     1      -4.004  -8.216   3.003  0.00  0.00    +0.192 HD
ATOM      7  C   UNL     1      -2.797  -7.473   1.490  0.00  0.00    +0.223 A 
ATOM      8  O   UNL     1      -3.415  -7.738   0.311  0.00  0.00    -0.423 OA
ATOM      9  C   UNL     1      -2.693  -7.595  -0.819  0.00  0.00    +0.200 C 
ATOM     10  C   UNL     1      -1.498  -6.966  -0.874  0.00  0.00    +0.098 C 
ENDROOT
BRANCH   1  14
ATOM     11  C   UNL     1      -1.081  -2.089   0.091  0.00  0.00    +0.033 A 
ATOM     12  C   UNL     1       0.155  -2.716   0.178  0.00  0.00    +0.023 A 
ATOM     13  C   UNL     1       0.225  -4.092   0.259  0.00  0.00    +0.006 A 
ATOM     14  C   UNL     1      -0.934  -4.847   0.254  0.00  0.00    -0.034 A 
ATOM     15  C   UNL     1      -2.166  -4.226   0.168  0.00  0.00    +0.006 A 
ATOM     16  C   UNL     1      -2.244  -2.849   0.093  0.00  0.00    +0.023 A 
BRANCH  11  20
ATOM     17  C   UNL     1      -2.194   1.470   0.609  0.00  0.00    +0.109 C 
ATOM     18  C   UNL     1      -2.169  -0.037   0.608  0.00  0.00    +0.214 C 
ATOM     19  O   UNL     1      -3.061  -0.658   1.145  0.00  0.00    -0.276 OA
ATOM     20  N   UNL     1      -1.156  -0.694   0.009  0.00  0.00    -0.286 N 
ATOM     21  H   UNL     1      -0.478  -0.200  -0.478  0.00  0.00    +0.155 HD
ENDBRANCH  11  20
ENDBRANCH   1  14
BRANCH   3  22
ATOM     22  C   UNL     1      -0.017  -6.088   3.445  0.00  0.00    +0.040 A 
ATOM     23  C   UNL     1       0.156  -5.377   4.601  0.00  0.00    +0.018 A 
ATOM     24  C   UNL     1       1.408  -4.879   4.892  0.00  0.00    +0.008 A 
ATOM     25  C   UNL     1       2.428  -5.107   4.026  0.00  0.00    +0.046 A 
ATOM     26  S   UNL     1       1.627  -6.063   2.749  0.00  0.00    -0.095 S 
ENDBRANCH   3  22
BRANCH   9  27
ATOM     27  N   UNL     1      -3.201  -8.121  -1.981  0.00  0.00    -0.328 N 
ATOM     28  H   UNL     1      -4.056  -8.579  -1.973  0.00  0.00    +0.145 HD
ATOM     29  H   UNL     1      -2.705  -8.034  -2.810  0.00  0.00    +0.145 HD
ENDBRANCH   9  27
BRANCH  10  30
ATOM     30  C   UNL     1      -0.819  -6.880  -2.133  0.00  0.00    +0.101 C 
ATOM     31  N   UNL     1      -0.281  -6.812  -3.131  0.00  0.00    -0.191 NA
ENDBRANCH  10  30
TORSDOF 5
