REMARK  Name = ZINC58057724
REMARK  6 active torsions:
REMARK  status: ('A' for Active; 'I' for Inactive)
REMARK    1  A    between atoms: C_1  and  C_2
REMARK    2  A    between atoms: C_6  and  C_8
REMARK    3  A    between atoms: C_14  and  C_16
REMARK    4  A    between atoms: C_18  and  N_24
REMARK    5  A    between atoms: C_21  and  O_22
REMARK    6  A    between atoms: O_22  and  C_23
REMARK                            x       y       z     vdW  Elec       q    Type
REMARK                         _______ _______ _______ _____ _____    ______ ____
ROOT
ATOM      1  C   UNL     1       0.032  -2.846   2.457  0.00  0.00    +0.141 A 
ATOM      2  N   UNL     1       0.075  -4.208   2.427  0.00  0.00    -0.307 N 
ATOM      3  H   UNL     1       0.080  -4.674   1.576  0.00  0.00    +0.170 HD
ATOM      4  C   UNL     1       0.109  -4.911   3.579  0.00  0.00    +0.252 A 
ATOM      5  O   UNL     1       0.148  -6.130   3.562  0.00  0.00    -0.268 OA
ATOM      6  C   UNL     1       0.101  -4.213   4.798  0.00  0.00    +0.098 A 
ATOM      7  C   UNL     1       0.056  -2.827   4.771  0.00  0.00    +0.082 A 
ATOM      8  N   UNL     1       0.029  -2.185   3.593  0.00  0.00    -0.229 NA
ENDROOT
BRANCH   1  14
ATOM      9  C   UNL     1      -0.119   1.500   0.011  0.00  0.00    +0.044 C 
ATOM     10  C   UNL     1      -0.078  -0.006   0.003  0.00  0.00    -0.050 A 
ATOM     11  C   UNL     1      -0.075  -0.690  -1.201  0.00  0.00    +0.003 A 
ATOM     12  C   UNL     1      -0.037  -2.073  -1.217  0.00  0.00    +0.001 A 
ATOM     13  C   UNL     1      -0.002  -2.779  -0.033  0.00  0.00    +0.011 A 
ATOM     14  C   UNL     1      -0.005  -2.096   1.184  0.00  0.00    +0.018 A 
ATOM     15  C   UNL     1      -0.037  -0.700   1.194  0.00  0.00    +0.015 A 
ENDBRANCH   1  14
BRANCH   7  16
ATOM     16  C   UNL     1       0.046  -2.059   6.036  0.00  0.00    +0.044 A 
ATOM     17  C   UNL     1      -0.045  -2.724   7.258  0.00  0.00    +0.036 A 
ATOM     18  C   UNL     1      -0.054  -2.000   8.438  0.00  0.00    +0.025 A 
ATOM     19  C   UNL     1       0.027  -0.612   8.406  0.00  0.00    +0.026 A 
ATOM     20  C   UNL     1       0.117   0.052   7.198  0.00  0.00    +0.048 A 
ATOM     21  C   UNL     1       0.132  -0.662   6.011  0.00  0.00    +0.129 A 
BRANCH  18  22
ATOM     22  N   UNL     1      -0.144  -2.665   9.666  0.00  0.00    -0.358 N 
ATOM     23  H   UNL     1      -0.201  -3.633   9.690  0.00  0.00    +0.142 HD
ATOM     24  H   UNL     1      -0.151  -2.159  10.493  0.00  0.00    +0.142 HD
ENDBRANCH  18  22
BRANCH  21  25
ATOM     25  O   UNL     1       0.226  -0.008   4.824  0.00  0.00    -0.494 OA
ATOM     26  C   UNL     1       0.311   1.418   4.875  0.00  0.00    +0.277 C 
ENDBRANCH  21  25
ENDBRANCH   7  16
TORSDOF 4
