REMARK  Name = ZINC09596480
REMARK  8 active torsions:
REMARK  status: ('A' for Active; 'I' for Inactive)
REMARK    1  A    between atoms: C_1  and  C_2
REMARK    2  A    between atoms: C_2  and  C_4
REMARK    3  A    between atoms: C_2  and  N_58
REMARK    4  A    between atoms: N_6  and  C_7
REMARK    5  A    between atoms: C_8  and  C_15
REMARK    6  A    between atoms: N_20  and  S_23
REMARK    7  A    between atoms: S_23  and  C_26
REMARK    8  A    between atoms: C_31  and  C_32
REMARK                            x       y       z     vdW  Elec       q    Type
REMARK                         _______ _______ _______ _____ _____    ______ ____
ROOT
ATOM      1  C   UNL     1       2.960   5.689  -1.474  0.00  0.00    -0.004 C 
ATOM      2  C   UNL     1       2.139   5.594  -0.186  0.00  0.00    +0.017 C 
ENDROOT
BRANCH   2   8
ATOM      3  C   UNL     1       0.305   6.750  -1.264  0.00  0.00    -0.060 C 
ATOM      4  C   UNL     1      -0.755   7.837  -1.059  0.00  0.00    +0.091 C 
ATOM      5  N   UNL     1      -0.072   9.111  -0.787  0.00  0.00    -0.180 NA
ATOM      6  C   UNL     1       0.955   9.139   0.266  0.00  0.00    +0.091 C 
ATOM      7  C   UNL     1       1.947   8.000   0.008  0.00  0.00    -0.060 C 
ATOM      8  N   UNL     1       1.198   6.729  -0.085  0.00  0.00    +0.389 N 
ATOM      9  H   UNL     1       0.628   6.615   0.761  0.00  0.00    -0.081 HD
BRANCH   5  10
ATOM     10  S   UNL     1      -0.448  10.477  -1.644  0.00  0.00    +0.062 S 
ATOM     11  O   UNL     1      -1.694  10.227  -2.280  0.00  0.00    -0.153 OA
ATOM     12  O   UNL     1      -0.249  11.575  -0.765  0.00  0.00    -0.153 OA
BRANCH  10  13
ATOM     13  C   UNL     1       0.749  10.634  -2.927  0.00  0.00    +0.123 A 
ATOM     14  C   UNL     1       1.654  11.675  -2.904  0.00  0.00    +0.030 A 
ATOM     15  C   UNL     1       2.598  11.797  -3.908  0.00  0.00    +0.002 A 
ATOM     16  C   UNL     1       2.635  10.883  -4.947  0.00  0.00    +0.001 A 
ATOM     17  C   UNL     1       1.733   9.841  -4.985  0.00  0.00    +0.021 A 
ATOM     18  C   UNL     1       0.781   9.708  -3.972  0.00  0.00    +0.078 A 
BRANCH  18  19
ATOM     19  C   UNL     1      -0.159   8.629  -4.005  0.00  0.00    +0.101 C 
ATOM     20  N   UNL     1      -0.905   7.772  -4.032  0.00  0.00    -0.191 NA
ENDBRANCH  18  19
ENDBRANCH  10  13
ENDBRANCH   5  10
ENDBRANCH   2   8
BRANCH   2  21
ATOM     21  C   UNL     1       1.354   4.308  -0.183  0.00  0.00    +0.204 C 
ATOM     22  O   UNL     1       0.143   4.337  -0.124  0.00  0.00    -0.277 OA
ATOM     23  N   UNL     1       1.998   3.126  -0.246  0.00  0.00    -0.281 N 
ATOM     24  H   UNL     1       2.967   3.103  -0.294  0.00  0.00    +0.155 HD
BRANCH  23  25
ATOM     25  C   UNL     1       1.276   1.942  -0.244  0.00  0.00    +0.084 A 
ATOM     26  C   UNL     1       1.752   0.643  -0.301  0.00  0.00    +0.068 A 
ATOM     27  C   UNL     1       0.769  -0.440  -0.284  0.00  0.00    -0.023 A 
ATOM     28  C   UNL     1      -0.514  -0.045  -0.211  0.00  0.00    -0.004 A 
ATOM     29  S   UNL     1      -0.440   1.729  -0.168  0.00  0.00    -0.077 S 
ATOM     30  C   UNL     1      -1.464  -1.212  -0.194  0.00  0.00    +0.043 C 
ATOM     31  C   UNL     1      -0.581  -2.426   0.170  0.00  0.00    +0.010 C 
ATOM     32  C   UNL     1       0.804  -1.968  -0.329  0.00  0.00    +0.037 C 
BRANCH  26  33
ATOM     33  C   UNL     1       3.189   0.364  -0.377  0.00  0.00    +0.244 C 
ATOM     34  O   UNL     1       3.736   0.277  -1.461  0.00  0.00    -0.270 OA
ATOM     35  N   UNL     1       3.905   0.204   0.754  0.00  0.00    -0.325 N 
ATOM     36  H   UNL     1       3.469   0.274   1.618  0.00  0.00    +0.145 HD
ATOM     37  H   UNL     1       4.856   0.019   0.704  0.00  0.00    +0.145 HD
ENDBRANCH  26  33
ENDBRANCH  23  25
ENDBRANCH   2  21
TORSDOF 7
