REMARK  Name = ZINC16914437
REMARK  8 active torsions:
REMARK  status: ('A' for Active; 'I' for Inactive)
REMARK    1  A    between atoms: C_1  and  N_2
REMARK    2  A    between atoms: N_2  and  C_3
REMARK    3  A    between atoms: N_2  and  C_4
REMARK    4  A    between atoms: C_7  and  C_10
REMARK    5  A    between atoms: C_10  and  C_12
REMARK    6  A    between atoms: C_10  and  N_56
REMARK    7  A    between atoms: C_12  and  N_13
REMARK    8  A    between atoms: C_14  and  C_16
REMARK                            x       y       z     vdW  Elec       q    Type
REMARK                         _______ _______ _______ _____ _____    ______ ____
ROOT
ATOM      1  C   UNL     1       5.061   4.776  -0.083  0.00  0.00    -0.020 C 
ENDROOT
BRANCH   1  11
ATOM      2  C   UNL     1       7.025   3.929   1.056  0.00  0.00    -0.073 C 
ATOM      3  C   UNL     1       7.457   3.292   2.377  0.00  0.00    +0.017 C 
ATOM      4  C   UNL     1       6.794   1.948   2.542  0.00  0.00    -0.048 A 
ATOM      5  C   UNL     1       7.311   1.065   3.478  0.00  0.00    +0.004 A 
ATOM      6  C   UNL     1       6.729  -0.172   3.667  0.00  0.00    +0.000 A 
ATOM      7  C   UNL     1       5.623  -0.532   2.918  0.00  0.00    +0.000 A 
ATOM      8  C   UNL     1       5.109   0.345   1.985  0.00  0.00    +0.002 A 
ATOM      9  C   UNL     1       5.694   1.588   1.793  0.00  0.00    -0.061 A 
ATOM     10  C   UNL     1       5.099   2.509   0.760  0.00  0.00    -0.042 C 
ATOM     11  N   UNL     1       5.550   3.890   0.999  0.00  0.00    +0.388 N 
ATOM     12  H   UNL     1       5.170   4.217   1.895  0.00  0.00    -0.080 HD
ENDBRANCH   1  11
BRANCH   1  16
ATOM     13  C   UNL     1       6.137   8.810   0.830  0.00  0.00    +0.029 A 
ATOM     14  C   UNL     1       6.214   8.348  -0.477  0.00  0.00    +0.023 A 
ATOM     15  C   UNL     1       5.865   7.044  -0.769  0.00  0.00    +0.004 A 
ATOM     16  C   UNL     1       5.440   6.198   0.239  0.00  0.00    -0.059 A 
ATOM     17  C   UNL     1       5.357   6.657   1.542  0.00  0.00    +0.004 A 
ATOM     18  C   UNL     1       5.710   7.958   1.841  0.00  0.00    +0.023 A 
BRANCH  13  20
ATOM     19  C   UNL     1       6.939  11.026   0.062  0.00  0.00    +0.129 C 
ATOM     20  N   UNL     1       6.489  10.128   1.129  0.00  0.00    -0.336 N 
ATOM     21  C   UNL     1       6.407  10.614   2.509  0.00  0.00    +0.129 C 
ENDBRANCH  13  20
ENDBRANCH   1  16
BRANCH   1  22
ATOM     22  C   UNL     1       3.537   4.662  -0.173  0.00  0.00    +0.094 C 
BRANCH  22  23
ATOM     23  N   UNL     1       3.052   5.478  -1.289  0.00  0.00    -0.310 N 
ATOM     24  C   UNL     1       1.728   5.617  -1.496  0.00  0.00    +0.279 C 
ATOM     25  O   UNL     1       0.935   5.065  -0.756  0.00  0.00    -0.267 OA
ATOM     26  H   UNL     1       3.684   5.918  -1.879  0.00  0.00    +0.149 HD
BRANCH  24  27
ATOM     27  C   UNL     1       1.243   6.433  -2.613  0.00  0.00    +0.191 A 
ATOM     28  C   UNL     1      -0.066   6.656  -2.934  0.00  0.00    +0.056 A 
ATOM     29  C   UNL     1      -0.068   7.487  -4.064  0.00  0.00    +0.058 A 
ATOM     30  C   UNL     1       1.224   7.733  -4.380  0.00  0.00    +0.171 A 
ATOM     31  O   UNL     1       2.010   7.096  -3.503  0.00  0.00    -0.444 OA
ATOM     32 BR   UNL     1       1.822   8.800  -5.823  0.00  0.00    -0.008 Br
ENDBRANCH  24  27
ENDBRANCH  22  23
ENDBRANCH   1  22
TORSDOF 6
