REMARK  Name = ZINC22916371
REMARK  5 active torsions:
REMARK  status: ('A' for Active; 'I' for Inactive)
REMARK    1  A    between atoms: C_1  and  C_2
REMARK    2  A    between atoms: C_9  and  C_11
REMARK    3  A    between atoms: N_13  and  C_14
REMARK    4  A    between atoms: C_19  and  C_20
REMARK    5  A    between atoms: C_20  and  C_22
REMARK                            x       y       z     vdW  Elec       q    Type
REMARK                         _______ _______ _______ _____ _____    ______ ____
ROOT
ATOM      1  C   UNL     1      -1.809   2.624   5.042  0.00  0.00    +0.255 C 
ATOM      2  O   UNL     1      -2.863   3.124   5.388  0.00  0.00    -0.269 OA
ATOM      3  N   UNL     1      -0.847   2.382   5.954  0.00  0.00    -0.280 N 
ATOM      4  H   UNL     1       0.076   1.863   5.655  0.00  0.00    +0.155 HD
ENDROOT
BRANCH   1  12
ATOM      5  C   UNL     1      -2.996   1.491  -2.353  0.00  0.00    +0.008 C 
ATOM      6  C   UNL     1      -2.268   1.244  -1.030  0.00  0.00    -0.009 C 
ATOM      7  C   UNL     1      -0.772   1.509  -1.215  0.00  0.00    +0.009 C 
ATOM      8  C   UNL     1      -0.023   1.002   0.026  0.00  0.00    +0.043 C 
ATOM      9  C   UNL     1      -0.730   1.510   1.245  0.00  0.00    -0.006 A 
ATOM     10  C   UNL     1      -1.986   2.044   1.305  0.00  0.00    -0.036 A 
ATOM     11  C   UNL     1      -2.433   2.449   2.553  0.00  0.00    +0.024 A 
ATOM     12  C   UNL     1      -1.586   2.285   3.634  0.00  0.00    +0.075 A 
ATOM     13  S   UNL     1      -0.151   1.551   2.866  0.00  0.00    -0.088 S 
ATOM     14  C   UNL     1      -2.834   2.175   0.043  0.00  0.00    +0.039 C 
ENDBRANCH   1  12
BRANCH   3  15
ATOM     15  C   UNL     1      -1.021   2.788   7.274  0.00  0.00    +0.048 A 
ATOM     16  C   UNL     1      -2.279   2.749   7.853  0.00  0.00    +0.073 A 
ATOM     17  C   UNL     1      -2.454   3.148   9.169  0.00  0.00    +0.168 A 
ATOM     18  C   UNL     1      -1.363   3.603   9.917  0.00  0.00    +0.167 A 
ATOM     19  C   UNL     1      -0.107   3.651   9.352  0.00  0.00    +0.062 A 
ATOM     20  C   UNL     1       0.079   3.244   8.023  0.00  0.00    +0.042 A 
ATOM     21  O   UNL     1      -1.803   3.936  11.167  0.00  0.00    -0.453 OA
ATOM     22  C   UNL     1      -3.086   3.297  11.305  0.00  0.00    +0.466 C 
ATOM     23  O   UNL     1      -3.568   3.200   9.952  0.00  0.00    -0.453 OA
BRANCH  20  24
ATOM     24  C   UNL     1       1.412   3.294   7.418  0.00  0.00    +0.162 C 
ATOM     25  O   UNL     1       1.554   3.032   6.242  0.00  0.00    -0.292 OA
ATOM     26  C   UNL     1       2.606   3.669   8.257  0.00  0.00    +0.091 C 
ENDBRANCH  20  24
ENDBRANCH   3  15
TORSDOF 3
