REMARK  Name = ZINC39461548
REMARK  7 active torsions:
REMARK  status: ('A' for Active; 'I' for Inactive)
REMARK    1  A    between atoms: C_1  and  C_2
REMARK    2  A    between atoms: C_4  and  C_8
REMARK    3  A    between atoms: C_8  and  N_9
REMARK    4  A    between atoms: C_12  and  C_15
REMARK    5  A    between atoms: C_12  and  O_29
REMARK    6  A    between atoms: C_15  and  C_16
REMARK    7  A    between atoms: C_19  and  C_23
REMARK                            x       y       z     vdW  Elec       q    Type
REMARK                         _______ _______ _______ _____ _____    ______ ____
ROOT
ATOM      1  N   UNL     1      -1.310  -3.846   1.724  0.00  0.00    +0.384 N 
ATOM      2  C   UNL     1      -1.863  -4.289   0.439  0.00  0.00    -0.076 C 
ATOM      3  C   UNL     1      -3.319  -4.721   0.628  0.00  0.00    +0.016 C 
ATOM      4  C   UNL     1      -3.377  -5.874   1.635  0.00  0.00    +0.065 C 
ATOM      5  C   UNL     1      -2.729  -5.424   2.948  0.00  0.00    +0.016 C 
ATOM      6  C   UNL     1      -1.296  -4.966   2.673  0.00  0.00    -0.076 C 
ATOM      7  H   UNL     1      -1.879  -3.100   2.094  0.00  0.00    -0.081 HD
ENDROOT
BRANCH   4   8
ATOM      8  O   UNL     1      -2.668  -7.000   1.114  0.00  0.00    -0.389 OA
ATOM      9  H   UNL     1      -1.734  -6.827   0.932  0.00  0.00    +0.210 HD
ENDBRANCH   4   8
BRANCH   1  10
ATOM     10  C   UNL     1       0.062  -3.359   1.523  0.00  0.00    -0.021 C 
BRANCH  10  14
ATOM     11  C   UNL     1      -0.018   1.503   0.010  0.00  0.00    +0.065 C 
ATOM     12  C   UNL     1       0.002  -0.004   0.002  0.00  0.00    +0.033 A 
ATOM     13  C   UNL     1       0.023  -0.808   1.091  0.00  0.00    +0.045 A 
ATOM     14  C   UNL     1       0.036  -2.134   0.646  0.00  0.00    +0.047 A 
ATOM     15  N   UNL     1       0.023  -2.127  -0.662  0.00  0.00    -0.181 NA
ATOM     16  H   UNL     1      -0.021  -0.492  -2.014  0.00  0.00    +0.188 HD
ATOM     17  N   UNL     1      -0.004  -0.794  -1.092  0.00  0.00    -0.282 N 
ENDBRANCH  10  14
ENDBRANCH   1  10
BRANCH   4  18
ATOM     18  C   UNL     1      -4.835  -6.258   1.890  0.00  0.00    +0.068 C 
BRANCH  18  19
ATOM     19  C   UNL     1      -4.898  -7.323   2.987  0.00  0.00    +0.146 C 
ATOM     20  C   UNL     1      -6.355  -7.799   3.179  0.00  0.00    +0.059 C 
ATOM     21  C   UNL     1      -6.459  -7.950   4.719  0.00  0.00    +0.113 C 
ATOM     22  N   UNL     1      -5.603  -6.828   5.190  0.00  0.00    -0.193 NA
ATOM     23  O   UNL     1      -4.481  -6.763   4.240  0.00  0.00    -0.296 OA
ATOM     24  H   UNL     1      -5.272  -6.995   6.128  0.00  0.00    +0.154 HD
BRANCH  21  25
ATOM     25  C   UNL     1      -7.882  -7.775   5.184  0.00  0.00    -0.028 A 
ATOM     26  C   UNL     1      -8.414  -6.506   5.320  0.00  0.00    +0.005 A 
ATOM     27  C   UNL     1      -9.719  -6.346   5.746  0.00  0.00    +0.000 A 
ATOM     28  C   UNL     1     -10.493  -7.455   6.035  0.00  0.00    +0.000 A 
ATOM     29  C   UNL     1      -9.961  -8.723   5.898  0.00  0.00    +0.000 A 
ATOM     30  C   UNL     1      -8.658  -8.884   5.468  0.00  0.00    +0.005 A 
ENDBRANCH  21  25
ENDBRANCH  18  19
ENDBRANCH   4  18
TORSDOF 6
