REMARK  Name = ZINC60366860
REMARK  6 active torsions:
REMARK  status: ('A' for Active; 'I' for Inactive)
REMARK    1  A    between atoms: C_6  and  C_7
REMARK    2  A    between atoms: C_8  and  C_13
REMARK    3  A    between atoms: C_13  and  N_14
REMARK    4  A    between atoms: N_14  and  C_15
REMARK    5  A    between atoms: C_15  and  C_16
REMARK    6  A    between atoms: C_16  and  O_22
REMARK                            x       y       z     vdW  Elec       q    Type
REMARK                         _______ _______ _______ _____ _____    ______ ____
ROOT
ATOM      1  C   UNL     1      -1.344  -0.683  -0.114  0.00  0.00    +0.094 A 
ATOM      2  C   UNL     1      -2.430  -0.443   0.750  0.00  0.00    -0.019 A 
ATOM      3  C   UNL     1      -3.308  -1.459   0.603  0.00  0.00    +0.107 A 
ATOM      4  N   UNL     1      -2.807  -2.313  -0.315  0.00  0.00    -0.284 N 
ATOM      5  H   UNL     1      -3.227  -3.133  -0.619  0.00  0.00    +0.188 HD
ATOM      6  N   UNL     1      -1.578  -1.807  -0.756  0.00  0.00    -0.174 NA
ENDROOT
BRANCH   1  12
ATOM      7  C   UNL     1       0.359   0.442  -1.546  0.00  0.00    +0.014 A 
ATOM      8  C   UNL     1       1.470   1.246  -1.694  0.00  0.00    +0.050 A 
ATOM      9  C   UNL     1       2.085   1.801  -0.580  0.00  0.00    +0.162 A 
ATOM     10  C   UNL     1       1.580   1.548   0.692  0.00  0.00    +0.163 A 
ATOM     11  C   UNL     1       0.466   0.739   0.845  0.00  0.00    +0.059 A 
ATOM     12  C   UNL     1      -0.149   0.183  -0.275  0.00  0.00    +0.006 A 
ATOM     13  O   UNL     1       2.166   2.090   1.794  0.00  0.00    -0.485 OA
ATOM     14  C   UNL     1       3.497   2.591   1.635  0.00  0.00    +0.270 C 
ATOM     15  C   UNL     1       3.545   3.430   0.352  0.00  0.00    +0.270 C 
ATOM     16  O   UNL     1       3.182   2.589  -0.748  0.00  0.00    -0.485 OA
ENDBRANCH   1  12
BRANCH   2  17
ATOM     17  C   UNL     1      -2.586   0.737   1.674  0.00  0.00    -0.043 C 
BRANCH  17  18
ATOM     18  N   UNL     1      -2.986   1.918   0.897  0.00  0.00    +0.384 N 
ATOM     19  H   UNL     1      -2.319   2.075   0.157  0.00  0.00    -0.085 HD
ATOM     20  H   UNL     1      -3.901   1.765   0.499  0.00  0.00    -0.085 HD
BRANCH  18  21
ATOM     21  C   UNL     1      -3.026   3.093   1.778  0.00  0.00    -0.047 C 
BRANCH  21  22
ATOM     22  C   UNL     1      -3.442   4.323   0.969  0.00  0.00    +0.051 C 
ATOM     23  C   UNL     1      -2.503   4.489  -0.227  0.00  0.00    +0.033 C 
ATOM     24  C   UNL     1      -2.920   5.719  -1.036  0.00  0.00    +0.003 C 
ATOM     25  C   UNL     1      -2.841   6.963  -0.150  0.00  0.00    +0.000 C 
ATOM     26  C   UNL     1      -3.780   6.798   1.047  0.00  0.00    +0.003 C 
ATOM     27  C   UNL     1      -3.363   5.568   1.856  0.00  0.00    +0.033 C 
BRANCH  22  28
ATOM     28  O   UNL     1      -4.782   4.155   0.503  0.00  0.00    -0.390 OA
ATOM     29  H   UNL     1      -4.907   3.383  -0.067  0.00  0.00    +0.210 HD
ENDBRANCH  22  28
ENDBRANCH  21  22
ENDBRANCH  18  21
ENDBRANCH  17  18
ENDBRANCH   2  17
TORSDOF 6
