REMARK  Name = ZINC52636938
REMARK  13 active torsions:
REMARK  status: ('A' for Active; 'I' for Inactive)
REMARK    1  A    between atoms: C_1  and  C_2
REMARK    2  A    between atoms: C_6  and  C_8
REMARK    3  A    between atoms: C_8  and  C_9
REMARK    4  A    between atoms: C_9  and  C_10
REMARK    5  A    between atoms: C_10  and  O_11
REMARK    6  A    between atoms: O_11  and  C_12
REMARK    7  A    between atoms: C_12  and  C_13
REMARK    8  A    between atoms: C_13  and  C_14
REMARK    9  A    between atoms: C_19  and  O_20
REMARK   10  A    between atoms: O_20  and  C_21
REMARK   11  A    between atoms: C_25  and  C_28
REMARK   12  A    between atoms: C_31  and  C_34
REMARK   13  A    between atoms: C_37  and  O_40
REMARK                            x       y       z     vdW  Elec       q    Type
REMARK                         _______ _______ _______ _____ _____    ______ ____
ROOT
ATOM      1  C   UNL     1       3.772  -3.075   8.868  0.00  0.00    -0.003 A 
ATOM      2  C   UNL     1       3.211  -2.460   9.972  0.00  0.00    +0.011 A 
ATOM      3  C   UNL     1       3.314  -3.040  11.217  0.00  0.00    -0.037 A 
ATOM      4  C   UNL     1       4.000  -4.245  11.374  0.00  0.00    -0.013 A 
ATOM      5  C   UNL     1       4.550  -4.864  10.271  0.00  0.00    +0.052 A 
ATOM      6  C   UNL     1       4.435  -4.285   9.015  0.00  0.00    +0.124 A 
ATOM      7  C   UNL     1       3.986  -4.580  12.835  0.00  0.00    +0.157 C 
ATOM      8  C   UNL     1       2.688  -3.920  13.324  0.00  0.00    -0.010 C 
ATOM      9  C   UNL     1       2.100  -4.872  14.024  0.00  0.00    +0.093 C 
ATOM     10  N   UNL     1       2.784  -6.048  13.904  0.00  0.00    -0.177 NA
ATOM     11  N   UNL     1       3.822  -5.972  13.207  0.00  0.00    -0.297 N 
ATOM     12  C   UNL     1       2.779  -2.608  12.579  0.00  0.00    +0.071 C 
ATOM     13  H   UNL     1       4.409  -6.703  12.958  0.00  0.00    +0.183 HD
ENDROOT
BRANCH   9  14
ATOM     14  C   UNL     1       0.868  -4.691  14.830  0.00  0.00    +0.002 A 
ATOM     15  C   UNL     1       0.245  -3.444  14.879  0.00  0.00    +0.010 A 
ATOM     16  C   UNL     1      -0.899  -3.275  15.628  0.00  0.00    +0.009 A 
ATOM     17  C   UNL     1      -1.434  -4.351  16.336  0.00  0.00    -0.018 A 
ATOM     18  C   UNL     1      -0.811  -5.597  16.286  0.00  0.00    +0.009 A 
ATOM     19  C   UNL     1       0.330  -5.768  15.533  0.00  0.00    +0.010 A 
BRANCH  17  20
ATOM     20  C   UNL     1      -2.666  -4.168  17.141  0.00  0.00    -0.018 A 
ATOM     21  C   UNL     1      -3.293  -2.924  17.188  0.00  0.00    +0.012 A 
ATOM     22  C   UNL     1      -4.438  -2.758  17.938  0.00  0.00    +0.046 A 
ATOM     23  C   UNL     1      -4.966  -3.828  18.647  0.00  0.00    +0.117 A 
ATOM     24  C   UNL     1      -4.344  -5.069  18.604  0.00  0.00    +0.046 A 
ATOM     25  C   UNL     1      -3.202  -5.243  17.850  0.00  0.00    +0.012 A 
BRANCH  23  26
ATOM     26  O   UNL     1      -6.094  -3.661  19.386  0.00  0.00    -0.507 OA
ATOM     27  H   UNL     1      -6.912  -3.834  18.900  0.00  0.00    +0.292 HD
ENDBRANCH  23  26
ENDBRANCH  17  20
ENDBRANCH   9  14
BRANCH   6  28
ATOM     28  O   UNL     1       4.975  -4.900   7.931  0.00  0.00    -0.495 OA
ATOM     29  C   UNL     1       5.643  -6.143   8.155  0.00  0.00    +0.277 C 
ENDBRANCH   6  28
BRANCH   1  30
ATOM     30  C   UNL     1       3.660  -2.436   7.509  0.00  0.00    +0.067 C 
BRANCH  30  31
ATOM     31  C   UNL     1       2.453  -3.018   6.770  0.00  0.00    +0.164 C 
BRANCH  31  32
ATOM     32  O   UNL     1       2.346  -2.411   5.480  0.00  0.00    -0.379 OA
BRANCH  32  33
ATOM     33  C   UNL     1       1.245  -2.888   4.703  0.00  0.00    +0.160 C 
BRANCH  33  34
ATOM     34  C   UNL     1       1.229  -2.174   3.350  0.00  0.00    +0.034 C 
BRANCH  34  35
ATOM     35  C   UNL     1       0.050  -2.683   2.519  0.00  0.00    +0.057 C 
BRANCH  35  41
ATOM     36  C   UNL     1      -0.018   1.503   0.010  0.00  0.00    +0.065 C 
ATOM     37  C   UNL     1       0.002  -0.004   0.002  0.00  0.00    +0.039 A 
ATOM     38  C   UNL     1       0.005  -0.681  -1.203  0.00  0.00    +0.023 A 
ATOM     39  C   UNL     1       0.024  -2.067  -1.200  0.00  0.00    +0.003 A 
ATOM     40  C   UNL     1       0.039  -2.724   0.021  0.00  0.00    +0.023 A 
ATOM     41  C   UNL     1       0.035  -1.980   1.186  0.00  0.00    +0.042 A 
ATOM     42  N   UNL     1       0.022  -0.662   1.145  0.00  0.00    -0.257 NA
ENDBRANCH  35  41
ENDBRANCH  34  35
ENDBRANCH  33  34
ENDBRANCH  32  33
ENDBRANCH  31  32
ENDBRANCH  30  31
ENDBRANCH   1  30
TORSDOF 11
