REMARK  Name = ZINC67469749
REMARK  10 active torsions:
REMARK  status: ('A' for Active; 'I' for Inactive)
REMARK    1  A    between atoms: C_1  and  C_2
REMARK    2  A    between atoms: C_2  and  C_4
REMARK    3  A    between atoms: C_2  and  N_15
REMARK    4  A    between atoms: C_8  and  S_10
REMARK    5  A    between atoms: S_10  and  N_13
REMARK    6  A    between atoms: N_13  and  C_14
REMARK    7  A    between atoms: N_18  and  C_19
REMARK    8  A    between atoms: N_18  and  C_20
REMARK    9  A    between atoms: C_20  and  C_21
REMARK   10  A    between atoms: C_25  and  O_27
REMARK                            x       y       z     vdW  Elec       q    Type
REMARK                         _______ _______ _______ _____ _____    ______ ____
ROOT
ATOM      1  N   UNL     1       0.711  -0.489   1.189  0.00  0.00    -0.293 N 
ATOM      2  C   UNL     1       0.051  -0.633   2.355  0.00  0.00    +0.303 C 
ATOM      3  O   UNL     1      -1.132  -0.361   2.423  0.00  0.00    -0.253 OA
ATOM      4  N   UNL     1       0.703  -1.080   3.447  0.00  0.00    -0.284 N 
ATOM      5  C   UNL     1       2.128  -1.409   3.366  0.00  0.00    +0.134 C 
ATOM      6  H   UNL     1       1.654  -0.707   1.135  0.00  0.00    +0.151 HD
ENDROOT
BRANCH   1   8
ATOM      7  C   UNL     1      -0.019   1.526   0.010  0.00  0.00    +0.033 C 
ATOM      8  C   UNL     1       0.002  -0.004   0.002  0.00  0.00    +0.102 C 
BRANCH   8   9
ATOM      9  C   UNL     1       0.707  -0.490  -1.238  0.00  0.00    -0.026 A 
ATOM     10  C   UNL     1       2.089  -0.511  -1.284  0.00  0.00    +0.005 A 
ATOM     11  C   UNL     1       2.736  -0.957  -2.421  0.00  0.00    +0.002 A 
ATOM     12  C   UNL     1       2.002  -1.382  -3.512  0.00  0.00    +0.028 A 
ATOM     13  C   UNL     1       0.620  -1.362  -3.466  0.00  0.00    +0.106 A 
ATOM     14  C   UNL     1      -0.027  -0.920  -2.327  0.00  0.00    +0.034 A 
BRANCH  13  15
ATOM     15  S   UNL     1      -0.316  -1.904  -4.857  0.00  0.00    +0.058 S 
ATOM     16  O   UNL     1      -1.586  -1.274  -4.762  0.00  0.00    -0.153 OA
ATOM     17  O   UNL     1       0.524  -1.758  -5.994  0.00  0.00    -0.153 OA
BRANCH  15  18
ATOM     18  N   UNL     1      -0.578  -3.528  -4.668  0.00  0.00    -0.193 NA
ATOM     19  C   UNL     1      -1.396  -4.014  -3.554  0.00  0.00    +0.127 C 
ATOM     20  H   UNL     1      -0.190  -4.158  -5.295  0.00  0.00    +0.148 HD
ENDBRANCH  15  18
ENDBRANCH  13  15
ENDBRANCH   8   9
ENDBRANCH   1   8
BRANCH   4  21
ATOM     21  C   UNL     1      -0.014  -1.237   4.715  0.00  0.00    +0.144 C 
BRANCH  21  22
ATOM     22  C   UNL     1      -0.588  -2.627   4.799  0.00  0.00    -0.027 A 
ATOM     23  C   UNL     1      -1.856  -2.882   4.311  0.00  0.00    +0.005 A 
ATOM     24  C   UNL     1      -2.386  -4.157   4.386  0.00  0.00    +0.004 A 
ATOM     25  C   UNL     1      -1.649  -5.180   4.951  0.00  0.00    +0.045 A 
ATOM     26  C   UNL     1      -0.376  -4.927   5.442  0.00  0.00    +0.117 A 
ATOM     27  C   UNL     1       0.155  -3.648   5.359  0.00  0.00    +0.050 A 
BRANCH  26  28
ATOM     28  O   UNL     1       0.351  -5.932   5.998  0.00  0.00    -0.507 OA
ATOM     29  H   UNL     1       0.904  -6.412   5.367  0.00  0.00    +0.292 HD
ENDBRANCH  26  28
ENDBRANCH  21  22
ENDBRANCH   4  21
TORSDOF 7
