REMARK  Name = ZINC27903619
REMARK  6 active torsions:
REMARK  status: ('A' for Active; 'I' for Inactive)
REMARK    1  A    between atoms: C_1  and  C_2
REMARK    2  A    between atoms: C_6  and  C_8
REMARK    3  A    between atoms: C_8  and  N_9
REMARK    4  A    between atoms: C_11  and  C_18
REMARK    5  A    between atoms: C_28  and  C_30
REMARK    6  A    between atoms: C_35  and  C_36
REMARK                            x       y       z     vdW  Elec       q    Type
REMARK                         _______ _______ _______ _____ _____    ______ ____
ROOT
ATOM      1  C   UNL     1      -2.459   1.417  -0.491  0.00  0.00    +0.026 C 
ATOM      2  C   UNL     1      -1.710   1.680   0.641  0.00  0.00    +0.081 C 
ATOM      3  C   UNL     1      -1.630   3.045   1.234  0.00  0.00    +0.153 C 
ATOM      4  N   UNL     1      -2.617   3.902   1.201  0.00  0.00    -0.283 NA
ATOM      5  N   UNL     1      -0.381   3.324   1.830  0.00  0.00    -0.152 N 
ATOM      6  C   UNL     1       0.388   2.252   2.231  0.00  0.00    +0.181 C 
ATOM      7  N   UNL     1       0.137   0.980   2.052  0.00  0.00    -0.152 NA
ATOM      8  C   UNL     1      -0.946   0.617   1.336  0.00  0.00    +0.273 C 
ATOM      9  O   UNL     1      -1.285  -0.553   1.257  0.00  0.00    -0.268 OA
ATOM     10  S   UNL     1       1.746   3.049   3.047  0.00  0.00    -0.033 S 
ATOM     11  C   UNL     1       1.251   4.738   2.735  0.00  0.00    +0.130 C 
ATOM     12  N   UNL     1       0.125   4.582   2.082  0.00  0.00    -0.164 NA
ATOM     13  H   UNL     1      -2.498   4.896   1.657  0.00  0.00    +0.188 HD
ENDROOT
BRANCH   1  16
ATOM     14  N   UNL     1      -1.579  -1.790  -1.867  0.00  0.00    -0.342 N 
ATOM     15  C   UNL     1      -1.263  -0.660  -1.204  0.00  0.00    +0.095 A 
ATOM     16  C   UNL     1      -2.378   0.151  -1.114  0.00  0.00    +0.001 A 
ATOM     17  C   UNL     1      -3.467  -0.570  -1.804  0.00  0.00    +0.007 A 
ATOM     18  C   UNL     1      -2.905  -1.775  -2.253  0.00  0.00    +0.050 A 
ATOM     19  C   UNL     1      -3.700  -2.679  -2.950  0.00  0.00    +0.026 A 
ATOM     20  C   UNL     1      -5.024  -2.385  -3.193  0.00  0.00    +0.002 A 
ATOM     21  C   UNL     1      -5.577  -1.194  -2.748  0.00  0.00    +0.001 A 
ATOM     22  C   UNL     1      -4.805  -0.286  -2.056  0.00  0.00    +0.010 A 
BRANCH  14  23
ATOM     23  C   UNL     1      -0.643  -2.881  -2.147  0.00  0.00    +0.157 C 
BRANCH  23  29
ATOM     24  C   UNL     1       2.925  -0.998  -5.109  0.00  0.00    +0.044 C 
ATOM     25  C   UNL     1       1.657  -1.794  -4.937  0.00  0.00    -0.050 A 
ATOM     26  C   UNL     1       1.037  -2.353  -6.039  0.00  0.00    +0.003 A 
ATOM     27  C   UNL     1      -0.125  -3.084  -5.882  0.00  0.00    +0.001 A 
ATOM     28  C   UNL     1      -0.667  -3.258  -4.622  0.00  0.00    +0.005 A 
ATOM     29  C   UNL     1      -0.050  -2.695  -3.520  0.00  0.00    -0.028 A 
ATOM     30  C   UNL     1       1.114  -1.965  -3.678  0.00  0.00    +0.008 A 
ENDBRANCH  23  29
ENDBRANCH  14  23
ENDBRANCH   1  16
BRANCH  11  31
ATOM     31  C   UNL     1       1.937   5.992   3.117  0.00  0.00    +0.012 A 
ATOM     32  C   UNL     1       3.142   5.946   3.819  0.00  0.00    +0.011 A 
ATOM     33  C   UNL     1       3.776   7.119   4.172  0.00  0.00    +0.001 A 
ATOM     34  C   UNL     1       3.220   8.340   3.831  0.00  0.00    +0.000 A 
ATOM     35  C   UNL     1       2.026   8.392   3.135  0.00  0.00    +0.004 A 
ATOM     36  C   UNL     1       1.384   7.226   2.771  0.00  0.00    -0.041 A 
ATOM     37  C   UNL     1       0.087   7.284   2.007  0.00  0.00    +0.044 C 
ENDBRANCH  11  31
TORSDOF 4
