REMARK  Name = ZINC54398690
REMARK  10 active torsions:
REMARK  status: ('A' for Active; 'I' for Inactive)
REMARK    1  A    between atoms: C_1  and  N_2
REMARK    2  A    between atoms: N_2  and  C_3
REMARK    3  A    between atoms: N_2  and  C_4
REMARK    4  A    between atoms: C_4  and  C_5
REMARK    5  A    between atoms: C_10  and  C_11
REMARK    6  A    between atoms: C_11  and  N_12
REMARK    7  A    between atoms: N_15  and  N_16
REMARK    8  A    between atoms: C_17  and  C_19
REMARK    9  A    between atoms: C_19  and  O_20
REMARK   10  A    between atoms: O_20  and  C_21
REMARK                            x       y       z     vdW  Elec       q    Type
REMARK                         _______ _______ _______ _____ _____    ______ ____
ROOT
ATOM      1  N   UNL     1      -1.613  -3.187  -1.858  0.00  0.00    -0.294 N 
ATOM      2  C   UNL     1      -0.972  -4.367  -1.746  0.00  0.00    +0.316 C 
ATOM      3  O   UNL     1       0.187  -4.465  -2.101  0.00  0.00    -0.251 OA
ATOM      4  N   UNL     1      -1.615  -5.438  -1.240  0.00  0.00    -0.218 N 
ATOM      5  H   UNL     1      -2.537  -3.108  -1.574  0.00  0.00    +0.151 HD
ATOM      6  H   UNL     1      -1.153  -6.287  -1.160  0.00  0.00    +0.174 HD
ENDROOT
BRANCH   4   7
ATOM      7  N   UNL     1      -2.950  -5.325  -0.831  0.00  0.00    -0.230 N 
ATOM      8  C   UNL     1      -3.593  -6.396  -0.326  0.00  0.00    +0.267 C 
ATOM      9  O   UNL     1      -3.015  -7.458  -0.225  0.00  0.00    -0.271 OA
ATOM     10  H   UNL     1      -3.411  -4.475  -0.912  0.00  0.00    +0.173 HD
BRANCH   8  11
ATOM     11  C   UNL     1      -5.029  -6.274   0.115  0.00  0.00    +0.326 C 
BRANCH  11  12
ATOM     12  O   UNL     1      -5.484  -7.535   0.610  0.00  0.00    -0.480 OA
BRANCH  12  13
ATOM     13  C   UNL     1      -6.768  -7.598   1.051  0.00  0.00    +0.156 A 
ATOM     14  C   UNL     1      -7.575  -6.471   1.002  0.00  0.00    +0.048 A 
ATOM     15  C   UNL     1      -8.881  -6.537   1.450  0.00  0.00    +0.004 A 
ATOM     16  C   UNL     1      -9.383  -7.725   1.948  0.00  0.00    +0.003 A 
ATOM     17  C   UNL     1      -8.582  -8.851   1.999  0.00  0.00    +0.042 A 
ATOM     18  C   UNL     1      -7.277  -8.792   1.546  0.00  0.00    +0.165 A 
ATOM     19  F   UNL     1      -6.495  -9.893   1.589  0.00  0.00    -0.202 F 
ENDBRANCH  12  13
ENDBRANCH  11  12
ENDBRANCH   8  11
ENDBRANCH   4   7
BRANCH   1  20
ATOM     20  C   UNL     1      -0.914  -2.022  -2.407  0.00  0.00    +0.141 C 
BRANCH  20  26
ATOM     21  C   UNL     1      -2.067  -0.116  -1.267  0.00  0.00    -0.059 A 
ATOM     22  C   UNL     1      -2.918   0.973  -1.283  0.00  0.00    +0.002 A 
ATOM     23  C   UNL     1      -3.553   1.337  -2.457  0.00  0.00    +0.000 A 
ATOM     24  C   UNL     1      -3.336   0.611  -3.613  0.00  0.00    +0.000 A 
ATOM     25  C   UNL     1      -2.484  -0.477  -3.597  0.00  0.00    +0.005 A 
ATOM     26  C   UNL     1      -1.846  -0.838  -2.424  0.00  0.00    -0.029 A 
BRANCH  21  27
ATOM     27  C   UNL     1      -1.376  -0.512   0.012  0.00  0.00    -0.043 C 
BRANCH  27  29
ATOM     28  C   UNL     1      -0.018   1.465   0.010  0.00  0.00    -0.096 C 
ATOM     29  N   UNL     1       0.002  -0.004   0.002  0.00  0.00    +0.379 N 
ATOM     30  C   UNL     1       0.713  -0.491   1.192  0.00  0.00    -0.096 C 
ATOM     31  H   UNL     1       0.474  -0.330  -0.828  0.00  0.00    -0.082 HD
ENDBRANCH  27  29
ENDBRANCH  21  27
ENDBRANCH  20  26
ENDBRANCH   1  20
TORSDOF 8
