REMARK  Name = ZINC64044583
REMARK  8 active torsions:
REMARK  status: ('A' for Active; 'I' for Inactive)
REMARK    1  A    between atoms: C_1  and  C_2
REMARK    2  A    between atoms: C_2  and  C_21
REMARK    3  A    between atoms: N_3  and  N_4
REMARK    4  A    between atoms: C_5  and  C_7
REMARK    5  A    between atoms: C_7  and  C_8
REMARK    6  A    between atoms: C_7  and  C_14
REMARK    7  A    between atoms: C_7  and  O_20
REMARK    8  A    between atoms: C_21  and  C_22
REMARK                            x       y       z     vdW  Elec       q    Type
REMARK                         _______ _______ _______ _____ _____    ______ ____
ROOT
ATOM      1  N   UNL     1      -0.351   0.856   2.472  0.00  0.00    -0.204 N 
ATOM      2  C   UNL     1      -0.232  -0.167   3.342  0.00  0.00    +0.273 C 
ATOM      3  O   UNL     1      -0.350  -1.310   2.953  0.00  0.00    -0.270 OA
ATOM      4  H   UNL     1      -0.257   1.770   2.782  0.00  0.00    +0.177 HD
ENDROOT
BRANCH   1   7
ATOM      5  C   UNL     1      -0.576   2.990   0.775  0.00  0.00    +0.062 C 
ATOM      6  C   UNL     1      -0.722   1.570   0.293  0.00  0.00    +0.038 C 
ATOM      7  N   UNL     1      -0.610   0.599   1.119  0.00  0.00    -0.189 NA
BRANCH   6   8
ATOM      8  C   UNL     1      -1.000   1.294  -1.162  0.00  0.00    +0.085 C 
BRANCH   8   9
ATOM      9  C   UNL     1      -2.356   1.842  -1.527  0.00  0.00    -0.036 C 
ATOM     10  C   UNL     1      -2.623   3.046  -2.083  0.00  0.00    -0.001 A 
ATOM     11  C   UNL     1      -1.765   4.162  -2.497  0.00  0.00    +0.010 A 
ATOM     12  C   UNL     1      -2.336   5.264  -3.035  0.00  0.00    +0.001 A 
ATOM     13  C   UNL     1      -3.723   5.366  -3.206  0.00  0.00    +0.002 A 
ATOM     14  C   UNL     1      -4.576   4.382  -2.850  0.00  0.00    +0.026 A 
ATOM     15  C   UNL     1      -4.085   3.178  -2.275  0.00  0.00    +0.043 A 
ATOM     16  N   UNL     1      -4.697   2.098  -1.854  0.00  0.00    -0.380 N 
ATOM     17  C   UNL     1      -3.692   1.155  -1.353  0.00  0.00    +0.145 C 
ATOM     18  H   UNL     1      -5.655   1.946  -1.875  0.00  0.00    +0.160 HD
ENDBRANCH   8   9
ENDBRANCH   6   8
ENDBRANCH   1   7
BRANCH   2  19
ATOM     19  C   UNL     1       0.046   0.110   4.797  0.00  0.00    +0.194 C 
BRANCH  19  20
ATOM     20  C   UNL     1      -0.458  -1.038   5.632  0.00  0.00    -0.003 A 
ATOM     21  C   UNL     1      -1.508  -0.846   6.510  0.00  0.00    +0.007 A 
ATOM     22  C   UNL     1      -1.970  -1.900   7.276  0.00  0.00    +0.000 A 
ATOM     23  C   UNL     1      -1.383  -3.146   7.164  0.00  0.00    +0.000 A 
ATOM     24  C   UNL     1      -0.333  -3.339   6.285  0.00  0.00    +0.000 A 
ATOM     25  C   UNL     1       0.126  -2.286   5.516  0.00  0.00    +0.007 A 
ENDBRANCH  19  20
BRANCH  19  26
ATOM     26  C   UNL     1       1.530   0.268   5.003  0.00  0.00    -0.003 A 
ATOM     27  C   UNL     1       2.413  -0.560   4.335  0.00  0.00    +0.007 A 
ATOM     28  C   UNL     1       3.775  -0.415   4.524  0.00  0.00    +0.000 A 
ATOM     29  C   UNL     1       4.254   0.558   5.381  0.00  0.00    +0.000 A 
ATOM     30  C   UNL     1       3.371   1.387   6.049  0.00  0.00    +0.000 A 
ATOM     31  C   UNL     1       2.010   1.244   5.856  0.00  0.00    +0.007 A 
ENDBRANCH  19  26
BRANCH  19  32
ATOM     32  O   UNL     1      -0.620   1.312   5.189  0.00  0.00    -0.371 OA
ATOM     33  H   UNL     1      -1.581   1.282   5.083  0.00  0.00    +0.212 HD
ENDBRANCH  19  32
ENDBRANCH   2  19
TORSDOF 7
