REMARK  Name = ZINC64202854
REMARK  5 active torsions:
REMARK  status: ('A' for Active; 'I' for Inactive)
REMARK    1  A    between atoms: C_1  and  C_2
REMARK    2  A    between atoms: C_5  and  C_19
REMARK    3  A    between atoms: C_7  and  C_13
REMARK    4  A    between atoms: N_10  and  C_12
REMARK    5  A    between atoms: C_24  and  C_27
REMARK                            x       y       z     vdW  Elec       q    Type
REMARK                         _______ _______ _______ _____ _____    ______ ____
ROOT
ATOM      1  C   UNL     1       1.378   2.660  -1.628  0.00  0.00    +0.031 C 
ATOM      2  C   UNL     1       1.188   1.453  -0.708  0.00  0.00    +0.104 C 
ATOM      3  C   UNL     1       1.258   0.170  -1.500  0.00  0.00    +0.024 A 
ATOM      4  C   UNL     1       0.497  -0.346  -2.543  0.00  0.00    +0.047 A 
ATOM      5  C   UNL     1       0.848  -1.599  -3.058  0.00  0.00    +0.042 A 
ATOM      6  C   UNL     1       1.937  -2.267  -2.505  0.00  0.00    +0.074 A 
ATOM      7  N   UNL     1       2.634  -1.737  -1.511  0.00  0.00    -0.230 NA
ATOM      8  C   UNL     1       2.335  -0.551  -0.993  0.00  0.00    +0.141 A 
ATOM      9  N   UNL     1       2.931   0.167   0.034  0.00  0.00    -0.253 N 
ATOM     10  N   UNL     1       2.302   1.358   0.254  0.00  0.00    -0.232 NA
ATOM     11  C   UNL     1       4.095  -0.298   0.793  0.00  0.00    +0.151 C 
ATOM     12  H   UNL     1       2.941   2.131   0.144  0.00  0.00    +0.145 HD
ENDROOT
BRANCH   4  13
ATOM     13  C   UNL     1      -0.653   0.408  -3.094  0.00  0.00    +0.247 C 
ATOM     14  O   UNL     1      -1.496   0.863  -2.346  0.00  0.00    -0.270 OA
ATOM     15  N   UNL     1      -0.764   0.591  -4.425  0.00  0.00    -0.293 N 
ATOM     16  C   UNL     1      -1.841   1.416  -4.997  0.00  0.00    +0.113 C 
ATOM     17  C   UNL     1      -1.197   2.605  -5.713  0.00  0.00    +0.054 C 
ATOM     18  C   UNL     1      -0.049   2.145  -6.561  0.00  0.00    -0.043 C 
ATOM     19  C   UNL     1       0.574   0.983  -6.406  0.00  0.00    -0.004 C 
ATOM     20  C   UNL     1       0.189  -0.022  -5.362  0.00  0.00    +0.135 C 
BRANCH  18  21
ATOM     21  C   UNL     1       0.398   3.002  -7.589  0.00  0.00    -0.016 C 
ATOM     22  C   UNL     1      -0.019   4.303  -7.837  0.00  0.00    +0.003 A 
ATOM     23  C   UNL     1      -0.957   5.145  -7.196  0.00  0.00    +0.010 A 
ATOM     24  C   UNL     1      -1.166   6.399  -7.666  0.00  0.00    +0.001 A 
ATOM     25  C   UNL     1      -0.475   6.891  -8.778  0.00  0.00    +0.002 A 
ATOM     26  C   UNL     1       0.438   6.142  -9.441  0.00  0.00    +0.026 A 
ATOM     27  C   UNL     1       0.713   4.817  -9.009  0.00  0.00    +0.043 A 
ATOM     28  N   UNL     1       1.538   3.903  -9.473  0.00  0.00    -0.380 N 
ATOM     29  C   UNL     1       1.435   2.697  -8.647  0.00  0.00    +0.149 C 
ATOM     30  H   UNL     1       2.123   4.012 -10.239  0.00  0.00    +0.160 HD
ENDBRANCH  18  21
ENDBRANCH   4  13
BRANCH   6  31
ATOM     31  C   UNL     1       2.323  -3.597  -3.038  0.00  0.00    +0.000 A 
ATOM     32  C   UNL     1       1.603  -4.166  -4.087  0.00  0.00    +0.010 A 
ATOM     33  C   UNL     1       1.967  -5.403  -4.578  0.00  0.00    +0.001 A 
ATOM     34  C   UNL     1       3.043  -6.078  -4.032  0.00  0.00    +0.000 A 
ATOM     35  C   UNL     1       3.761  -5.518  -2.990  0.00  0.00    +0.001 A 
ATOM     36  C   UNL     1       3.410  -4.279  -2.495  0.00  0.00    +0.010 A 
ENDBRANCH   6  31
TORSDOF 3
