REMARK  Name = ZINC12528216
REMARK  10 active torsions:
REMARK  status: ('A' for Active; 'I' for Inactive)
REMARK    1  A    between atoms: C_1  and  C_2
REMARK    2  A    between atoms: C_2  and  C_4
REMARK    3  A    between atoms: C_2  and  N_20
REMARK    4  A    between atoms: N_6  and  C_7
REMARK    5  A    between atoms: C_10  and  S_13
REMARK    6  A    between atoms: S_13  and  N_16
REMARK    7  A    between atoms: N_16  and  C_17
REMARK    8  A    between atoms: C_17  and  C_18
REMARK    9  A    between atoms: C_17  and  C_19
REMARK   10  A    between atoms: N_20  and  C_21
REMARK                            x       y       z     vdW  Elec       q    Type
REMARK                         _______ _______ _______ _____ _____    ______ ____
ROOT
ATOM      1  C   UNL     1      -1.101   0.041  -2.475  0.00  0.00    +0.237 C 
ATOM      2  O   UNL     1      -1.733  -0.172  -3.488  0.00  0.00    -0.273 OA
ATOM      3  N   UNL     1       0.231  -0.164  -2.456  0.00  0.00    -0.284 N 
ATOM      4  H   UNL     1       0.747   0.069  -1.668  0.00  0.00    +0.155 HD
ENDROOT
BRANCH   3   5
ATOM      5  C   UNL     1       0.870  -0.714  -3.572  0.00  0.00    +0.034 A 
ATOM      6  C   UNL     1       1.946  -1.576  -3.404  0.00  0.00    +0.025 A 
ATOM      7  C   UNL     1       2.575  -2.117  -4.508  0.00  0.00    +0.030 A 
ATOM      8  C   UNL     1       2.134  -1.801  -5.781  0.00  0.00    +0.105 A 
ATOM      9  C   UNL     1       1.063  -0.943  -5.952  0.00  0.00    +0.030 A 
ATOM     10  C   UNL     1       0.426  -0.404  -4.851  0.00  0.00    +0.025 A 
BRANCH   8  11
ATOM     11  S   UNL     1       2.939  -2.494  -7.187  0.00  0.00    +0.059 S 
ATOM     12  O   UNL     1       2.684  -1.615  -8.274  0.00  0.00    -0.153 OA
ATOM     13  O   UNL     1       4.255  -2.834  -6.774  0.00  0.00    -0.153 OA
BRANCH  11  14
ATOM     14  N   UNL     1       2.170  -3.918  -7.539  0.00  0.00    -0.187 NA
ATOM     15  H   UNL     1       2.646  -4.759  -7.457  0.00  0.00    +0.148 HD
BRANCH  14  16
ATOM     16  C   UNL     1       0.771  -3.907  -7.975  0.00  0.00    +0.070 C 
ATOM     17  C   UNL     1       0.713  -3.920  -9.504  0.00  0.00    +0.025 C 
ATOM     18  C   UNL     1       0.057  -5.143  -7.426  0.00  0.00    +0.025 C 
ENDBRANCH  14  16
ENDBRANCH  11  14
ENDBRANCH   8  11
ENDBRANCH   3   5
BRANCH   1  20
ATOM     19  C   UNL     1      -1.601  -0.468  -0.100  0.00  0.00    +0.038 C 
ATOM     20  C   UNL     1      -1.805   0.535  -1.237  0.00  0.00    +0.154 C 
BRANCH  20  21
ATOM     21  N   UNL     1      -3.237   0.676  -1.513  0.00  0.00    -0.333 N 
ATOM     22  H   UNL     1      -3.650   0.149  -2.215  0.00  0.00    +0.147 HD
BRANCH  21  23
ATOM     23  C   UNL     1      -4.007   1.571  -0.766  0.00  0.00    +0.028 A 
ATOM     24  C   UNL     1      -3.416   2.330   0.235  0.00  0.00    +0.024 A 
ATOM     25  C   UNL     1      -4.181   3.213   0.972  0.00  0.00    +0.017 A 
ATOM     26  C   UNL     1      -5.534   3.341   0.715  0.00  0.00    +0.018 A 
ATOM     27  C   UNL     1      -6.125   2.586  -0.282  0.00  0.00    +0.017 A 
ATOM     28  C   UNL     1      -5.365   1.706  -1.027  0.00  0.00    +0.024 A 
ATOM     29 BR   UNL     1      -6.577   4.551   1.727  0.00  0.00    -0.050 Br
ENDBRANCH  21  23
ENDBRANCH  20  21
ENDBRANCH   1  20
TORSDOF 7
