REMARK  Name = ZINC07496363
REMARK  5 active torsions:
REMARK  status: ('A' for Active; 'I' for Inactive)
REMARK    1  A    between atoms: C_1  and  C_2
REMARK    2  A    between atoms: C_5  and  N_9
REMARK    3  A    between atoms: C_7  and  C_8
REMARK    4  A    between atoms: C_11  and  C_22
REMARK    5  A    between atoms: C_17  and  C_21
REMARK                            x       y       z     vdW  Elec       q    Type
REMARK                         _______ _______ _______ _____ _____    ______ ____
ROOT
ATOM      1  N   UNL     1      -5.958   1.522   3.458  0.00  0.00    -0.289 N 
ATOM      2  C   UNL     1      -4.777   2.228   3.484  0.00  0.00    +0.166 C 
ATOM      3  C   UNL     1      -3.017   3.413   4.611  0.00  0.00    +0.220 C 
ATOM      4  N   UNL     1      -2.146   2.914   3.543  0.00  0.00    -0.255 N 
ATOM      5  C   UNL     1      -0.810   2.870   3.688  0.00  0.00    +0.257 A 
ATOM      6  O   UNL     1      -0.283   3.214   4.733  0.00  0.00    -0.267 OA
ATOM      7  C   UNL     1      -0.033   2.419   2.603  0.00  0.00    +0.093 A 
ATOM      8  C   UNL     1      -0.660   2.035   1.454  0.00  0.00    +0.047 A 
ATOM      9  N   UNL     1      -1.990   2.088   1.365  0.00  0.00    -0.221 NA
ATOM     10  C   UNL     1      -2.719   2.499   2.375  0.00  0.00    +0.207 A 
ATOM     11  N   UNL     1      -4.099   2.530   2.307  0.00  0.00    -0.259 N 
ATOM     12  C   UNL     1       0.152   1.555   0.279  0.00  0.00    +0.066 C 
ATOM     13  H   UNL     1      -6.371   1.298   2.609  0.00  0.00    +0.155 HD
ATOM     14  H   UNL     1      -4.568   2.748   1.487  0.00  0.00    +0.158 HD
ATOM     15  N   UNL     1      -4.295   2.617   4.675  0.00  0.00    -0.336 N 
ATOM     16  H   UNL     1      -4.761   2.389   5.561  0.00  0.00    +0.164 HD
ENDROOT
BRANCH   1  21
ATOM     17  C   UNL     1      -8.415  -0.079   8.313  0.00  0.00    +0.044 C 
ATOM     18  C   UNL     1      -7.763   0.347   7.024  0.00  0.00    -0.047 A 
ATOM     19  C   UNL     1      -6.384   0.419   6.939  0.00  0.00    +0.005 A 
ATOM     20  C   UNL     1      -5.782   0.803   5.757  0.00  0.00    +0.023 A 
ATOM     21  C   UNL     1      -6.564   1.128   4.655  0.00  0.00    +0.034 A 
ATOM     22  C   UNL     1      -7.948   1.054   4.743  0.00  0.00    +0.027 A 
ATOM     23  C   UNL     1      -8.543   0.664   5.927  0.00  0.00    -0.046 A 
ATOM     24  C   UNL     1     -10.045   0.583   6.024  0.00  0.00    +0.044 C 
ENDBRANCH   1  21
BRANCH   3  25
ATOM     25  C   UNL     1      -3.333   4.866   4.367  0.00  0.00    -0.004 A 
ATOM     26  C   UNL     1      -2.417   5.672   3.718  0.00  0.00    +0.009 A 
ATOM     27  C   UNL     1      -2.709   7.004   3.489  0.00  0.00    +0.020 A 
ATOM     28  C   UNL     1      -3.913   7.532   3.920  0.00  0.00    +0.041 A 
ATOM     29  C   UNL     1      -4.827   6.726   4.575  0.00  0.00    +0.020 A 
ATOM     30  C   UNL     1      -4.536   5.393   4.798  0.00  0.00    +0.009 A 
ATOM     31 CL   UNL     1      -4.277   9.206   3.638  0.00  0.00    -0.084 Cl
ENDBRANCH   3  25
TORSDOF 2
