REMARK  Name = ZINC40489124
REMARK  7 active torsions:
REMARK  status: ('A' for Active; 'I' for Inactive)
REMARK    1  A    between atoms: C_1  and  C_2
REMARK    2  A    between atoms: C_4  and  N_12
REMARK    3  A    between atoms: N_12  and  C_13
REMARK    4  A    between atoms: C_13  and  C_14
REMARK    5  A    between atoms: C_17  and  C_20
REMARK    6  A    between atoms: C_20  and  S_21
REMARK    7  A    between atoms: S_21  and  N_24
REMARK                            x       y       z     vdW  Elec       q    Type
REMARK                         _______ _______ _______ _____ _____    ______ ____
ROOT
ATOM      1  N   UNL     1       0.028  -2.753  -2.437  0.00  0.00    -0.339 N 
ATOM      2  H   UNL     1       0.042  -3.723  -2.435  0.00  0.00    +0.146 HD
ENDROOT
BRANCH   1   6
ATOM      3  C   UNL     1      -0.018   1.503   0.010  0.00  0.00    +0.063 C 
ATOM      4  C   UNL     1       0.002  -0.004   0.002  0.00  0.00    +0.015 A 
ATOM      5  C   UNL     1       0.005  -0.672  -1.215  0.00  0.00    +0.044 A 
ATOM      6  C   UNL     1       0.025  -2.057  -1.238  0.00  0.00    +0.038 A 
ATOM      7  C   UNL     1       0.040  -2.740   0.002  0.00  0.00    +0.019 A 
ATOM      8  C   UNL     1       0.061  -4.140   0.064  0.00  0.00    +0.012 A 
ATOM      9  C   UNL     1       0.076  -4.761   1.277  0.00  0.00    +0.001 A 
ATOM     10  C   UNL     1       0.071  -4.021   2.457  0.00  0.00    +0.002 A 
ATOM     11  C   UNL     1       0.051  -2.660   2.432  0.00  0.00    +0.026 A 
ATOM     12  C   UNL     1       0.036  -1.985   1.199  0.00  0.00    +0.048 A 
ATOM     13  N   UNL     1       0.022  -0.648   1.146  0.00  0.00    -0.358 N 
ATOM     14  H   UNL     1       0.023  -0.142   1.973  0.00  0.00    +0.166 HD
ENDBRANCH   1   6
BRANCH   1  15
ATOM     15  C   UNL     1       0.011  -2.023  -3.707  0.00  0.00    +0.137 C 
BRANCH  15  16
ATOM     16  C   UNL     1       0.019  -3.005  -4.851  0.00  0.00    -0.030 A 
ATOM     17  C   UNL     1       1.219  -3.443  -5.378  0.00  0.00    +0.005 A 
ATOM     18  C   UNL     1       1.226  -4.343  -6.427  0.00  0.00    +0.005 A 
ATOM     19  C   UNL     1       0.033  -4.806  -6.948  0.00  0.00    -0.025 A 
ATOM     20  C   UNL     1      -1.168  -4.369  -6.420  0.00  0.00    +0.005 A 
ATOM     21  C   UNL     1      -1.175  -3.472  -5.369  0.00  0.00    +0.005 A 
BRANCH  19  22
ATOM     22  C   UNL     1       0.040  -5.787  -8.092  0.00  0.00    +0.219 C 
BRANCH  22  23
ATOM     23  S   UNL     1       0.060  -7.479  -7.438  0.00  0.00    +0.031 S 
ATOM     24  O   UNL     1       1.300  -7.740  -6.794  0.00  0.00    -0.158 OA
ATOM     25  O   UNL     1      -1.169  -7.767  -6.787  0.00  0.00    -0.158 OA
BRANCH  23  26
ATOM     26  N   UNL     1       0.067  -8.453  -8.777  0.00  0.00    -0.208 NA
ATOM     27  H   UNL     1       0.061  -8.059  -9.664  0.00  0.00    +0.144 HD
ATOM     28  H   UNL     1       0.078  -9.418  -8.675  0.00  0.00    +0.144 HD
ENDBRANCH  23  26
ENDBRANCH  22  23
ENDBRANCH  19  22
ENDBRANCH  15  16
ENDBRANCH   1  15
TORSDOF 6
