REMARK  Name = ZINC59020096
REMARK  12 active torsions:
REMARK  status: ('A' for Active; 'I' for Inactive)
REMARK    1  A    between atoms: C_1  and  C_2
REMARK    2  A    between atoms: C_2  and  C_3
REMARK    3  A    between atoms: C_3  and  C_4
REMARK    4  A    between atoms: C_4  and  S_5
REMARK    5  A    between atoms: S_5  and  C_6
REMARK    6  A    between atoms: C_11  and  N_15
REMARK    7  A    between atoms: C_16  and  C_18
REMARK    8  A    between atoms: C_18  and  S_19
REMARK    9  A    between atoms: S_19  and  C_20
REMARK   10  A    between atoms: N_25  and  N_26
REMARK   11  A    between atoms: C_27  and  C_28
REMARK   12  A    between atoms: C_31  and  C_33
REMARK                            x       y       z     vdW  Elec       q    Type
REMARK                         _______ _______ _______ _____ _____    ______ ____
ROOT
ATOM      1  N   UNL     1       1.353 -10.634  -2.195  0.00  0.00    -0.285 N 
ATOM      2  C   UNL     1       0.922 -11.458  -1.219  0.00  0.00    +0.227 C 
ATOM      3  O   UNL     1       0.360 -11.003  -0.245  0.00  0.00    -0.275 OA
ATOM      4  H   UNL     1       1.741 -11.002  -3.004  0.00  0.00    +0.155 HD
ENDROOT
BRANCH   1  10
ATOM      5  C   UNL     1      -0.259  -4.706  -0.875  0.00  0.00    +0.136 A 
ATOM      6  N   UNL     1       0.802  -5.136  -1.521  0.00  0.00    -0.233 NA
ATOM      7  C   UNL     1       1.035  -6.449  -1.741  0.00  0.00    +0.080 A 
ATOM      8  C   UNL     1       2.128  -7.038  -2.417  0.00  0.00    +0.031 A 
ATOM      9  C   UNL     1       2.217  -8.398  -2.556  0.00  0.00    +0.025 A 
ATOM     10  C   UNL     1       1.241  -9.246  -2.040  0.00  0.00    +0.035 A 
ATOM     11  C   UNL     1       0.154  -8.699  -1.370  0.00  0.00    +0.040 A 
ATOM     12  C   UNL     1       0.062  -7.337  -1.230  0.00  0.00    +0.042 A 
ATOM     13  S   UNL     1      -1.102  -6.229  -0.472  0.00  0.00    -0.061 S 
BRANCH   5  14
ATOM     14  S   UNL     1      -0.727  -3.050  -0.496  0.00  0.00    -0.099 S 
BRANCH  14  15
ATOM     15  C   UNL     1       0.599  -2.044  -1.217  0.00  0.00    +0.076 C 
BRANCH  15  16
ATOM     16  C   UNL     1       0.315  -0.563  -0.956  0.00  0.00    +0.011 C 
BRANCH  16  18
ATOM     17  C   UNL     1       1.148   1.766  -1.304  0.00  0.00    +0.004 C 
ATOM     18  C   UNL     1       1.433   0.286  -1.564  0.00  0.00    -0.003 C 
ENDBRANCH  16  18
ENDBRANCH  15  16
ENDBRANCH  14  15
ENDBRANCH   5  14
ENDBRANCH   1  10
BRANCH   2  19
ATOM     19  C   UNL     1       1.137 -12.945  -1.338  0.00  0.00    +0.173 C 
BRANCH  19  20
ATOM     20  S   UNL     1       0.451 -13.774   0.122  0.00  0.00    -0.075 S 
BRANCH  20  21
ATOM     21  C   UNL     1       0.777 -15.482  -0.165  0.00  0.00    +0.211 A 
ATOM     22  N   UNL     1       0.442 -16.485   0.653  0.00  0.00    -0.186 NA
ATOM     23  C   UNL     1       0.835 -17.630   0.134  0.00  0.00    +0.232 A 
ATOM     24  N   UNL     1       1.438 -17.368  -1.045  0.00  0.00    -0.245 N 
ATOM     25  N   UNL     1       1.384 -15.975  -1.218  0.00  0.00    -0.144 NA
ATOM     26  N   UNL     1       0.660 -18.880   0.698  0.00  0.00    -0.205 N 
ATOM     27  H   UNL     1       0.986 -19.669   0.238  0.00  0.00    +0.177 HD
ATOM     28  H   UNL     1       1.829 -18.014  -1.653  0.00  0.00    +0.192 HD
BRANCH  26  29
ATOM     29  N   UNL     1       0.013 -19.007   1.933  0.00  0.00    -0.184 NA
ATOM     30  C   UNL     1      -0.152 -20.184   2.464  0.00  0.00    +0.176 C 
BRANCH  30  31
ATOM     31  C   UNL     1      -0.830 -20.317   3.757  0.00  0.00    +0.148 A 
ATOM     32  C   UNL     1      -1.062 -21.485   4.424  0.00  0.00    +0.051 A 
ATOM     33  C   UNL     1      -1.734 -21.145   5.613  0.00  0.00    +0.045 A 
ATOM     34  C   UNL     1      -1.879 -19.804   5.617  0.00  0.00    +0.103 A 
ATOM     35  O   UNL     1      -1.328 -19.307   4.498  0.00  0.00    -0.459 OA
ATOM     36  C   UNL     1      -2.544 -18.997   6.702  0.00  0.00    +0.086 C 
ENDBRANCH  30  31
ENDBRANCH  26  29
ENDBRANCH  20  21
ENDBRANCH  19  20
ENDBRANCH   2  19
TORSDOF 10
