REMARK  Name = ZINC36492639
REMARK  15 active torsions:
REMARK  status: ('A' for Active; 'I' for Inactive)
REMARK    1  A    between atoms: C_1  and  C_2
REMARK    2  A    between atoms: C_2  and  C_3
REMARK    3  A    between atoms: C_2  and  C_4
REMARK    4  A    between atoms: C_2  and  C_5
REMARK    5  A    between atoms: C_5  and  C_6
REMARK    6  A    between atoms: C_6  and  C_7
REMARK    7  A    between atoms: C_6  and  C_8
REMARK    8  A    between atoms: C_6  and  N_9
REMARK    9  A    between atoms: C_10  and  C_12
REMARK   10  A    between atoms: C_12  and  C_14
REMARK   11  A    between atoms: C_12  and  N_21
REMARK   12  A    between atoms: C_19  and  O_20
REMARK   13  A    between atoms: N_21  and  C_22
REMARK   14  A    between atoms: C_28  and  C_30
REMARK   15  A    between atoms: C_33  and  N_36
REMARK                            x       y       z     vdW  Elec       q    Type
REMARK                         _______ _______ _______ _____ _____    ______ ____
ROOT
ATOM      1  C   UNL     1       5.082  -1.266  -4.280  0.00  0.00    +0.196 C 
ENDROOT
BRANCH   1   2
ATOM      2  C   UNL     1       5.220  -2.765  -4.354  0.00  0.00    +0.023 A 
ATOM      3  C   UNL     1       6.339  -3.384  -3.830  0.00  0.00    +0.009 A 
ATOM      4  C   UNL     1       6.466  -4.759  -3.898  0.00  0.00    +0.001 A 
ATOM      5  C   UNL     1       5.473  -5.519  -4.489  0.00  0.00    +0.004 A 
ATOM      6  C   UNL     1       4.352  -4.905  -5.014  0.00  0.00    +0.046 A 
ATOM      7  C   UNL     1       4.220  -3.526  -4.942  0.00  0.00    +0.122 A 
BRANCH   7   8
ATOM      8  O   UNL     1       3.116  -2.921  -5.453  0.00  0.00    -0.506 OA
ATOM      9  H   UNL     1       3.199  -2.670  -6.383  0.00  0.00    +0.292 HD
ENDBRANCH   7   8
ENDBRANCH   1   2
BRANCH   1  11
ATOM     10  N   UNL     1       2.945  -1.408  -3.043  0.00  0.00    -0.308 N 
ATOM     11  C   UNL     1       4.191  -0.900  -3.122  0.00  0.00    +0.239 C 
ATOM     12  O   UNL     1       4.595  -0.148  -2.260  0.00  0.00    -0.273 OA
ATOM     13  H   UNL     1       2.622  -2.010  -3.732  0.00  0.00    +0.149 HD
BRANCH  10  14
ATOM     14  C   UNL     1       2.078  -1.052  -1.917  0.00  0.00    +0.030 C 
ATOM     15  C   UNL     1       2.153   0.457  -1.673  0.00  0.00    +0.031 C 
ATOM     16  C   UNL     1       2.541  -1.795  -0.662  0.00  0.00    +0.031 C 
BRANCH  14  17
ATOM     17  C   UNL     1       0.635  -1.446  -2.240  0.00  0.00    +0.031 C 
BRANCH  17  19
ATOM     18  C   UNL     1       0.816  -2.011  -4.667  0.00  0.00    +0.010 C 
ATOM     19  C   UNL     1       0.287  -0.990  -3.658  0.00  0.00    -0.036 C 
ATOM     20  C   UNL     1       0.929   0.373  -3.928  0.00  0.00    +0.010 C 
ATOM     21  C   UNL     1      -1.232  -0.874  -3.798  0.00  0.00    +0.010 C 
ENDBRANCH  17  19
ENDBRANCH  14  17
ENDBRANCH  10  14
ENDBRANCH   1  11
BRANCH   1  22
ATOM     22  N   UNL     1       6.404  -0.664  -4.089  0.00  0.00    -0.279 N 
ATOM     23  C   UNL     1       7.331  -0.749  -5.064  0.00  0.00    +0.248 C 
ATOM     24  O   UNL     1       8.369  -0.123  -4.971  0.00  0.00    -0.270 OA
BRANCH  22  25
ATOM     25  C   UNL     1       6.718   0.031  -2.838  0.00  0.00    +0.077 C 
ATOM     26  C   UNL     1       8.131   0.613  -2.919  0.00  0.00    +0.022 C 
ATOM     27  C   UNL     1       8.459   1.339  -1.613  0.00  0.00    +0.002 C 
ATOM     28  C   UNL     1       8.380   0.351  -0.447  0.00  0.00    +0.000 C 
ATOM     29  C   UNL     1       6.968  -0.231  -0.366  0.00  0.00    +0.002 C 
ATOM     30  C   UNL     1       6.639  -0.957  -1.672  0.00  0.00    +0.022 C 
ENDBRANCH  22  25
BRANCH  23  31
ATOM     31  C   UNL     1       7.084  -1.602  -6.246  0.00  0.00    +0.037 A 
ATOM     32  C   UNL     1       5.817  -2.144  -6.467  0.00  0.00    +0.015 A 
ATOM     33  C   UNL     1       5.594  -2.939  -7.572  0.00  0.00    +0.033 A 
ATOM     34  C   UNL     1       6.623  -3.200  -8.460  0.00  0.00    +0.126 A 
ATOM     35  C   UNL     1       7.881  -2.666  -8.246  0.00  0.00    +0.033 A 
ATOM     36  C   UNL     1       8.116  -1.864  -7.148  0.00  0.00    +0.015 A 
BRANCH  34  37
ATOM     37  N   UNL     1       6.376  -4.054  -9.643  0.00  0.00    +0.056 N 
ATOM     38  O   UNL     1       5.278  -4.522  -9.832  0.00  0.00    -0.126 OA
ATOM     39  O   UNL     1       7.273  -4.284 -10.421  0.00  0.00    -0.126 OA
ENDBRANCH  34  37
ENDBRANCH  23  31
ENDBRANCH   1  22
TORSDOF 10
