REMARK  Name = ZINC41068179
REMARK  6 active torsions:
REMARK  status: ('A' for Active; 'I' for Inactive)
REMARK    1  A    between atoms: C_1  and  C_2
REMARK    2  A    between atoms: C_2  and  C_4
REMARK    3  A    between atoms: C_2  and  N_11
REMARK    4  A    between atoms: N_11  and  S_12
REMARK    5  A    between atoms: S_12  and  C_15
REMARK    6  A    between atoms: C_17  and  N_20
REMARK                            x       y       z     vdW  Elec       q    Type
REMARK                         _______ _______ _______ _____ _____    ______ ____
ROOT
ATOM      1  N   UNL     1      -1.372  -0.511   0.012  0.00  0.00    -0.182 NA
ATOM      2  H   UNL     1      -1.845  -0.615   0.853  0.00  0.00    +0.149 HD
ENDROOT
BRANCH   1   3
ATOM      3  S   UNL     1      -2.119  -0.907  -1.411  0.00  0.00    +0.065 S 
ATOM      4  O   UNL     1      -3.414  -1.386  -1.071  0.00  0.00    -0.153 OA
ATOM      5  O   UNL     1      -1.920   0.189  -2.293  0.00  0.00    -0.153 OA
BRANCH   3   6
ATOM      6  C   UNL     1      -1.242  -2.272  -2.098  0.00  0.00    +0.144 A 
ATOM      7  C   UNL     1      -1.453  -3.599  -1.917  0.00  0.00    +0.059 A 
ATOM      8  C   UNL     1      -0.628  -4.504  -2.567  0.00  0.00    +0.034 A 
ATOM      9  C   UNL     1       0.366  -4.031  -3.363  0.00  0.00    +0.069 A 
ATOM     10  S   UNL     1       0.149  -2.265  -3.217  0.00  0.00    -0.075 S 
BRANCH   8  11
ATOM     11  N   UNL     1      -0.816  -5.890  -2.403  0.00  0.00    -0.358 N 
ATOM     12  H   UNL     1      -1.528  -6.218  -1.832  0.00  0.00    +0.142 HD
ATOM     13  H   UNL     1      -0.234  -6.516  -2.861  0.00  0.00    +0.142 HD
ENDBRANCH   8  11
ENDBRANCH   3   6
ENDBRANCH   1   3
BRANCH   1  15
ATOM     14  C   UNL     1      -0.019   1.526   0.010  0.00  0.00    +0.031 C 
ATOM     15  C   UNL     1       0.002  -0.004   0.002  0.00  0.00    +0.103 C 
BRANCH  15  16
ATOM     16  C   UNL     1       0.731  -0.503   1.223  0.00  0.00    -0.029 A 
ATOM     17  C   UNL     1       0.081  -0.558   2.442  0.00  0.00    +0.006 A 
ATOM     18  C   UNL     1       0.749  -1.017   3.562  0.00  0.00    +0.015 A 
ATOM     19  C   UNL     1       2.068  -1.420   3.463  0.00  0.00    +0.018 A 
ATOM     20  C   UNL     1       2.718  -1.365   2.243  0.00  0.00    +0.015 A 
ATOM     21  C   UNL     1       2.048  -0.911   1.123  0.00  0.00    +0.006 A 
ATOM     22 BR   UNL     1       2.983  -2.046   4.995  0.00  0.00    -0.050 Br
ENDBRANCH  15  16
ENDBRANCH   1  15
TORSDOF 5
