REMARK  Name = ZINC66384256
REMARK  5 active torsions:
REMARK  status: ('A' for Active; 'I' for Inactive)
REMARK    1  A    between atoms: C_6  and  C_7
REMARK    2  A    between atoms: C_7  and  C_8
REMARK    3  A    between atoms: C_8  and  C_9
REMARK    4  A    between atoms: C_9  and  N_10
REMARK    5  A    between atoms: C_19  and  C_21
REMARK                            x       y       z     vdW  Elec       q    Type
REMARK                         _______ _______ _______ _____ _____    ______ ____
ROOT
ATOM      1  N   UNL     1      -3.496  -2.049  -2.798  0.00  0.00    -0.299 N 
ATOM      2  C   UNL     1      -4.635  -2.729  -3.037  0.00  0.00    +0.302 C 
ATOM      3  O   UNL     1      -5.255  -3.220  -2.114  0.00  0.00    -0.253 OA
ATOM      4  N   UNL     1      -5.086  -2.865  -4.300  0.00  0.00    -0.283 N 
ATOM      5  C   UNL     1      -4.287  -2.383  -5.435  0.00  0.00    +0.128 C 
ATOM      6  C   UNL     1      -4.075  -3.545  -6.413  0.00  0.00    +0.127 C 
ATOM      7  N   UNL     1      -5.374  -4.178  -6.679  0.00  0.00    -0.298 N 
ATOM      8  C   UNL     1      -6.172  -4.661  -5.544  0.00  0.00    +0.127 C 
ATOM      9  C   UNL     1      -6.382  -3.504  -4.566  0.00  0.00    +0.128 C 
ATOM     10  C   UNL     1      -5.825  -4.314  -7.942  0.00  0.00    +0.219 C 
ATOM     11  O   UNL     1      -5.157  -3.912  -8.871  0.00  0.00    -0.275 OA
ATOM     12  H   UNL     1      -2.963  -1.720  -3.538  0.00  0.00    +0.150 HD
ENDROOT
BRANCH  10  13
ATOM     13  C   UNL     1      -7.159  -4.966  -8.199  0.00  0.00    +0.075 C 
ATOM     14  C   UNL     1      -7.156  -6.333  -8.887  0.00  0.00    +0.013 C 
ATOM     15  C   UNL     1      -7.615  -5.091  -9.654  0.00  0.00    +0.013 C 
ENDBRANCH  10  13
BRANCH   1  16
ATOM     16  C   UNL     1      -3.063  -1.807  -1.419  0.00  0.00    +0.106 C 
BRANCH  16  17
ATOM     17  C   UNL     1      -1.751  -1.020  -1.428  0.00  0.00    +0.023 C 
BRANCH  17  18
ATOM     18  C   UNL     1      -1.299  -0.767   0.012  0.00  0.00    +0.037 C 
BRANCH  18  24
ATOM     19  C   UNL     1      -0.030   1.391   0.013  0.00  0.00    +0.005 A 
ATOM     20  C   UNL     1       1.154   2.103   0.006  0.00  0.00    +0.022 A 
ATOM     21  C   UNL     1       2.364   1.433  -0.010  0.00  0.00    +0.059 A 
ATOM     22  C   UNL     1       2.388   0.049  -0.020  0.00  0.00    +0.060 A 
ATOM     23  C   UNL     1       1.202  -0.663  -0.013  0.00  0.00    +0.025 A 
ATOM     24  C   UNL     1      -0.006   0.009   0.004  0.00  0.00    -0.046 A 
ATOM     25 CL   UNL     1       3.906  -0.793  -0.042  0.00  0.00    -0.082 Cl
ATOM     26 CL   UNL     1       3.852   2.328  -0.020  0.00  0.00    -0.082 Cl
ENDBRANCH  18  24
ENDBRANCH  17  18
ENDBRANCH  16  17
ENDBRANCH   1  16
TORSDOF 5
