REMARK  Name = ZINC64182134
REMARK  8 active torsions:
REMARK  status: ('A' for Active; 'I' for Inactive)
REMARK    1  A    between atoms: C_1  and  C_2
REMARK    2  A    between atoms: C_2  and  C_3
REMARK    3  A    between atoms: C_2  and  C_4
REMARK    4  A    between atoms: C_4  and  C_6
REMARK    5  A    between atoms: C_4  and  N_23
REMARK    6  A    between atoms: C_11  and  C_14
REMARK    7  A    between atoms: N_23  and  S_24
REMARK    8  A    between atoms: S_24  and  C_27
REMARK                            x       y       z     vdW  Elec       q    Type
REMARK                         _______ _______ _______ _____ _____    ______ ____
ROOT
ATOM      1  C   UNL     1      -1.554  -1.915   0.426  0.00  0.00    +0.235 C 
ATOM      2  O   UNL     1      -2.406  -2.551  -0.158  0.00  0.00    -0.274 OA
ATOM      3  N   UNL     1      -0.939  -2.443   1.503  0.00  0.00    -0.296 N 
ATOM      4  C   UNL     1      -1.207  -3.825   1.937  0.00  0.00    +0.113 C 
ATOM      5  C   UNL     1       0.097  -4.618   1.824  0.00  0.00    +0.054 C 
ATOM      6  C   UNL     1       1.237  -3.837   2.408  0.00  0.00    -0.043 C 
ATOM      7  C   UNL     1       1.214  -2.525   2.611  0.00  0.00    -0.004 C 
ATOM      8  C   UNL     1       0.029  -1.664   2.288  0.00  0.00    +0.135 C 
ENDROOT
BRANCH   6   9
ATOM      9  C   UNL     1       2.405  -4.540   2.764  0.00  0.00    -0.016 C 
ATOM     10  C   UNL     1       2.682  -5.881   2.531  0.00  0.00    +0.003 A 
ATOM     11  C   UNL     1       1.946  -6.914   1.906  0.00  0.00    +0.010 A 
ATOM     12  C   UNL     1       2.476  -8.159   1.817  0.00  0.00    +0.001 A 
ATOM     13  C   UNL     1       3.743  -8.454   2.330  0.00  0.00    +0.002 A 
ATOM     14  C   UNL     1       4.505  -7.516   2.941  0.00  0.00    +0.026 A 
ATOM     15  C   UNL     1       4.019  -6.188   3.073  0.00  0.00    +0.043 A 
ATOM     16  N   UNL     1       4.553  -5.114   3.614  0.00  0.00    -0.380 N 
ATOM     17  C   UNL     1       3.622  -3.990   3.475  0.00  0.00    +0.149 C 
ATOM     18  H   UNL     1       5.426  -5.072   4.034  0.00  0.00    +0.160 HD
ENDBRANCH   6   9
BRANCH   1  19
ATOM     19  C   UNL     1      -1.182  -0.535  -0.052  0.00  0.00    +0.164 C 
BRANCH  19  21
ATOM     20  C   UNL     1       0.325  -1.384  -1.855  0.00  0.00    +0.009 C 
ATOM     21  C   UNL     1       0.255  -0.547  -0.576  0.00  0.00    +0.010 C 
ATOM     22  C   UNL     1       0.699   0.885  -0.879  0.00  0.00    +0.009 C 
ENDBRANCH  19  21
BRANCH  19  23
ATOM     23  N   UNL     1      -2.091  -0.131  -1.128  0.00  0.00    -0.181 NA
ATOM     24  H   UNL     1      -2.254  -0.728  -1.875  0.00  0.00    +0.149 HD
BRANCH  23  25
ATOM     25  S   UNL     1      -2.839   1.345  -1.069  0.00  0.00    +0.043 S 
ATOM     26  O   UNL     1      -3.785   1.315  -2.128  0.00  0.00    -0.157 OA
ATOM     27  O   UNL     1      -3.265   1.482   0.280  0.00  0.00    -0.157 OA
BRANCH  25  28
ATOM     28  C   UNL     1      -1.529   2.546  -1.434  0.00  0.00    +0.213 C 
ATOM     29  C   UNL     1      -2.066   4.002  -1.397  0.00  0.00    +0.066 C 
ATOM     30  C   UNL     1      -1.446   4.823  -2.482  0.00  0.00    -0.017 C 
ATOM     31  C   UNL     1      -0.866   4.227  -3.506  0.00  0.00    +0.038 C 
ATOM     32  S   UNL     1      -1.021   2.474  -3.204  0.00  0.00    -0.105 S 
ENDBRANCH  25  28
ENDBRANCH  23  25
ENDBRANCH  19  23
ENDBRANCH   1  19
TORSDOF 6
