REMARK  Name = ZINC09805842
REMARK  6 active torsions:
REMARK  status: ('A' for Active; 'I' for Inactive)
REMARK    1  A    between atoms: C_1  and  C_2
REMARK    2  A    between atoms: C_6  and  N_9
REMARK    3  A    between atoms: C_7  and  C_8
REMARK    4  A    between atoms: C_13  and  C_14
REMARK    5  A    between atoms: N_16  and  C_23
REMARK    6  A    between atoms: C_23  and  C_24
REMARK                            x       y       z     vdW  Elec       q    Type
REMARK                         _______ _______ _______ _____ _____    ______ ____
ROOT
ATOM      1  N   UNL     1       7.216   0.785  -4.867  0.00  0.00    -0.217 N 
ATOM      2  C   UNL     1       6.447   1.851  -5.170  0.00  0.00    +0.262 C 
ATOM      3  O   UNL     1       6.527   2.391  -6.258  0.00  0.00    -0.269 OA
ATOM      4  C   UNL     1       5.507   2.346  -4.149  0.00  0.00    +0.100 C 
ATOM      5  C   UNL     1       4.684   3.438  -4.390  0.00  0.00    +0.028 C 
ATOM      6  C   UNL     1       5.483   1.634  -2.859  0.00  0.00    +0.255 C 
ATOM      7  O   UNL     1       4.737   1.987  -1.965  0.00  0.00    -0.270 OA
ATOM      8  N   UNL     1       6.306   0.578  -2.698  0.00  0.00    -0.263 N 
ATOM      9  C   UNL     1       7.137   0.182  -3.673  0.00  0.00    +0.150 C 
ATOM     10  S   UNL     1       8.152  -1.165  -3.376  0.00  0.00    -0.018 S 
ATOM     11  H   UNL     1       6.300   0.096  -1.856  0.00  0.00    +0.157 HD
ENDROOT
BRANCH   5  12
ATOM     12  C   UNL     1       3.665   3.768  -3.473  0.00  0.00    +0.001 A 
ATOM     13  C   UNL     1       2.774   2.897  -2.870  0.00  0.00    +0.095 A 
ATOM     14  N   UNL     1       1.951   3.585  -2.058  0.00  0.00    -0.342 N 
ATOM     15  C   UNL     1       2.249   4.933  -2.087  0.00  0.00    +0.050 A 
ATOM     16  C   UNL     1       3.332   5.113  -2.962  0.00  0.00    +0.007 A 
ATOM     17  C   UNL     1       3.850   6.385  -3.181  0.00  0.00    +0.010 A 
ATOM     18  C   UNL     1       3.288   7.470  -2.543  0.00  0.00    +0.001 A 
ATOM     19  C   UNL     1       2.221   7.295  -1.675  0.00  0.00    +0.002 A 
ATOM     20  C   UNL     1       1.702   6.039  -1.445  0.00  0.00    +0.026 A 
BRANCH  14  21
ATOM     21  C   UNL     1       0.880   2.986  -1.257  0.00  0.00    +0.157 C 
BRANCH  21  22
ATOM     22  C   UNL     1      -0.421   3.076  -2.011  0.00  0.00    -0.028 A 
ATOM     23  C   UNL     1      -0.799   2.052  -2.861  0.00  0.00    +0.008 A 
ATOM     24  C   UNL     1      -1.992   2.134  -3.553  0.00  0.00    +0.038 A 
ATOM     25  C   UNL     1      -2.807   3.243  -3.400  0.00  0.00    +0.123 A 
ATOM     26  C   UNL     1      -2.430   4.265  -2.545  0.00  0.00    +0.038 A 
ATOM     27  C   UNL     1      -1.236   4.181  -1.854  0.00  0.00    +0.008 A 
ATOM     28  F   UNL     1      -3.971   3.326  -4.081  0.00  0.00    -0.205 F 
ENDBRANCH  21  22
ENDBRANCH  14  21
ENDBRANCH   5  12
BRANCH   1  34
ATOM     29  C   UNL     1       8.167  -2.220  -8.642  0.00  0.00    +0.044 C 
ATOM     30  C   UNL     1       8.604  -1.159  -7.664  0.00  0.00    -0.046 A 
ATOM     31  C   UNL     1       9.896  -0.667  -7.709  0.00  0.00    +0.004 A 
ATOM     32  C   UNL     1      10.300   0.305  -6.813  0.00  0.00    +0.002 A 
ATOM     33  C   UNL     1       9.412   0.793  -5.874  0.00  0.00    +0.024 A 
ATOM     34  C   UNL     1       8.116   0.297  -5.822  0.00  0.00    +0.046 A 
ATOM     35  C   UNL     1       7.713  -0.680  -6.723  0.00  0.00    -0.026 A 
ATOM     36  C   UNL     1       6.306  -1.217  -6.674  0.00  0.00    +0.046 C 
ENDBRANCH   1  34
TORSDOF 4
