REMARK  Name = ZINC36609577
REMARK  8 active torsions:
REMARK  status: ('A' for Active; 'I' for Inactive)
REMARK    1  A    between atoms: C_4  and  C_7
REMARK    2  A    between atoms: C_8  and  C_9
REMARK    3  A    between atoms: N_11  and  C_12
REMARK    4  A    between atoms: N_11  and  C_18
REMARK    5  A    between atoms: C_18  and  C_20
REMARK    6  A    between atoms: C_18  and  C_27
REMARK    7  A    between atoms: C_25  and  O_26
REMARK    8  A    between atoms: N_29  and  C_30
REMARK                            x       y       z     vdW  Elec       q    Type
REMARK                         _______ _______ _______ _____ _____    ______ ____
ROOT
ATOM      1  C   UNL     1       8.169  -1.978  -0.423  0.00  0.00    +0.201 C 
ENDROOT
BRANCH   1   2
ATOM      2  C   UNL     1       9.211  -1.379   0.486  0.00  0.00    +0.024 A 
ATOM      3  C   UNL     1      10.105  -0.449  -0.006  0.00  0.00    +0.009 A 
ATOM      4  C   UNL     1      11.062   0.101   0.827  0.00  0.00    +0.001 A 
ATOM      5  C   UNL     1      11.126  -0.280   2.155  0.00  0.00    +0.004 A 
ATOM      6  C   UNL     1      10.234  -1.209   2.652  0.00  0.00    +0.046 A 
ATOM      7  C   UNL     1       9.270  -1.758   1.819  0.00  0.00    +0.122 A 
BRANCH   7   8
ATOM      8  O   UNL     1       8.387  -2.669   2.308  0.00  0.00    -0.506 OA
ATOM      9  H   UNL     1       8.720  -3.577   2.310  0.00  0.00    +0.292 HD
ENDBRANCH   7   8
ENDBRANCH   1   2
BRANCH   1  10
ATOM     10  C   UNL     1       8.549  -1.724  -1.859  0.00  0.00    +0.239 C 
ATOM     11  O   UNL     1       8.000  -0.842  -2.484  0.00  0.00    -0.273 OA
ATOM     12  N   UNL     1       9.498  -2.477  -2.448  0.00  0.00    -0.311 N 
ATOM     13  H   UNL     1       9.884  -3.230  -1.973  0.00  0.00    +0.149 HD
BRANCH  12  14
ATOM     14  C   UNL     1       9.949  -2.158  -3.805  0.00  0.00    +0.073 C 
ATOM     15  C   UNL     1       9.009  -2.810  -4.821  0.00  0.00    +0.022 C 
ATOM     16  C   UNL     1       9.480  -2.477  -6.238  0.00  0.00    +0.002 C 
ATOM     17  C   UNL     1      10.900  -3.009  -6.442  0.00  0.00    +0.000 C 
ATOM     18  C   UNL     1      11.840  -2.357  -5.426  0.00  0.00    +0.002 C 
ATOM     19  C   UNL     1      11.369  -2.690  -4.009  0.00  0.00    +0.022 C 
ENDBRANCH  12  14
ENDBRANCH   1  10
BRANCH   1  22
ATOM     20  C   UNL     1       5.803  -2.139   0.140  0.00  0.00    +0.297 C 
ATOM     21  O   UNL     1       5.897  -3.350   0.073  0.00  0.00    -0.260 OA
ATOM     22  N   UNL     1       6.868  -1.363  -0.146  0.00  0.00    -0.245 N 
BRANCH  22  23
ATOM     23  C   UNL     1       6.731   0.028  -0.177  0.00  0.00    +0.038 A 
ATOM     24  C   UNL     1       6.121   0.643  -1.262  0.00  0.00    +0.023 A 
ATOM     25  C   UNL     1       5.987   2.017  -1.290  0.00  0.00    +0.002 A 
ATOM     26  C   UNL     1       6.461   2.781  -0.239  0.00  0.00    +0.000 A 
ATOM     27  C   UNL     1       7.069   2.171   0.843  0.00  0.00    +0.002 A 
ATOM     28  C   UNL     1       7.201   0.797   0.880  0.00  0.00    +0.023 A 
ENDBRANCH  22  23
BRANCH  20  30
ATOM     29  C   UNL     1       3.543  -1.044   0.834  0.00  0.00    -0.057 C 
ATOM     30  C   UNL     1       4.561  -1.537   0.521  0.00  0.00    -0.002 C 
BRANCH  29  34
ATOM     31  C   UNL     1      -0.103   0.721   1.953  0.00  0.00    +0.000 A 
ATOM     32  C   UNL     1       0.989   1.521   1.662  0.00  0.00    +0.001 A 
ATOM     33  C   UNL     1       2.188   0.949   1.294  0.00  0.00    +0.017 A 
ATOM     34  C   UNL     1       2.300  -0.443   1.216  0.00  0.00    +0.025 A 
ATOM     35  C   UNL     1       1.193  -1.244   1.512  0.00  0.00    +0.017 A 
ATOM     36  C   UNL     1       0.000  -0.657   1.878  0.00  0.00    +0.001 A 
ENDBRANCH  29  34
ENDBRANCH  20  30
ENDBRANCH   1  22
TORSDOF 8
