REMARK  Name = ZINC09374481
REMARK  6 active torsions:
REMARK  status: ('A' for Active; 'I' for Inactive)
REMARK    1  A    between atoms: C_1  and  C_2
REMARK    2  A    between atoms: C_2  and  C_22
REMARK    3  A    between atoms: N_3  and  N_4
REMARK    4  A    between atoms: C_5  and  C_7
REMARK    5  A    between atoms: C_7  and  C_8
REMARK    6  A    between atoms: C_8  and  N_9
REMARK                            x       y       z     vdW  Elec       q    Type
REMARK                         _______ _______ _______ _____ _____    ______ ____
ROOT
ATOM      1  C   UNL     1      -1.842   0.865  -2.313  0.00  0.00    +0.119 C 
ENDROOT
BRANCH   1   3
ATOM      2  N   UNL     1       0.269   0.983  -1.030  0.00  0.00    -0.207 N 
ATOM      3  C   UNL     1      -0.664   1.625  -1.760  0.00  0.00    +0.234 C 
ATOM      4  O   UNL     1      -0.556   2.814  -1.972  0.00  0.00    -0.274 OA
ATOM      5  H   UNL     1       0.183   0.032  -0.860  0.00  0.00    +0.177 HD
BRANCH   2   8
ATOM      6  C   UNL     1       3.409   1.821   0.793  0.00  0.00    +0.068 C 
ATOM      7  C   UNL     1       2.324   1.052   0.084  0.00  0.00    +0.063 C 
ATOM      8  N   UNL     1       1.367   1.688  -0.521  0.00  0.00    -0.185 NA
BRANCH   7   9
ATOM      9  C   UNL     1       2.349  -0.422   0.075  0.00  0.00    -0.002 A 
ATOM     10  C   UNL     1       2.790  -1.122   1.201  0.00  0.00    +0.011 A 
ATOM     11  C   UNL     1       2.806  -2.501   1.189  0.00  0.00    +0.016 A 
ATOM     12  C   UNL     1       2.396  -3.191   0.060  0.00  0.00    +0.018 A 
ATOM     13  C   UNL     1       1.962  -2.503  -1.060  0.00  0.00    +0.016 A 
ATOM     14  C   UNL     1       1.936  -1.125  -1.059  0.00  0.00    +0.011 A 
ATOM     15 BR   UNL     1       2.429  -5.082   0.050  0.00  0.00    -0.050 Br
ENDBRANCH   7   9
ENDBRANCH   2   8
ENDBRANCH   1   3
BRANCH   1  16
ATOM     16  C   UNL     1      -2.743   1.821  -3.097  0.00  0.00    +0.131 C 
BRANCH  16  17
ATOM     17  N   UNL     1      -3.888   1.082  -3.635  0.00  0.00    -0.339 N 
ATOM     18  C   UNL     1      -3.921   0.466  -4.873  0.00  0.00    +0.050 A 
ATOM     19  C   UNL     1      -2.981   0.362  -5.893  0.00  0.00    +0.026 A 
ATOM     20  C   UNL     1      -3.288  -0.325  -7.048  0.00  0.00    +0.002 A 
ATOM     21  C   UNL     1      -4.530  -0.919  -7.205  0.00  0.00    +0.001 A 
ATOM     22  C   UNL     1      -5.472  -0.834  -6.203  0.00  0.00    +0.010 A 
ATOM     23  C   UNL     1      -5.177  -0.138  -5.033  0.00  0.00    +0.008 A 
ATOM     24  C   UNL     1      -5.940   0.150  -3.805  0.00  0.00    +0.008 A 
ATOM     25  C   UNL     1      -5.094   0.905  -2.979  0.00  0.00    +0.050 A 
ATOM     26  C   UNL     1      -5.554   1.326  -1.735  0.00  0.00    +0.026 A 
ATOM     27  C   UNL     1      -6.829   1.000  -1.325  0.00  0.00    +0.002 A 
ATOM     28  C   UNL     1      -7.664   0.254  -2.143  0.00  0.00    +0.001 A 
ATOM     29  C   UNL     1      -7.226  -0.172  -3.378  0.00  0.00    +0.010 A 
ENDBRANCH  16  17
ENDBRANCH   1  16
TORSDOF 5
