REMARK  Name = ZINC49554810
REMARK  10 active torsions:
REMARK  status: ('A' for Active; 'I' for Inactive)
REMARK    1  A    between atoms: C_1  and  C_2
REMARK    2  A    between atoms: C_2  and  C_4
REMARK    3  A    between atoms: C_2  and  N_9
REMARK    4  A    between atoms: C_4  and  C_5
REMARK    5  A    between atoms: C_5  and  N_6
REMARK    6  A    between atoms: N_6  and  C_7
REMARK    7  A    between atoms: N_6  and  C_8
REMARK    8  A    between atoms: N_9  and  S_10
REMARK    9  A    between atoms: S_10  and  C_13
REMARK   10  A    between atoms: C_14  and  N_21
REMARK                            x       y       z     vdW  Elec       q    Type
REMARK                         _______ _______ _______ _____ _____    ______ ____
ROOT
ATOM      1  S   UNL     1      -2.534  -1.314   2.303  0.00  0.00    +0.061 S 
ATOM      2  O   UNL     1      -3.894  -1.701   2.435  0.00  0.00    -0.153 OA
ATOM      3  O   UNL     1      -1.482  -1.979   2.990  0.00  0.00    -0.153 OA
ENDROOT
BRANCH   1   4
ATOM      4  C   UNL     1      -2.446   0.383   2.770  0.00  0.00    +0.140 A 
ATOM      5  C   UNL     1      -1.278   0.892   3.324  0.00  0.00    +0.053 A 
ATOM      6  C   UNL     1      -1.212   2.230   3.691  0.00  0.00    +0.040 A 
ATOM      7  C   UNL     1      -2.308   3.051   3.502  0.00  0.00    +0.021 A 
ATOM      8  C   UNL     1      -3.469   2.542   2.950  0.00  0.00    +0.032 A 
ATOM      9  C   UNL     1      -3.536   1.210   2.579  0.00  0.00    +0.047 A 
ATOM     10 BR   UNL     1      -5.123   0.520   1.817  0.00  0.00    -0.048 Br
ATOM     11 BR   UNL     1      -2.219   4.873   4.001  0.00  0.00    -0.050 Br
BRANCH   5  12
ATOM     12  N   UNL     1      -0.173   0.059   3.514  0.00  0.00    -0.356 N 
ATOM     13  H   UNL     1      -0.046  -0.716   2.945  0.00  0.00    +0.142 HD
ATOM     14  H   UNL     1       0.469   0.257   4.214  0.00  0.00    +0.142 HD
ENDBRANCH   5  12
ENDBRANCH   1   4
BRANCH   1  15
ATOM     15  N   UNL     1      -2.172  -1.397   0.689  0.00  0.00    -0.187 NA
ATOM     16  H   UNL     1      -2.846  -1.689   0.056  0.00  0.00    +0.148 HD
BRANCH  15  18
ATOM     17  C   UNL     1      -0.835   0.433  -0.231  0.00  0.00    +0.025 C 
ATOM     18  C   UNL     1      -0.834  -1.030   0.218  0.00  0.00    +0.072 C 
BRANCH  18  19
ATOM     19  C   UNL     1      -0.444  -1.925  -0.960  0.00  0.00    +0.001 C 
BRANCH  19  20
ATOM     20  C   UNL     1      -0.322  -3.373  -0.481  0.00  0.00    -0.078 C 
BRANCH  20  21
ATOM     21  N   UNL     1       0.052  -4.232  -1.613  0.00  0.00    +0.376 N 
ATOM     22  C   UNL     1       0.286  -5.601  -1.132  0.00  0.00    -0.097 C 
ATOM     23  C   UNL     1      -1.034  -4.240  -2.602  0.00  0.00    -0.097 C 
ATOM     24  H   UNL     1       0.894  -3.878  -2.041  0.00  0.00    -0.083 HD
ENDBRANCH  20  21
ENDBRANCH  19  20
ENDBRANCH  18  19
ENDBRANCH  15  18
ENDBRANCH   1  15
TORSDOF 7
