REMARK  Name = ZINC63868088
REMARK  7 active torsions:
REMARK  status: ('A' for Active; 'I' for Inactive)
REMARK    1  A    between atoms: C_1  and  C_2
REMARK    2  A    between atoms: C_2  and  C_3
REMARK    3  A    between atoms: C_4  and  C_25
REMARK    4  A    between atoms: C_6  and  C_8
REMARK    5  A    between atoms: N_10  and  C_11
REMARK    6  A    between atoms: C_11  and  C_12
REMARK    7  A    between atoms: C_25  and  N_26
REMARK                            x       y       z     vdW  Elec       q    Type
REMARK                         _______ _______ _______ _____ _____    ______ ____
ROOT
ATOM      1  C   UNL     1      -4.433  -1.648   1.646  0.00  0.00    +0.279 C 
ATOM      2  O   UNL     1      -5.494  -2.037   1.194  0.00  0.00    -0.267 OA
ATOM      3  N   UNL     1      -4.251  -1.586   2.980  0.00  0.00    -0.308 N 
ATOM      4  H   UNL     1      -3.406  -1.276   3.340  0.00  0.00    +0.149 HD
ENDROOT
BRANCH   1   8
ATOM      5  C   UNL     1      -1.412  -0.526   0.013  0.00  0.00    +0.107 A 
ATOM      6  C   UNL     1      -2.159  -0.797  -1.080  0.00  0.00    -0.022 A 
ATOM      7  C   UNL     1      -3.404  -1.259  -0.625  0.00  0.00    +0.056 A 
ATOM      8  C   UNL     1      -3.353  -1.246   0.739  0.00  0.00    +0.190 A 
ATOM      9  O   UNL     1      -2.133  -0.802   1.107  0.00  0.00    -0.455 OA
BRANCH   5  11
ATOM     10  C   UNL     1      -0.019   1.526   0.010  0.00  0.00    +0.012 C 
ATOM     11  C   UNL     1       0.002  -0.004   0.002  0.00  0.00    +0.071 C 
ENDBRANCH   5  11
BRANCH   6  12
ATOM     12  C   UNL     1      -1.735  -0.634  -2.517  0.00  0.00    -0.040 C 
BRANCH  12  13
ATOM     13  N   UNL     1      -0.909  -1.781  -2.917  0.00  0.00    +0.382 N 
ATOM     14  C   UNL     1      -1.737  -3.013  -2.977  0.00  0.00    -0.078 C 
ATOM     15  C   UNL     1      -0.924  -3.942  -3.913  0.00  0.00    -0.020 C 
ATOM     16  C   UNL     1      -0.357  -2.962  -4.966  0.00  0.00    -0.020 C 
ATOM     17  C   UNL     1      -0.385  -1.580  -4.285  0.00  0.00    -0.078 C 
ATOM     18  H   UNL     1      -0.147  -1.905  -2.268  0.00  0.00    -0.081 HD
ENDBRANCH  12  13
ENDBRANCH   6  12
ENDBRANCH   1   8
BRANCH   3  19
ATOM     19  C   UNL     1      -5.330  -1.988   3.885  0.00  0.00    +0.121 C 
BRANCH  19  20
ATOM     20  C   UNL     1      -4.868  -1.823   5.335  0.00  0.00    +0.116 C 
ATOM     21  C   UNL     1      -6.070  -2.034   6.233  0.00  0.00    -0.003 C 
ATOM     22  C   UNL     1      -5.988  -3.023   7.166  0.00  0.00    -0.007 A 
ATOM     23  C   UNL     1      -7.106  -3.292   8.073  0.00  0.00    +0.012 A 
ATOM     24  C   UNL     1      -6.985  -4.285   8.989  0.00  0.00    +0.039 A 
ATOM     25  C   UNL     1      -5.819  -5.052   9.081  0.00  0.00    +0.125 A 
ATOM     26  C   UNL     1      -4.738  -4.849   8.260  0.00  0.00    +0.062 A 
ATOM     27  C   UNL     1      -4.769  -3.843   7.280  0.00  0.00    +0.043 A 
ATOM     28  N   UNL     1      -3.713  -3.654   6.487  0.00  0.00    -0.284 N 
ATOM     29  C   UNL     1      -3.675  -2.728   5.546  0.00  0.00    +0.226 C 
ATOM     30  O   UNL     1      -2.683  -2.602   4.853  0.00  0.00    -0.275 OA
ATOM     31  F   UNL     1      -5.755  -6.029  10.012  0.00  0.00    -0.205 F 
ATOM     32  H   UNL     1      -2.937  -4.224   6.607  0.00  0.00    +0.155 HD
ENDBRANCH  19  20
ENDBRANCH   3  19
TORSDOF 6
