REMARK  Name = ZINC21203001
REMARK  10 active torsions:
REMARK  status: ('A' for Active; 'I' for Inactive)
REMARK    1  A    between atoms: C_1  and  C_2
REMARK    2  A    between atoms: C_2  and  C_3
REMARK    3  A    between atoms: C_6  and  N_9
REMARK    4  A    between atoms: C_19  and  S_20
REMARK    5  A    between atoms: S_20  and  C_21
REMARK    6  A    between atoms: C_21  and  C_22
REMARK    7  A    between atoms: C_23  and  C_29
REMARK    8  A    between atoms: C_29  and  O_31
REMARK    9  A    between atoms: O_31  and  C_32
REMARK   10  A    between atoms: C_32  and  C_33
REMARK                            x       y       z     vdW  Elec       q    Type
REMARK                         _______ _______ _______ _____ _____    ______ ____
ROOT
ATOM      1  N   UNL     1       6.788  -1.066  -3.019  0.00  0.00    -0.255 N 
ATOM      2  C   UNL     1       7.601  -2.145  -3.097  0.00  0.00    +0.267 A 
ATOM      3  O   UNL     1       7.941  -2.603  -4.172  0.00  0.00    -0.267 OA
ATOM      4  C   UNL     1       8.061  -2.742  -1.836  0.00  0.00    +0.065 A 
ATOM      5  C   UNL     1       8.901  -3.855  -1.811  0.00  0.00    +0.015 A 
ATOM      6  C   UNL     1       9.299  -4.371  -0.609  0.00  0.00    +0.001 A 
ATOM      7  C   UNL     1       8.876  -3.800   0.585  0.00  0.00    +0.002 A 
ATOM      8  C   UNL     1       8.053  -2.710   0.589  0.00  0.00    +0.028 A 
ATOM      9  C   UNL     1       7.628  -2.158  -0.623  0.00  0.00    +0.079 A 
ATOM     10  N   UNL     1       6.817  -1.076  -0.665  0.00  0.00    -0.223 NA
ATOM     11  C   UNL     1       6.416  -0.563  -1.803  0.00  0.00    +0.177 A 
ENDROOT
BRANCH   1  15
ATOM     12  C   UNL     1       5.405   0.736  -6.513  0.00  0.00    -0.047 A 
ATOM     13  C   UNL     1       6.623   1.114  -5.977  0.00  0.00    +0.005 A 
ATOM     14  C   UNL     1       7.084   0.518  -4.819  0.00  0.00    +0.026 A 
ATOM     15  C   UNL     1       6.323  -0.460  -4.193  0.00  0.00    +0.052 A 
ATOM     16  C   UNL     1       5.103  -0.841  -4.737  0.00  0.00    +0.026 A 
ATOM     17  C   UNL     1       4.646  -0.238  -5.892  0.00  0.00    +0.005 A 
BRANCH  12  19
ATOM     18  C   UNL     1       5.396   0.594  -8.989  0.00  0.00    +0.009 C 
ATOM     19  C   UNL     1       4.905   1.388  -7.776  0.00  0.00    +0.032 C 
ENDBRANCH  12  19
ENDBRANCH   1  15
BRANCH  11  20
ATOM     20  S   UNL     1       5.355   0.843  -1.764  0.00  0.00    -0.081 S 
BRANCH  20  21
ATOM     21  C   UNL     1       5.197   1.067   0.025  0.00  0.00    +0.128 C 
BRANCH  21  22
ATOM     22  C   UNL     1       4.306   2.250   0.306  0.00  0.00    +0.034 C 
ATOM     23  C   UNL     1       3.048   2.043   0.752  0.00  0.00    +0.071 C 
ATOM     24  C   UNL     1       2.186   3.260   1.022  0.00  0.00    +0.150 C 
ATOM     25  N   UNL     1       2.796   4.577   0.774  0.00  0.00    -0.295 N 
ATOM     26  C   UNL     1       4.066   4.622   0.328  0.00  0.00    +0.304 C 
ATOM     27  O   UNL     1       4.578   5.705   0.120  0.00  0.00    -0.253 OA
ATOM     28  N   UNL     1       4.784   3.514   0.106  0.00  0.00    -0.272 N 
ATOM     29  H   UNL     1       2.215   5.494   0.953  0.00  0.00    +0.151 HD
ATOM     30  H   UNL     1       5.811   3.662  -0.257  0.00  0.00    +0.156 HD
BRANCH  23  31
ATOM     31  C   UNL     1       2.552   0.735   0.960  0.00  0.00    +0.338 C 
ATOM     32  O   UNL     1       1.848   0.210   0.118  0.00  0.00    -0.245 OA
BRANCH  31  33
ATOM     33  O   UNL     1       2.859   0.069   2.093  0.00  0.00    -0.462 OA
BRANCH  33  34
ATOM     34  C   UNL     1       2.324  -1.248   2.237  0.00  0.00    +0.229 C 
ATOM     35  C   UNL     1       2.776  -1.840   3.573  0.00  0.00    +0.048 C 
ENDBRANCH  33  34
ENDBRANCH  31  33
ENDBRANCH  23  31
ENDBRANCH  21  22
ENDBRANCH  20  21
ENDBRANCH  11  20
TORSDOF 8
