REMARK  Name = ZINC55749506
REMARK  9 active torsions:
REMARK  status: ('A' for Active; 'I' for Inactive)
REMARK    1  A    between atoms: C_1  and  C_2
REMARK    2  A    between atoms: C_3  and  C_8
REMARK    3  A    between atoms: C_8  and  C_9
REMARK    4  A    between atoms: N_11  and  C_12
REMARK    5  A    between atoms: C_12  and  C_14
REMARK    6  A    between atoms: C_12  and  C_15
REMARK    7  A    between atoms: C_15  and  N_16
REMARK    8  A    between atoms: C_18  and  C_25
REMARK    9  A    between atoms: C_21  and  C_24
REMARK                            x       y       z     vdW  Elec       q    Type
REMARK                         _______ _______ _______ _____ _____    ______ ____
ROOT
ATOM      1  C   UNL     1       1.407  -0.024  -3.062  0.00  0.00    +0.218 C 
ATOM      2  O   UNL     1       2.337  -0.270  -2.322  0.00  0.00    -0.275 OA
ATOM      3  N   UNL     1       1.641   0.416  -4.314  0.00  0.00    -0.314 N 
ATOM      4  H   UNL     1       0.898   0.614  -4.905  0.00  0.00    +0.149 HD
ENDROOT
BRANCH   3   5
ATOM      5  C   UNL     1       3.018   0.596  -4.782  0.00  0.00    +0.053 C 
ATOM      6  C   UNL     1       3.523   1.977  -4.360  0.00  0.00    +0.026 C 
BRANCH   5   7
ATOM      7  C   UNL     1       3.056   0.483  -6.308  0.00  0.00    -0.057 C 
BRANCH   7   8
ATOM      8  N   UNL     1       2.460  -0.795  -6.719  0.00  0.00    +0.381 N 
ATOM      9  C   UNL     1       3.284  -1.901  -6.218  0.00  0.00    -0.076 C 
ATOM     10  C   UNL     1       2.624  -3.235  -6.575  0.00  0.00    -0.031 C 
ATOM     11  C   UNL     1       2.493  -3.343  -8.097  0.00  0.00    +0.003 C 
ATOM     12  C   UNL     1       1.695  -2.144  -8.616  0.00  0.00    -0.031 C 
ATOM     13  C   UNL     1       2.389  -0.850  -8.184  0.00  0.00    -0.076 C 
ATOM     14  C   UNL     1       1.623  -2.201 -10.143  0.00  0.00    +0.005 C 
ATOM     15  C   UNL     1       3.486  -4.387  -6.053  0.00  0.00    +0.005 C 
ATOM     16  H   UNL     1       1.530  -0.870  -6.335  0.00  0.00    -0.082 HD
ENDBRANCH   7   8
ENDBRANCH   5   7
ENDBRANCH   3   5
BRANCH   1  17
ATOM     17  C   UNL     1      -0.008  -0.209  -2.580  0.00  0.00    +0.140 C 
BRANCH  17  20
ATOM     18  C   UNL     1      -0.018   1.503   0.010  0.00  0.00    +0.066 C 
ATOM     19  C   UNL     1       0.002  -0.004   0.002  0.00  0.00    +0.050 A 
ATOM     20  C   UNL     1       0.006  -0.705  -1.157  0.00  0.00    +0.022 A 
ATOM     21  S   UNL     1       0.032  -2.378  -0.535  0.00  0.00    -0.064 S 
ATOM     22  C   UNL     1       0.035  -2.016   1.108  0.00  0.00    +0.146 A 
ATOM     23  S   UNL     1       0.057  -3.129   2.474  0.00  0.00    -0.023 SA
ATOM     24  N   UNL     1       0.023  -0.700   1.125  0.00  0.00    -0.237 NA
ENDBRANCH  17  20
ENDBRANCH   1  17
TORSDOF 5
