REMARK  Name = ZINC39411811
REMARK  6 active torsions:
REMARK  status: ('A' for Active; 'I' for Inactive)
REMARK    1  A    between atoms: C_1  and  C_2
REMARK    2  A    between atoms: C_8  and  S_10
REMARK    3  A    between atoms: S_10  and  C_11
REMARK    4  A    between atoms: C_11  and  C_12
REMARK    5  A    between atoms: N_21  and  C_22
REMARK    6  A    between atoms: C_22  and  C_23
REMARK                            x       y       z     vdW  Elec       q    Type
REMARK                         _______ _______ _______ _____ _____    ______ ____
ROOT
ATOM      1  C   UNL     1       5.401  -1.970  -0.034  0.00  0.00    +0.169 C 
ATOM      2  N   UNL     1       5.551  -2.928  -1.137  0.00  0.00    -0.324 N 
ATOM      3  C   UNL     1       5.864  -4.171  -0.571  0.00  0.00    +0.050 A 
ATOM      4  C   UNL     1       6.105  -5.401  -1.171  0.00  0.00    +0.025 A 
ATOM      5  C   UNL     1       6.399  -6.506  -0.395  0.00  0.00    +0.002 A 
ATOM      6  C   UNL     1       6.456  -6.392   0.981  0.00  0.00    +0.002 A 
ATOM      7  C   UNL     1       6.219  -5.173   1.587  0.00  0.00    +0.025 A 
ATOM      8  C   UNL     1       5.921  -4.057   0.815  0.00  0.00    +0.053 A 
ATOM      9  N   UNL     1       5.647  -2.734   1.195  0.00  0.00    -0.305 N 
ATOM     10  H   UNL     1       5.451  -2.735  -2.083  0.00  0.00    +0.148 HD
ENDROOT
BRANCH   1  11
ATOM     11  C   UNL     1       3.984  -1.394  -0.024  0.00  0.00    +0.119 C 
BRANCH  11  12
ATOM     12  S   UNL     1       2.780  -2.751  -0.016  0.00  0.00    -0.084 S 
BRANCH  12  20
ATOM     13  C   UNL     1       0.005   1.545   0.008  0.00  0.00    +0.066 C 
ATOM     14  C   UNL     1       0.017   0.038   0.007  0.00  0.00    +0.046 A 
ATOM     15  C   UNL     1      -1.160  -0.653   0.015  0.00  0.00    +0.093 A 
ATOM     16  C   UNL     1      -1.124  -2.058   0.013  0.00  0.00    +0.252 A 
ATOM     17  O   UNL     1      -2.158  -2.706   0.020  0.00  0.00    -0.268 OA
ATOM     18  N   UNL     1       0.076  -2.677   0.004  0.00  0.00    -0.302 N 
ATOM     19  H   UNL     1       0.124  -3.646   0.002  0.00  0.00    +0.171 HD
ATOM     20  C   UNL     1       1.218  -1.935  -0.004  0.00  0.00    +0.169 A 
ATOM     21  N   UNL     1       1.175  -0.617  -0.007  0.00  0.00    -0.228 NA
ENDBRANCH  12  20
ENDBRANCH  11  12
ENDBRANCH   1  11
BRANCH   9  22
ATOM     22  C   UNL     1       5.613  -2.211   2.563  0.00  0.00    +0.142 C 
BRANCH  22  23
ATOM     23  C   UNL     1       6.949  -1.601   2.901  0.00  0.00    -0.030 A 
ATOM     24  C   UNL     1       7.974  -2.399   3.373  0.00  0.00    +0.005 A 
ATOM     25  C   UNL     1       9.199  -1.839   3.683  0.00  0.00    +0.000 A 
ATOM     26  C   UNL     1       9.399  -0.481   3.521  0.00  0.00    +0.000 A 
ATOM     27  C   UNL     1       8.374   0.317   3.049  0.00  0.00    +0.000 A 
ATOM     28  C   UNL     1       7.151  -0.243   2.735  0.00  0.00    +0.005 A 
ENDBRANCH  22  23
ENDBRANCH   9  22
TORSDOF 5
