REMARK  Name = ZINC45538641
REMARK  16 active torsions:
REMARK  status: ('A' for Active; 'I' for Inactive)
REMARK    1  A    between atoms: C_1  and  C_2
REMARK    2  A    between atoms: C_2  and  N_3
REMARK    3  A    between atoms: N_3  and  C_4
REMARK    4  A    between atoms: N_3  and  C_6
REMARK    5  A    between atoms: C_4  and  C_5
REMARK    6  A    between atoms: C_6  and  C_8
REMARK    7  A    between atoms: C_6  and  C_12
REMARK    8  A    between atoms: C_8  and  C_9
REMARK    9  A    between atoms: C_9  and  C_10
REMARK   10  A    between atoms: C_9  and  C_11
REMARK   11  A    between atoms: C_12  and  N_13
REMARK   12  A    between atoms: N_16  and  N_17
REMARK   13  A    between atoms: C_18  and  C_20
REMARK   14  A    between atoms: C_20  and  O_21
REMARK   15  A    between atoms: O_21  and  C_22
REMARK   16  A    between atoms: C_25  and  C_28
REMARK                            x       y       z     vdW  Elec       q    Type
REMARK                         _______ _______ _______ _____ _____    ______ ____
ROOT
ATOM      1  N   UNL     1      -0.416   1.909  -2.132  0.00  0.00    -0.300 N 
ATOM      2  C   UNL     1      -0.351   3.166  -2.612  0.00  0.00    +0.316 C 
ATOM      3  O   UNL     1       0.067   3.368  -3.736  0.00  0.00    -0.251 OA
ATOM      4  N   UNL     1      -0.750   4.201  -1.846  0.00  0.00    -0.218 N 
ATOM      5  H   UNL     1      -0.817   1.740  -1.265  0.00  0.00    +0.150 HD
ATOM      6  H   UNL     1      -0.773   5.098  -2.216  0.00  0.00    +0.174 HD
ENDROOT
BRANCH   4   7
ATOM      7  N   UNL     1      -1.130   3.982  -0.515  0.00  0.00    -0.230 N 
ATOM      8  C   UNL     1      -1.430   5.028   0.281  0.00  0.00    +0.267 C 
ATOM      9  O   UNL     1      -1.371   6.158  -0.155  0.00  0.00    -0.271 OA
ATOM     10  H   UNL     1      -1.177   3.078  -0.167  0.00  0.00    +0.173 HD
BRANCH   8  11
ATOM     11  C   UNL     1      -1.839   4.792   1.712  0.00  0.00    +0.326 C 
BRANCH  11  12
ATOM     12  O   UNL     1      -2.103   6.046   2.344  0.00  0.00    -0.483 OA
BRANCH  12  13
ATOM     13  C   UNL     1      -2.486   6.011   3.646  0.00  0.00    +0.121 A 
ATOM     14  C   UNL     1      -2.599   4.791   4.303  0.00  0.00    +0.047 A 
ATOM     15  C   UNL     1      -2.987   4.751   5.623  0.00  0.00    +0.022 A 
ATOM     16  C   UNL     1      -3.268   5.939   6.304  0.00  0.00    +0.052 A 
ATOM     17  C   UNL     1      -3.153   7.164   5.640  0.00  0.00    +0.022 A 
ATOM     18  C   UNL     1      -2.759   7.195   4.320  0.00  0.00    +0.047 A 
BRANCH  16  19
ATOM     19  C   UNL     1      -3.672   5.902   7.677  0.00  0.00    +0.099 C 
ATOM     20  N   UNL     1      -3.992   5.873   8.767  0.00  0.00    -0.191 NA
ENDBRANCH  16  19
ENDBRANCH  12  13
ENDBRANCH  11  12
ENDBRANCH   8  11
ENDBRANCH   4   7
BRANCH   1  21
ATOM     21  C   UNL     1       0.120   0.796  -2.920  0.00  0.00    +0.090 C 
BRANCH  21  22
ATOM     22  C   UNL     1       0.010  -0.500  -2.113  0.00  0.00    -0.051 C 
BRANCH  22  23
ATOM     23  N   UNL     1       0.937  -0.448  -0.975  0.00  0.00    +0.382 N 
ATOM     24  H   UNL     1       1.268  -1.378  -0.768  0.00  0.00    -0.081 HD
BRANCH  23  26
ATOM     25  C   UNL     1       2.905  -0.241  -2.418  0.00  0.00    -0.017 C 
ATOM     26  C   UNL     1       2.077   0.415  -1.310  0.00  0.00    -0.082 C 
ENDBRANCH  23  26
BRANCH  23  27
ATOM     27  C   UNL     1       0.241   0.096   0.199  0.00  0.00    -0.082 C 
ATOM     28  C   UNL     1      -0.911  -0.835   0.585  0.00  0.00    -0.017 C 
ENDBRANCH  23  27
ENDBRANCH  22  23
BRANCH  22  29
ATOM     29  C   UNL     1       0.366  -1.689  -3.007  0.00  0.00    -0.011 C 
BRANCH  29  30
ATOM     30  C   UNL     1       0.178  -2.990  -2.224  0.00  0.00    -0.019 C 
ATOM     31  C   UNL     1      -1.305  -3.179  -1.900  0.00  0.00    +0.007 C 
ATOM     32  C   UNL     1       0.670  -4.168  -3.067  0.00  0.00    +0.007 C 
ENDBRANCH  29  30
ENDBRANCH  22  29
ENDBRANCH  21  22
ENDBRANCH   1  21
TORSDOF 12
