REMARK  Name = ZINC03840738
REMARK  14 active torsions:
REMARK  status: ('A' for Active; 'I' for Inactive)
REMARK    1  A    between atoms: C_1  and  C_2
REMARK    2  A    between atoms: C_10  and  C_12
REMARK    3  A    between atoms: C_12  and  C_13
REMARK    4  A    between atoms: C_13  and  C_14
REMARK    5  A    between atoms: C_13  and  C_15
REMARK    6  A    between atoms: C_13  and  C_16
REMARK    7  A    between atoms: C_18  and  C_38
REMARK    8  A    between atoms: C_21  and  O_37
REMARK    9  A    between atoms: C_23  and  C_27
REMARK   10  A    between atoms: C_27  and  C_29
REMARK   11  A    between atoms: C_27  and  C_30
REMARK   12  A    between atoms: N_32  and  C_33
REMARK   13  A    between atoms: N_32  and  C_34
REMARK   14  A    between atoms: C_34  and  C_35
REMARK                            x       y       z     vdW  Elec       q    Type
REMARK                         _______ _______ _______ _____ _____    ______ ____
ROOT
ATOM      1  C   UNL     1      -5.841   3.729  -0.858  0.00  0.00    +0.014 C 
ATOM      2  C   UNL     1      -5.090   3.792  -2.190  0.00  0.00    +0.042 C 
ATOM      3  C   UNL     1      -5.891   3.077  -3.269  0.00  0.00    +0.057 A 
ATOM      4  C   UNL     1      -5.265   2.275  -4.167  0.00  0.00    +0.015 A 
ATOM      5  S   UNL     1      -6.604   1.699  -5.176  0.00  0.00    -0.057 S 
ATOM      6  C   UNL     1      -7.875   2.547  -4.345  0.00  0.00    +0.165 A 
ATOM      7  N   UNL     1      -7.212   3.181  -3.400  0.00  0.00    -0.229 NA
ATOM      8  N   UNL     1      -9.239   2.555  -4.611  0.00  0.00    -0.265 N 
ATOM      9  C   UNL     1      -9.730   1.833  -5.637  0.00  0.00    +0.219 C 
ATOM     10  O   UNL     1      -8.981   1.175  -6.329  0.00  0.00    -0.275 OA
ATOM     11  C   UNL     1      -3.811   1.972  -4.258  0.00  0.00    +0.051 C 
ATOM     12  C   UNL     1      -3.032   2.986  -3.397  0.00  0.00    -0.022 C 
ATOM     13  C   UNL     1      -3.721   3.116  -2.037  0.00  0.00    +0.033 C 
ATOM     14  C   UNL     1      -2.879   3.990  -1.101  0.00  0.00    +0.123 C 
ATOM     15  C   UNL     1      -1.479   3.402  -0.940  0.00  0.00    +0.029 C 
ATOM     16  C   UNL     1      -0.799   3.358  -2.312  0.00  0.00    +0.007 C 
ATOM     17  C   UNL     1      -1.608   2.450  -3.220  0.00  0.00    +0.008 C 
ATOM     18  C   UNL     1      -2.995   4.346  -4.096  0.00  0.00    +0.012 C 
ATOM     19  H   UNL     1      -9.838   3.081  -4.058  0.00  0.00    +0.157 HD
ENDROOT
BRANCH  15  20
ATOM     20  C   UNL     1      -1.581   1.984  -0.372  0.00  0.00    +0.078 C 
ATOM     21  C   UNL     1      -2.144   2.043   1.049  0.00  0.00    +0.017 C 
BRANCH  20  22
ATOM     22  C   UNL     1      -0.211   1.355  -0.344  0.00  0.00    +0.219 C 
ATOM     23  O   UNL     1       0.778   2.055  -0.381  0.00  0.00    -0.275 OA
ATOM     24  N   UNL     1      -0.087   0.015  -0.283  0.00  0.00    -0.293 N 
ATOM     25  C   UNL     1      -1.280  -0.827  -0.157  0.00  0.00    +0.133 C 
BRANCH  24  26
ATOM     26  C   UNL     1       1.241  -0.601  -0.343  0.00  0.00    +0.196 C 
BRANCH  26  27
ATOM     27  C   UNL     1       1.781  -0.736   1.019  0.00  0.00    -0.086 C 
ATOM     28  C   UNL     1       2.212  -0.843   2.106  0.00  0.00    +0.005 C 
ENDBRANCH  26  27
ENDBRANCH  24  26
ENDBRANCH  20  22
ENDBRANCH  15  20
BRANCH  14  29
ATOM     29  O   UNL     1      -3.513   4.060   0.178  0.00  0.00    -0.391 OA
ATOM     30  H   UNL     1      -3.042   4.609   0.820  0.00  0.00    +0.210 HD
ENDBRANCH  14  29
BRANCH   9  31
ATOM     31  C   UNL     1     -11.209   1.841  -5.926  0.00  0.00    +0.102 C 
BRANCH  31  32
ATOM     32  C   UNL     1     -11.499   0.946  -7.132  0.00  0.00    -0.029 C 
ATOM     33  C   UNL     1     -11.047  -0.483  -6.827  0.00  0.00    +0.011 C 
ATOM     34  C   UNL     1     -13.000   0.955  -7.425  0.00  0.00    +0.011 C 
ATOM     35  C   UNL     1     -10.739   1.472  -8.351  0.00  0.00    +0.011 C 
ENDBRANCH  31  32
ENDBRANCH   9  31
TORSDOF 7
