REMARK  Name = ZINC01342812
REMARK  6 active torsions:
REMARK  status: ('A' for Active; 'I' for Inactive)
REMARK    1  A    between atoms: C_1  and  C_2
REMARK    2  A    between atoms: C_2  and  C_3
REMARK    3  A    between atoms: C_11  and  N_26
REMARK    4  A    between atoms: C_12  and  C_16
REMARK    5  A    between atoms: N_18  and  C_19
REMARK    6  A    between atoms: C_19  and  C_20
REMARK                            x       y       z     vdW  Elec       q    Type
REMARK                         _______ _______ _______ _____ _____    ______ ____
ROOT
ATOM      1  C   UNL     1       0.002  -0.004   0.002  0.00  0.00    -0.047 A 
ATOM      2  C   UNL     1       1.207  -0.706  -0.013  0.00  0.00    +0.006 A 
ATOM      3  C   UNL     1       2.400  -0.051  -0.021  0.00  0.00    +0.028 A 
ATOM      4  C   UNL     1       2.424   1.355  -0.014  0.00  0.00    +0.072 A 
ATOM      5  C   UNL     1       1.197   2.070   0.002  0.00  0.00    +0.001 A 
ATOM      6  C   UNL     1      -0.016   1.356   0.009  0.00  0.00    +0.013 A 
ATOM      7  C   UNL     1       1.208   3.469   0.008  0.00  0.00    +0.022 A 
ATOM      8  C   UNL     1       2.445   4.140   0.000  0.00  0.00    +0.030 A 
ATOM      9  C   UNL     1       2.692   5.576   0.005  0.00  0.00    +0.053 A 
ATOM     10  C   UNL     1       3.994   6.016  -0.006  0.00  0.00    +0.097 A 
ATOM     11  S   UNL     1       4.945   4.509  -0.022  0.00  0.00    -0.062 S 
ATOM     12  C   UNL     1       3.614   3.331  -0.015  0.00  0.00    +0.111 A 
ATOM     13  N   UNL     1       3.581   2.022  -0.022  0.00  0.00    -0.239 NA
ENDROOT
BRANCH  10  14
ATOM     14  C   UNL     1       4.469   7.351  -0.003  0.00  0.00    +0.253 C 
ATOM     15  O   UNL     1       3.679   8.278   0.009  0.00  0.00    -0.270 OA
ATOM     16  N   UNL     1       5.794   7.596  -0.015  0.00  0.00    -0.308 N 
ATOM     17  H   UNL     1       6.423   6.858  -0.025  0.00  0.00    +0.149 HD
BRANCH  16  18
ATOM     18  C   UNL     1       6.285   8.976  -0.013  0.00  0.00    +0.136 C 
BRANCH  18  19
ATOM     19  C   UNL     1       7.814   8.974  -0.028  0.00  0.00    +0.135 C 
ATOM     20  C   UNL     1       8.341  10.422  -0.025  0.00  0.00    +0.035 C 
ATOM     21  C   UNL     1       9.219  10.505   1.247  0.00  0.00    +0.031 C 
ATOM     22  C   UNL     1       9.538   9.013   1.519  0.00  0.00    +0.160 C 
ATOM     23  O   UNL     1       8.314   8.336   1.160  0.00  0.00    -0.375 OA
ENDBRANCH  18  19
ENDBRANCH  16  18
ENDBRANCH  10  14
BRANCH   9  24
ATOM     24  N   UNL     1       1.638   6.478   0.019  0.00  0.00    -0.356 N 
ATOM     25  H   UNL     1       0.723   6.155   0.026  0.00  0.00    +0.142 HD
ATOM     26  H   UNL     1       1.815   7.431   0.022  0.00  0.00    +0.142 HD
ENDBRANCH   9  24
BRANCH   1  28
ATOM     27  C   UNL     1      -1.754  -1.014  -1.429  0.00  0.00    +0.009 C 
ATOM     28  C   UNL     1      -1.299  -0.764   0.011  0.00  0.00    +0.032 C 
ENDBRANCH   1  28
TORSDOF 5
