REMARK  Name = ZINC20489892
REMARK  6 active torsions:
REMARK  status: ('A' for Active; 'I' for Inactive)
REMARK    1  A    between atoms: N_6  and  C_16
REMARK    2  A    between atoms: C_16  and  C_17
REMARK    3  A    between atoms: C_17  and  C_18
REMARK    4  A    between atoms: N_20  and  C_21
REMARK    5  A    between atoms: C_21  and  C_22
REMARK    6  A    between atoms: C_22  and  C_23
REMARK                            x       y       z     vdW  Elec       q    Type
REMARK                         _______ _______ _______ _____ _____    ______ ____
ROOT
ATOM      1  C   UNL     1       2.960   0.952   5.959  0.00  0.00    +0.020 A 
ATOM      2  C   UNL     1       2.697   1.871   4.939  0.00  0.00    +0.033 A 
ATOM      3  C   UNL     1       1.671   1.349   4.181  0.00  0.00    +0.112 A 
ATOM      4  C   UNL     1       0.966   1.837   2.994  0.00  0.00    +0.276 A 
ATOM      5  O   UNL     1       1.268   2.907   2.499  0.00  0.00    -0.265 OA
ATOM      6  N   UNL     1      -0.020   1.094   2.454  0.00  0.00    -0.305 N 
ATOM      7  C   UNL     1      -0.375  -0.131   3.019  0.00  0.00    +0.071 A 
ATOM      8  C   UNL     1      -1.392  -0.885   2.445  0.00  0.00    +0.066 A 
ATOM      9  C   UNL     1      -1.746  -2.102   2.996  0.00  0.00    +0.125 A 
ATOM     10  C   UNL     1      -1.087  -2.577   4.119  0.00  0.00    +0.040 A 
ATOM     11  C   UNL     1      -0.072  -1.836   4.693  0.00  0.00    +0.031 A 
ATOM     12  C   UNL     1       0.290  -0.613   4.146  0.00  0.00    +0.070 A 
ATOM     13  N   UNL     1       1.318   0.135   4.731  0.00  0.00    -0.310 N 
ATOM     14  C   UNL     1       2.109  -0.093   5.810  0.00  0.00    +0.092 A 
ATOM     15  F   UNL     1      -2.738  -2.830   2.438  0.00  0.00    -0.205 F 
ENDROOT
BRANCH   6  16
ATOM     16  C   UNL     1      -0.729   1.579   1.267  0.00  0.00    +0.135 C 
BRANCH  16  17
ATOM     17  C   UNL     1      -0.013   1.086   0.008  0.00  0.00    +0.117 C 
BRANCH  17  18
ATOM     18  C   UNL     1      -0.742   1.585  -1.213  0.00  0.00    +0.215 C 
ATOM     19  O   UNL     1      -1.736   2.268  -1.088  0.00  0.00    -0.276 OA
ATOM     20  N   UNL     1      -0.288   1.272  -2.443  0.00  0.00    -0.315 N 
ATOM     21  H   UNL     1       0.614   0.653  -2.556  0.00  0.00    +0.149 HD
BRANCH  20  22
ATOM     22  C   UNL     1      -0.997   1.758  -3.630  0.00  0.00    +0.108 C 
BRANCH  22  23
ATOM     23  C   UNL     1      -0.281   1.264  -4.889  0.00  0.00    +0.049 C 
BRANCH  23  24
ATOM     24  C   UNL     1      -1.010   1.763  -6.110  0.00  0.00    -0.072 C 
ATOM     25  C   UNL     1      -0.592   2.857  -6.661  0.00  0.00    -0.028 C 
ATOM     26  C   UNL     1      -1.220   3.482  -7.872  0.00  0.00    +0.027 C 
ATOM     27  C   UNL     1      -2.106   2.462  -8.591  0.00  0.00    +0.004 C 
ATOM     28  C   UNL     1      -3.030   1.807  -7.556  0.00  0.00    +0.005 C 
ATOM     29  C   UNL     1      -2.171   0.958  -6.614  0.00  0.00    +0.030 C 
ENDBRANCH  23  24
ENDBRANCH  22  23
ENDBRANCH  20  22
ENDBRANCH  17  18
ENDBRANCH  16  17
ENDBRANCH   6  16
TORSDOF 6
