REMARK  Name = ZINC27473022
REMARK  5 active torsions:
REMARK  status: ('A' for Active; 'I' for Inactive)
REMARK    1  A    between atoms: C_4  and  C_7
REMARK    2  A    between atoms: C_7  and  C_25
REMARK    3  A    between atoms: C_9  and  C_12
REMARK    4  A    between atoms: N_14  and  N_15
REMARK    5  A    between atoms: C_16  and  C_17
REMARK                            x       y       z     vdW  Elec       q    Type
REMARK                         _______ _______ _______ _____ _____    ______ ____
ROOT
ATOM      1  C   UNL     1      -7.058   0.615   0.800  0.00  0.00    +0.104 C 
ATOM      2  C   UNL     1      -6.078  -0.574   0.793  0.00  0.00    +0.099 C 
ATOM      3  C   UNL     1      -4.744   0.054   0.458  0.00  0.00    +0.125 C 
ATOM      4  N   UNL     1      -4.897   1.328   0.293  0.00  0.00    -0.185 NA
ATOM      5  N   UNL     1      -6.207   1.769   0.469  0.00  0.00    -0.253 N 
ATOM      6  H   UNL     1      -6.509   2.687   0.385  0.00  0.00    +0.169 HD
ENDROOT
BRANCH   1  10
ATOM      7  C   UNL     1      -8.816   1.107   4.662  0.00  0.00    +0.000 A 
ATOM      8  C   UNL     1      -8.549   2.214   3.878  0.00  0.00    +0.000 A 
ATOM      9  C   UNL     1      -7.980   2.055   2.629  0.00  0.00    +0.006 A 
ATOM     10  C   UNL     1      -7.678   0.789   2.163  0.00  0.00    -0.018 A 
ATOM     11  C   UNL     1      -7.951  -0.319   2.944  0.00  0.00    +0.006 A 
ATOM     12  C   UNL     1      -8.515  -0.159   4.196  0.00  0.00    +0.000 A 
ENDBRANCH   1  10
BRANCH   1  13
ATOM     13  C   UNL     1      -8.126   0.426  -0.246  0.00  0.00    -0.018 A 
ATOM     14  C   UNL     1      -8.588  -0.843  -0.540  0.00  0.00    +0.006 A 
ATOM     15  C   UNL     1      -9.571  -1.016  -1.496  0.00  0.00    +0.000 A 
ATOM     16  C   UNL     1     -10.084   0.079  -2.166  0.00  0.00    +0.000 A 
ATOM     17  C   UNL     1      -9.618   1.347  -1.876  0.00  0.00    +0.000 A 
ATOM     18  C   UNL     1      -8.639   1.521  -0.916  0.00  0.00    +0.006 A 
ENDBRANCH   1  13
BRANCH   3  19
ATOM     19  C   UNL     1      -3.478  -0.668   0.333  0.00  0.00    +0.279 C 
ATOM     20  O   UNL     1      -3.458  -1.883   0.417  0.00  0.00    -0.267 OA
ATOM     21  N   UNL     1      -2.333   0.011   0.123  0.00  0.00    -0.202 N 
ATOM     22  H   UNL     1      -2.360   1.099  -0.036  0.00  0.00    +0.178 HD
BRANCH  21  23
ATOM     23  N   UNL     1      -1.108  -0.669   0.107  0.00  0.00    -0.187 NA
ATOM     24  C   UNL     1       0.003  -0.004   0.010  0.00  0.00    +0.141 C 
BRANCH  24  25
ATOM     25  C   UNL     1      -0.012   1.469   0.080  0.00  0.00    +0.031 A 
ATOM     26  C   UNL     1       0.536   2.227  -0.959  0.00  0.00    +0.051 A 
ATOM     27  C   UNL     1       0.515   3.606  -0.887  0.00  0.00    +0.021 A 
ATOM     28  C   UNL     1      -0.037   4.237   0.213  0.00  0.00    +0.003 A 
ATOM     29  C   UNL     1      -0.577   3.493   1.248  0.00  0.00    +0.021 A 
ATOM     30  C   UNL     1      -0.568   2.114   1.189  0.00  0.00    +0.051 A 
ATOM     31 CL   UNL     1      -1.245   1.183   2.489  0.00  0.00    -0.083 Cl
ATOM     32 CL   UNL     1       1.235   1.438  -2.337  0.00  0.00    -0.083 Cl
ENDBRANCH  24  25
ENDBRANCH  21  23
ENDBRANCH   3  19
TORSDOF 5
