REMARK  Name = ZINC49394615
REMARK  4 active torsions:
REMARK  status: ('A' for Active; 'I' for Inactive)
REMARK    1  A    between atoms: C_5  and  C_6
REMARK    2  A    between atoms: C_6  and  S_7
REMARK    3  A    between atoms: S_7  and  C_8
REMARK    4  A    between atoms: C_8  and  C_9
REMARK                            x       y       z     vdW  Elec       q    Type
REMARK                         _______ _______ _______ _____ _____    ______ ____
ROOT
ATOM      1  C   UNL     1      -3.525  -2.903  -2.882  0.00  0.00    +0.146 A 
ATOM      2  N   UNL     1      -4.474  -2.195  -3.468  0.00  0.00    -0.199 NA
ATOM      3  C   UNL     1      -4.920  -2.544  -4.673  0.00  0.00    +0.217 A 
ATOM      4  N   UNL     1      -4.410  -3.607  -5.285  0.00  0.00    -0.181 NA
ATOM      5  C   UNL     1      -3.456  -4.316  -4.692  0.00  0.00    +0.217 A 
ATOM      6  N   UNL     1      -3.012  -3.958  -3.490  0.00  0.00    -0.199 NA
ATOM      7  N   UNL     1      -2.922  -5.421  -5.325  0.00  0.00    -0.327 N 
ATOM      8  N   UNL     1      -5.911  -1.804  -5.284  0.00  0.00    -0.327 N 
ATOM      9  H   UNL     1      -3.244  -5.680  -6.203  0.00  0.00    +0.145 HD
ATOM     10  H   UNL     1      -2.226  -5.939  -4.891  0.00  0.00    +0.145 HD
ATOM     11  H   UNL     1      -6.284  -1.028  -4.836  0.00  0.00    +0.145 HD
ATOM     12  H   UNL     1      -6.236  -2.059  -6.162  0.00  0.00    +0.145 HD
ENDROOT
BRANCH   1  13
ATOM     13  C   UNL     1      -3.023  -2.503  -1.518  0.00  0.00    +0.145 C 
BRANCH  13  14
ATOM     14  S   UNL     1      -1.638  -1.347  -1.699  0.00  0.00    -0.148 S 
BRANCH  14  15
ATOM     15  C   UNL     1      -1.156  -0.969   0.009  0.00  0.00    +0.112 C 
BRANCH  15  20
ATOM     16  C   UNL     1      -0.016   1.351   0.009  0.00  0.00    +0.013 A 
ATOM     17  C   UNL     1       1.183   2.038   0.002  0.00  0.00    +0.023 A 
ATOM     18  C   UNL     1       2.343   1.335  -0.013  0.00  0.00    +0.055 A 
ATOM     19  S   UNL     1       1.753  -0.350  -0.017  0.00  0.00    -0.086 S 
ATOM     20  C   UNL     1       0.002  -0.004   0.002  0.00  0.00    +0.001 A 
ATOM     21 BR   UNL     1       4.123   1.974  -0.027  0.00  0.00    -0.043 Br
ENDBRANCH  15  20
ENDBRANCH  14  15
ENDBRANCH  13  14
ENDBRANCH   1  13
TORSDOF 4
