REMARK  Name = ZINC38701410
REMARK  12 active torsions:
REMARK  status: ('A' for Active; 'I' for Inactive)
REMARK    1  A    between atoms: C_1  and  C_2
REMARK    2  A    between atoms: C_2  and  O_3
REMARK    3  A    between atoms: O_3  and  C_4
REMARK    4  A    between atoms: C_7  and  C_10
REMARK    5  A    between atoms: C_15  and  O_24
REMARK    6  A    between atoms: C_19  and  N_23
REMARK    7  A    between atoms: C_20  and  C_21
REMARK    8  A    between atoms: O_24  and  C_25
REMARK    9  A    between atoms: C_25  and  C_27
REMARK   10  A    between atoms: C_28  and  C_38
REMARK   11  A    between atoms: C_32  and  C_37
REMARK   12  A    between atoms: C_33  and  C_36
REMARK                            x       y       z     vdW  Elec       q    Type
REMARK                         _______ _______ _______ _____ _____    ______ ____
ROOT
ATOM      1  C   UNL     1      -2.043  -6.124   0.025  0.00  0.00    +0.098 C 
ATOM      2  C   UNL     1      -2.795  -6.524  -1.217  0.00  0.00    +0.008 A 
ATOM      3  C   UNL     1      -2.163  -6.455  -2.446  0.00  0.00    +0.012 A 
ATOM      4  C   UNL     1      -2.837  -6.818  -3.596  0.00  0.00    +0.047 A 
ATOM      5  C   UNL     1      -4.153  -7.252  -3.521  0.00  0.00    +0.136 A 
ATOM      6  C   UNL     1      -4.788  -7.321  -2.292  0.00  0.00    +0.093 A 
ATOM      7  C   UNL     1      -4.109  -6.956  -1.137  0.00  0.00    +0.138 A 
ATOM      8  O   UNL     1      -4.745  -7.030   0.059  0.00  0.00    -0.441 OA
ATOM      9  C   UNL     1      -4.031  -7.064   1.196  0.00  0.00    +0.199 C 
ATOM     10  C   UNL     1      -2.747  -6.648   1.245  0.00  0.00    +0.098 C 
ENDROOT
BRANCH   1  14
ATOM     11  C   UNL     1      -1.822  -1.862   0.237  0.00  0.00    +0.121 A 
ATOM     12  C   UNL     1      -0.659  -2.616   0.177  0.00  0.00    +0.046 A 
ATOM     13  C   UNL     1      -0.733  -3.994   0.108  0.00  0.00    +0.008 A 
ATOM     14  C   UNL     1      -1.965  -4.621   0.100  0.00  0.00    -0.034 A 
ATOM     15  C   UNL     1      -3.126  -3.872   0.160  0.00  0.00    +0.008 A 
ATOM     16  C   UNL     1      -3.057  -2.494   0.234  0.00  0.00    +0.046 A 
BRANCH  11  17
ATOM     17  O   UNL     1      -1.752  -0.506   0.305  0.00  0.00    -0.492 OA
BRANCH  17  19
ATOM     18  C   UNL     1      -0.569   1.599   0.384  0.00  0.00    +0.048 C 
ATOM     19  C   UNL     1      -0.447   0.076   0.303  0.00  0.00    +0.225 C 
ENDBRANCH  17  19
ENDBRANCH  11  17
ENDBRANCH   1  14
BRANCH   9  20
ATOM     20  N   UNL     1      -4.625  -7.533   2.342  0.00  0.00    -0.328 N 
ATOM     21  H   UNL     1      -5.547  -7.834   2.321  0.00  0.00    +0.145 HD
ATOM     22  H   UNL     1      -4.123  -7.563   3.171  0.00  0.00    +0.145 HD
ENDBRANCH   9  20
BRANCH  10  23
ATOM     23  C   UNL     1      -2.042  -6.708   2.490  0.00  0.00    +0.101 C 
ATOM     24  N   UNL     1      -1.482  -6.757   3.477  0.00  0.00    -0.191 NA
ENDBRANCH  10  23
BRANCH   5  25
ATOM     25  O   UNL     1      -4.817  -7.609  -4.652  0.00  0.00    -0.420 OA
BRANCH  25  26
ATOM     26  C   UNL     1      -5.822  -6.815  -5.073  0.00  0.00    +0.380 C 
ATOM     27  O   UNL     1      -6.042  -5.761  -4.508  0.00  0.00    -0.241 OA
BRANCH  26  28
ATOM     28  C   UNL     1      -6.651  -7.223  -6.214  0.00  0.00    +0.216 A 
ATOM     29  C   UNL     1      -7.683  -6.503  -6.728  0.00  0.00    +0.010 A 
ATOM     30  C   UNL     1      -8.209  -7.289  -7.843  0.00  0.00    +0.024 A 
ATOM     31  C   UNL     1      -9.248  -7.106  -8.759  0.00  0.00    +0.012 A 
ATOM     32  C   UNL     1      -9.490  -8.058  -9.708  0.00  0.00    +0.004 A 
ATOM     33  C   UNL     1      -8.711  -9.206  -9.767  0.00  0.00    -0.044 A 
ATOM     34  C   UNL     1      -7.681  -9.406  -8.873  0.00  0.00    -0.005 A 
ATOM     35  C   UNL     1      -7.416  -8.451  -7.898  0.00  0.00    +0.139 A 
ATOM     36  O   UNL     1      -6.499  -8.366  -6.915  0.00  0.00    -0.448 OA
ATOM     37  C   UNL     1      -6.845 -10.657  -8.952  0.00  0.00    +0.048 C 
ATOM     38  C   UNL     1      -8.994 -10.245 -10.822  0.00  0.00    +0.044 C 
ATOM     39  C   UNL     1      -8.184  -5.166  -6.246  0.00  0.00    +0.048 C 
ENDBRANCH  26  28
ENDBRANCH  25  26
ENDBRANCH   5  25
TORSDOF 8
