REMARK  Name = ZINC21327857
REMARK  6 active torsions:
REMARK  status: ('A' for Active; 'I' for Inactive)
REMARK    1  A    between atoms: C_2  and  N_9
REMARK    2  A    between atoms: C_10  and  C_12
REMARK    3  A    between atoms: C_12  and  S_13
REMARK    4  A    between atoms: S_13  and  C_14
REMARK    5  A    between atoms: N_18  and  N_19
REMARK    6  A    between atoms: N_20  and  N_21
REMARK                            x       y       z     vdW  Elec       q    Type
REMARK                         _______ _______ _______ _____ _____    ______ ____
ROOT
ATOM      1  C   UNL     1      -4.129   1.720  -0.344  0.00  0.00    +0.210 A 
ATOM      2  N   UNL     1      -4.178   3.018  -0.166  0.00  0.00    -0.119 NA
ATOM      3  N   UNL     1      -5.522   3.410  -0.202  0.00  0.00    -0.109 NA
ATOM      4  C   UNL     1      -6.251   2.338  -0.392  0.00  0.00    +0.254 A 
ATOM      5  N   UNL     1      -5.409   1.265  -0.485  0.00  0.00    -0.211 N 
ATOM      6  N   UNL     1      -7.636   2.298  -0.483  0.00  0.00    -0.204 N 
ATOM      7  H   UNL     1      -8.150   1.339  -0.645  0.00  0.00    +0.177 HD
ENDROOT
BRANCH   6   8
ATOM      8  N   UNL     1      -8.380   3.480  -0.369  0.00  0.00    -0.189 NA
ATOM      9  C   UNL     1      -9.657   3.443  -0.454  0.00  0.00    +0.037 C 
ATOM     10  C   UNL     1     -10.506   2.211  -0.680  0.00  0.00    +0.052 C 
ATOM     11  C   UNL     1     -11.976   2.679  -0.711  0.00  0.00    +0.006 C 
ATOM     12  C   UNL     1     -11.874   4.175  -1.104  0.00  0.00    +0.006 C 
ATOM     13  C   UNL     1     -10.599   4.630  -0.351  0.00  0.00    +0.052 C 
ENDBRANCH   6   8
BRANCH   5  14
ATOM     14  N   UNL     1      -5.782  -0.034  -0.685  0.00  0.00    -0.294 N 
ATOM     15  H   UNL     1      -6.847  -0.291  -0.785  0.00  0.00    +0.163 HD
ATOM     16  H   UNL     1      -5.018  -0.823  -0.745  0.00  0.00    +0.163 HD
ENDBRANCH   5  14
BRANCH   1  17
ATOM     17  S   UNL     1      -2.669   0.735  -0.387  0.00  0.00    -0.075 S 
BRANCH  17  18
ATOM     18  C   UNL     1      -1.326   1.929  -0.142  0.00  0.00    +0.173 C 
BRANCH  18  20
ATOM     19  N   UNL     1       1.143   1.898   0.001  0.00  0.00    -0.285 N 
ATOM     20  C   UNL     1      -0.003   1.208  -0.158  0.00  0.00    +0.227 C 
ATOM     21  O   UNL     1       0.031   0.006  -0.318  0.00  0.00    -0.275 OA
ATOM     22  H   UNL     1       1.120   2.997   0.060  0.00  0.00    +0.155 HD
BRANCH  19  24
ATOM     23  C   UNL     1       3.520   1.795  -0.417  0.00  0.00    +0.043 A 
ATOM     24  C   UNL     1       2.363   1.219   0.092  0.00  0.00    +0.036 A 
ATOM     25  C   UNL     1       2.420  -0.030   0.696  0.00  0.00    +0.043 A 
ATOM     26  C   UNL     1       3.626  -0.702   0.779  0.00  0.00    +0.044 A 
ATOM     27  C   UNL     1       4.777  -0.126   0.271  0.00  0.00    +0.040 A 
ATOM     28  C   UNL     1       4.724   1.121  -0.326  0.00  0.00    +0.044 A 
ATOM     29 CL   UNL     1       6.170   1.841  -0.963  0.00  0.00    -0.083 Cl
ATOM     30 CL   UNL     1       3.697  -2.266   1.529  0.00  0.00    -0.083 Cl
ENDBRANCH  19  24
ENDBRANCH  18  20
ENDBRANCH  17  18
ENDBRANCH   1  17
TORSDOF 6
