REMARK  Name = ZINC39488285
REMARK  11 active torsions:
REMARK  status: ('A' for Active; 'I' for Inactive)
REMARK    1  A    between atoms: C_1  and  C_2
REMARK    2  A    between atoms: C_2  and  C_3
REMARK    3  A    between atoms: C_2  and  S_4
REMARK    4  A    between atoms: S_4  and  N_7
REMARK    5  A    between atoms: C_10  and  C_13
REMARK    6  A    between atoms: C_10  and  C_29
REMARK    7  A    between atoms: C_13  and  N_14
REMARK    8  A    between atoms: N_17  and  O_28
REMARK    9  A    between atoms: C_19  and  C_20
REMARK   10  A    between atoms: C_19  and  C_21
REMARK   11  A    between atoms: C_26  and  O_27
REMARK                            x       y       z     vdW  Elec       q    Type
REMARK                         _______ _______ _______ _____ _____    ______ ____
ROOT
ATOM      1  N   UNL     1       2.395  -0.457  -0.580  0.00  0.00    -0.181 NA
ATOM      2  C   UNL     1       2.122   0.798  -1.294  0.00  0.00    +0.109 C 
ATOM      3  C   UNL     1       2.453   1.974  -0.368  0.00  0.00    +0.026 C 
ATOM      4  C   UNL     1       3.892   1.835   0.131  0.00  0.00    -0.008 C 
ATOM      5  C   UNL     1       4.034   0.537   0.930  0.00  0.00    +0.026 C 
ATOM      6  C   UNL     1       3.720  -0.652   0.024  0.00  0.00    +0.109 C 
ENDROOT
BRANCH   4   7
ATOM      7  C   UNL     1       4.237   3.025   1.028  0.00  0.00    -0.003 C 
ATOM      8  C   UNL     1       5.573   2.766   1.728  0.00  0.00    +0.004 C 
ATOM      9  C   UNL     1       5.918   3.957   2.626  0.00  0.00    +0.000 C 
ATOM     10  C   UNL     1       4.819   4.140   3.675  0.00  0.00    +0.000 C 
ATOM     11  C   UNL     1       3.484   4.399   2.975  0.00  0.00    +0.000 C 
ATOM     12  C   UNL     1       3.139   3.209   2.078  0.00  0.00    +0.004 C 
ENDBRANCH   4   7
BRANCH   1  13
ATOM     13  S   UNL     1       1.229  -1.626  -0.454  0.00  0.00    +0.034 S 
ATOM     14  O   UNL     1       0.003  -0.940  -0.671  0.00  0.00    -0.158 OA
ATOM     15  O   UNL     1       1.491  -2.266   0.788  0.00  0.00    -0.158 OA
BRANCH  13  17
ATOM     16  C   UNL     1       2.935  -3.407  -1.636  0.00  0.00    +0.033 C 
ATOM     17  C   UNL     1       1.560  -2.764  -1.826  0.00  0.00    +0.142 C 
ATOM     18  C   UNL     1       0.487  -3.855  -1.854  0.00  0.00    +0.033 C 
ENDBRANCH  13  17
ENDBRANCH   1  13
BRANCH   4  19
ATOM     19  C   UNL     1       4.846   1.805  -1.064  0.00  0.00    +0.117 C 
BRANCH  19  20
ATOM     20  N   UNL     1       4.910   3.136  -1.672  0.00  0.00    -0.272 N 
ATOM     21  C   UNL     1       5.639   4.163  -1.218  0.00  0.00    +0.328 C 
ATOM     22  O   UNL     1       6.341   4.090  -0.228  0.00  0.00    -0.250 OA
ATOM     23  N   UNL     1       5.526   5.277  -1.952  0.00  0.00    -0.165 N 
ATOM     24  C   UNL     1       4.605   5.027  -3.071  0.00  0.00    +0.172 C 
ATOM     25  C   UNL     1       4.187   3.555  -2.882  0.00  0.00    +0.083 C 
ATOM     26  C   UNL     1       2.676   3.453  -2.668  0.00  0.00    +0.039 C 
BRANCH  25  27
ATOM     27  C   UNL     1       4.612   2.726  -4.067  0.00  0.00    +0.019 A 
ATOM     28  C   UNL     1       5.515   1.694  -3.899  0.00  0.00    +0.009 A 
ATOM     29  C   UNL     1       5.906   0.933  -4.985  0.00  0.00    +0.001 A 
ATOM     30  C   UNL     1       5.395   1.202  -6.241  0.00  0.00    +0.004 A 
ATOM     31  C   UNL     1       4.492   2.233  -6.414  0.00  0.00    +0.046 A 
ATOM     32  C   UNL     1       4.094   2.995  -5.325  0.00  0.00    +0.122 A 
BRANCH  32  33
ATOM     33  O   UNL     1       3.201   4.006  -5.491  0.00  0.00    -0.506 OA
ATOM     34  H   UNL     1       3.607   4.860  -5.693  0.00  0.00    +0.292 HD
ENDBRANCH  32  33
ENDBRANCH  25  27
BRANCH  23  35
ATOM     35  O   UNL     1       6.187   6.502  -1.693  0.00  0.00    -0.291 OA
ATOM     36  H   UNL     1       6.757   6.484  -0.911  0.00  0.00    +0.242 HD
ENDBRANCH  23  35
ENDBRANCH  19  20
ENDBRANCH   4  19
TORSDOF 8
