REMARK  Name = ZINC64679469
REMARK  7 active torsions:
REMARK  status: ('A' for Active; 'I' for Inactive)
REMARK    1  A    between atoms: C_1  and  C_2
REMARK    2  A    between atoms: C_4  and  C_14
REMARK    3  A    between atoms: C_17  and  O_22
REMARK    4  A    between atoms: C_18  and  O_20
REMARK    5  A    between atoms: O_20  and  C_21
REMARK    6  A    between atoms: O_22  and  C_23
REMARK    7  A    between atoms: C_23  and  C_24
REMARK                            x       y       z     vdW  Elec       q    Type
REMARK                         _______ _______ _______ _____ _____    ______ ____
ROOT
ATOM      1  C   UNL     1      -2.919   1.000   0.194  0.00  0.00    -0.036 A 
ATOM      2  C   UNL     1      -2.167   1.737   1.089  0.00  0.00    +0.008 A 
ATOM      3  C   UNL     1      -2.395   3.093   1.236  0.00  0.00    +0.050 A 
ATOM      4  C   UNL     1      -3.379   3.715   0.486  0.00  0.00    +0.162 A 
ATOM      5  C   UNL     1      -4.136   2.973  -0.416  0.00  0.00    +0.162 A 
ATOM      6  C   UNL     1      -3.899   1.616  -0.562  0.00  0.00    +0.053 A 
ENDROOT
BRANCH   1  10
ATOM      7  C   UNL     1      -5.168   0.492   1.807  0.00  0.00    +0.067 C 
ATOM      8  C   UNL     1      -4.807  -0.919   1.418  0.00  0.00    +0.064 C 
ATOM      9  C   UNL     1      -3.724  -1.264   0.761  0.00  0.00    +0.004 C 
ATOM     10  C   UNL     1      -2.666  -0.478   0.037  0.00  0.00    +0.059 C 
ATOM     11  C   UNL     1      -2.776  -0.882  -1.442  0.00  0.00    +0.108 C 
ATOM     12  C   UNL     1      -3.119  -2.328  -1.602  0.00  0.00    +0.216 C 
ATOM     13  O   UNL     1      -2.886  -2.812  -2.689  0.00  0.00    -0.276 OA
ATOM     14  N   UNL     1      -3.648  -3.151  -0.695  0.00  0.00    -0.289 N 
ATOM     15  C   UNL     1      -3.765  -2.786   0.710  0.00  0.00    +0.243 C 
ATOM     16  N   UNL     1      -5.066  -3.086   1.305  0.00  0.00    -0.160 NA
ATOM     17  N   UNL     1      -5.553  -2.018   1.702  0.00  0.00    -0.157 NA
ATOM     18  H   UNL     1      -3.966  -4.022  -0.981  0.00  0.00    +0.151 HD
ENDBRANCH   1  10
BRANCH   5  19
ATOM     19  O   UNL     1      -5.103   3.579  -1.155  0.00  0.00    -0.491 OA
ATOM     20  C   UNL     1      -5.841   2.755  -2.060  0.00  0.00    +0.277 C 
ENDBRANCH   5  19
BRANCH   4  21
ATOM     21  O   UNL     1      -3.605   5.048   0.630  0.00  0.00    -0.484 OA
BRANCH  21  22
ATOM     22  C   UNL     1      -2.790   5.746   1.574  0.00  0.00    +0.264 C 
BRANCH  22  23
ATOM     23  C   UNL     1      -3.182   7.201   1.596  0.00  0.00    -0.010 A 
ATOM     24  C   UNL     1      -2.564   8.096   0.742  0.00  0.00    +0.008 A 
ATOM     25  C   UNL     1      -2.923   9.431   0.762  0.00  0.00    +0.020 A 
ATOM     26  C   UNL     1      -3.900   9.871   1.637  0.00  0.00    +0.041 A 
ATOM     27  C   UNL     1      -4.517   8.975   2.492  0.00  0.00    +0.020 A 
ATOM     28  C   UNL     1      -4.162   7.640   2.467  0.00  0.00    +0.008 A 
ATOM     29 CL   UNL     1      -4.350  11.548   1.664  0.00  0.00    -0.084 Cl
ENDBRANCH  22  23
ENDBRANCH  21  22
ENDBRANCH   4  21
TORSDOF 5
