REMARK  Name = ZINC06063942
REMARK  5 active torsions:
REMARK  status: ('A' for Active; 'I' for Inactive)
REMARK    1  A    between atoms: C_3  and  N_9
REMARK    2  A    between atoms: C_10  and  C_12
REMARK    3  A    between atoms: C_12  and  O_13
REMARK    4  A    between atoms: O_13  and  C_14
REMARK    5  A    between atoms: C_14  and  C_16
REMARK                            x       y       z     vdW  Elec       q    Type
REMARK                         _______ _______ _______ _____ _____    ______ ____
ROOT
ATOM      1  C   UNL     1      -6.493   0.822   1.000  0.00  0.00    +0.328 C 
ENDROOT
BRANCH   1   3
ATOM      2  N   UNL     1      -8.540   0.872   2.388  0.00  0.00    -0.280 N 
ATOM      3  C   UNL     1      -7.259   1.259   2.222  0.00  0.00    +0.255 C 
ATOM      4  O   UNL     1      -6.724   1.959   3.056  0.00  0.00    -0.272 OA
ATOM      5  H   UNL     1      -8.988   0.367   1.692  0.00  0.00    +0.155 HD
BRANCH   2   8
ATOM      6  C   UNL     1      -9.645   2.726   5.367  0.00  0.00    +0.017 A 
ATOM      7  C   UNL     1      -8.969   2.405   4.205  0.00  0.00    +0.027 A 
ATOM      8  C   UNL     1      -9.223   1.200   3.567  0.00  0.00    +0.069 A 
ATOM      9  C   UNL     1     -10.161   0.319   4.096  0.00  0.00    +0.146 A 
ATOM     10  C   UNL     1     -10.830   0.644   5.261  0.00  0.00    +0.055 A 
ATOM     11  C   UNL     1     -10.573   1.847   5.895  0.00  0.00    +0.021 A 
ATOM     12 BR   UNL     1     -11.495   2.291   7.486  0.00  0.00    -0.050 Br
ATOM     13  F   UNL     1     -10.415  -0.853   3.474  0.00  0.00    -0.204 F 
ENDBRANCH   2   8
ENDBRANCH   1   3
BRANCH   1  14
ATOM     14  O   UNL     1      -5.147   1.365   1.054  0.00  0.00    -0.455 OA
BRANCH  14  15
ATOM     15  C   UNL     1      -4.329   1.066   0.032  0.00  0.00    +0.314 C 
ATOM     16  O   UNL     1      -4.724   0.375  -0.876  0.00  0.00    -0.250 OA
BRANCH  15  17
ATOM     17  C   UNL     1      -2.917   1.594   0.019  0.00  0.00    +0.069 C 
ATOM     18  C   UNL     1      -2.204   1.111  -1.246  0.00  0.00    +0.021 C 
ATOM     19  C   UNL     1      -0.771   1.647  -1.260  0.00  0.00    -0.009 C 
ATOM     20  C   UNL     1      -0.024   1.136  -0.026  0.00  0.00    +0.007 C 
ATOM     21  C   UNL     1      -0.737   1.619   1.238  0.00  0.00    -0.009 C 
ATOM     22  C   UNL     1      -2.170   1.083   1.252  0.00  0.00    +0.021 C 
ATOM     23  C   UNL     1      -0.764   3.148   1.256  0.00  0.00    +0.007 C 
ATOM     24  C   UNL     1      -1.511   3.659   0.023  0.00  0.00    -0.009 C 
ATOM     25  C   UNL     1      -0.798   3.176  -1.242  0.00  0.00    +0.007 C 
ATOM     26  C   UNL     1      -2.944   3.124   0.036  0.00  0.00    +0.021 C 
ENDBRANCH  15  17
ENDBRANCH  14  15
ENDBRANCH   1  14
TORSDOF 5
