REMARK  Name = ZINC56939983
REMARK  8 active torsions:
REMARK  status: ('A' for Active; 'I' for Inactive)
REMARK    1  A    between atoms: C_1  and  C_2
REMARK    2  A    between atoms: N_12  and  C_13
REMARK    3  A    between atoms: C_13  and  C_15
REMARK    4  A    between atoms: N_17  and  C_18
REMARK    5  A    between atoms: C_18  and  C_19
REMARK    6  A    between atoms: C_19  and  C_21
REMARK    7  A    between atoms: C_19  and  N_32
REMARK    8  A    between atoms: N_30  and  C_31
REMARK                            x       y       z     vdW  Elec       q    Type
REMARK                         _______ _______ _______ _____ _____    ______ ____
ROOT
ATOM      1  C   UNL     1      -0.829  -5.150  -6.916  0.00  0.00    +0.301 C 
ATOM      2  O   UNL     1       0.033  -5.469  -6.122  0.00  0.00    -0.265 OA
ATOM      3  N   UNL     1      -0.658  -4.064  -7.696  0.00  0.00    -0.309 N 
ATOM      4  H   UNL     1      -1.346  -3.810  -8.330  0.00  0.00    +0.149 HD
ENDROOT
BRANCH   1   5
ATOM      5  C   UNL     1      -2.077  -5.959  -7.027  0.00  0.00    +0.323 C 
ATOM      6  O   UNL     1      -2.941  -5.639  -7.823  0.00  0.00    -0.263 OA
BRANCH   5  18
ATOM      7  C   UNL     1      -2.629  -9.760 -10.257  0.00  0.00    +0.063 C 
ATOM      8  C   UNL     1      -2.650  -9.619  -8.757  0.00  0.00    +0.015 A 
ATOM      9  C   UNL     1      -2.439  -8.396  -8.216  0.00  0.00    +0.046 A 
ATOM     10  C   UNL     1      -2.453  -8.230  -6.815  0.00  0.00    +0.068 A 
ATOM     11  C   UNL     1      -2.701  -9.421  -5.988  0.00  0.00    +0.021 A 
ATOM     12  C   UNL     1      -2.732  -9.348  -4.594  0.00  0.00    +0.012 A 
ATOM     13  C   UNL     1      -2.967 -10.478  -3.863  0.00  0.00    +0.001 A 
ATOM     14  C   UNL     1      -3.174 -11.697  -4.494  0.00  0.00    +0.002 A 
ATOM     15  C   UNL     1      -3.148 -11.792  -5.868  0.00  0.00    +0.026 A 
ATOM     16  C   UNL     1      -2.911 -10.654  -6.634  0.00  0.00    +0.048 A 
ATOM     17  N   UNL     1      -2.884 -10.712  -8.007  0.00  0.00    -0.358 N 
ATOM     18  N   UNL     1      -2.245  -7.029  -6.257  0.00  0.00    -0.172 NA
ATOM     19  H   UNL     1      -3.033 -11.564  -8.447  0.00  0.00    +0.166 HD
ENDBRANCH   5  18
ENDBRANCH   1   5
BRANCH   3  20
ATOM     20  C   UNL     1       0.568  -3.269  -7.587  0.00  0.00    +0.094 C 
BRANCH  20  21
ATOM     21  C   UNL     1       0.467  -2.049  -8.504  0.00  0.00    -0.020 C 
BRANCH  21  22
ATOM     22  C   UNL     1       0.424  -2.502  -9.941  0.00  0.00    -0.059 A 
ATOM     23  C   UNL     1       1.595  -2.857 -10.588  0.00  0.00    +0.004 A 
ATOM     24  C   UNL     1       1.555  -3.270 -11.904  0.00  0.00    +0.023 A 
ATOM     25  C   UNL     1       0.340  -3.332 -12.578  0.00  0.00    +0.033 A 
ATOM     26  C   UNL     1      -0.832  -2.979 -11.928  0.00  0.00    -0.026 A 
ATOM     27  C   UNL     1      -0.784  -2.568 -10.607  0.00  0.00    +0.007 A 
ATOM     28  C   UNL     1      -2.167  -3.044 -12.623  0.00  0.00    +0.038 C 
ATOM     29  C   UNL     1      -1.982  -3.022 -14.140  0.00  0.00    +0.024 C 
ATOM     30  C   UNL     1      -0.963  -4.101 -14.531  0.00  0.00    +0.105 C 
ATOM     31  N   UNL     1       0.323  -3.749 -13.914  0.00  0.00    -0.333 N 
ATOM     32  C   UNL     1       1.566  -3.833 -14.684  0.00  0.00    +0.129 C 
ENDBRANCH  21  22
BRANCH  21  33
ATOM     33  N   UNL     1       1.637  -1.184  -8.299  0.00  0.00    +0.385 N 
ATOM     34  C   UNL     1       1.580  -0.018  -9.217  0.00  0.00    -0.078 C 
ATOM     35  C   UNL     1       2.493   1.024  -8.524  0.00  0.00    -0.020 C 
ATOM     36  C   UNL     1       2.188   0.808  -7.024  0.00  0.00    -0.020 C 
ATOM     37  C   UNL     1       1.621  -0.621  -6.931  0.00  0.00    -0.078 C 
ATOM     38  H   UNL     1       2.487  -1.706  -8.450  0.00  0.00    -0.081 HD
ENDBRANCH  21  33
ENDBRANCH  20  21
ENDBRANCH   3  20
TORSDOF 6
