REMARK  Name = ZINC12465747
REMARK  5 active torsions:
REMARK  status: ('A' for Active; 'I' for Inactive)
REMARK    1  A    between atoms: C_6  and  S_7
REMARK    2  A    between atoms: S_7  and  N_10
REMARK    3  A    between atoms: C_15  and  C_17
REMARK    4  A    between atoms: N_22  and  S_23
REMARK    5  A    between atoms: S_23  and  C_26
REMARK                            x       y       z     vdW  Elec       q    Type
REMARK                         _______ _______ _______ _____ _____    ______ ____
ROOT
ATOM      1  C   UNL     1       2.376  -0.707   1.173  0.00  0.00    +0.030 A 
ATOM      2  C   UNL     1       3.691  -1.093   1.186  0.00  0.00    +0.031 A 
ATOM      3  C   UNL     1       4.396  -1.298  -0.022  0.00  0.00    +0.080 A 
ATOM      4  C   UNL     1       3.667  -1.081  -1.214  0.00  0.00    +0.043 A 
ATOM      5  C   UNL     1       2.349  -0.699  -1.218  0.00  0.00    +0.045 A 
ATOM      6  C   UNL     1       1.692  -0.502  -0.017  0.00  0.00    +0.106 A 
ATOM      7  S   UNL     1       4.878  -1.432  -2.466  0.00  0.00    -0.052 S 
ATOM      8  C   UNL     1       6.229  -1.832  -1.367  0.00  0.00    +0.165 A 
ATOM      9  N   UNL     1       5.682  -1.675  -0.183  0.00  0.00    -0.225 NA
ATOM     10  N   UNL     1       7.523  -2.212  -1.683  0.00  0.00    -0.263 N 
ATOM     11  C   UNL     1       8.407  -2.474  -0.700  0.00  0.00    +0.238 C 
ATOM     12  O   UNL     1       8.070  -2.378   0.461  0.00  0.00    -0.274 OA
ATOM     13  H   UNL     1       7.793  -2.289  -2.611  0.00  0.00    +0.157 HD
ENDROOT
BRANCH  11  14
ATOM     14  C   UNL     1       9.815  -2.887  -1.043  0.00  0.00    +0.166 C 
ATOM     15  C   UNL     1      10.514  -1.762  -1.835  0.00  0.00    +0.031 C 
ATOM     16  C   UNL     1      11.961  -1.790  -1.277  0.00  0.00    +0.019 C 
ATOM     17  C   UNL     1      11.713  -2.146   0.211  0.00  0.00    +0.110 C 
ATOM     18  N   UNL     1      10.589  -3.099   0.189  0.00  0.00    -0.164 NA
BRANCH  18  19
ATOM     19  S   UNL     1      10.252  -4.221   1.359  0.00  0.00    +0.068 S 
ATOM     20  O   UNL     1      10.842  -3.744   2.561  0.00  0.00    -0.152 OA
ATOM     21  O   UNL     1       8.866  -4.514   1.254  0.00  0.00    -0.152 OA
BRANCH  19  22
ATOM     22  C   UNL     1      11.112  -5.697   0.927  0.00  0.00    +0.144 A 
ATOM     23  C   UNL     1      12.364  -6.087   1.270  0.00  0.00    +0.038 A 
ATOM     24  C   UNL     1      12.838  -7.302   0.811  0.00  0.00    +0.030 A 
ATOM     25  C   UNL     1      12.035  -8.068   0.030  0.00  0.00    +0.080 A 
ATOM     26  S   UNL     1      10.557  -7.071  -0.069  0.00  0.00    -0.057 S 
ATOM     27 CL   UNL     1      12.358  -9.617  -0.682  0.00  0.00    -0.076 Cl
ENDBRANCH  19  22
ENDBRANCH  18  19
ENDBRANCH  11  14
BRANCH   6  28
ATOM     28  S   UNL     1       0.002  -0.004   0.002  0.00  0.00    +0.056 S 
ATOM     29  O   UNL     1      -0.531  -0.424   1.250  0.00  0.00    -0.153 OA
ATOM     30  O   UNL     1      -0.555  -0.411  -1.240  0.00  0.00    -0.153 OA
BRANCH  28  31
ATOM     31  N   UNL     1      -0.020   1.652   0.011  0.00  0.00    -0.204 NA
ATOM     32  H   UNL     1       0.813   2.148   0.006  0.00  0.00    +0.144 HD
ATOM     33  H   UNL     1      -0.867   2.125   0.018  0.00  0.00    +0.144 HD
ENDBRANCH  28  31
ENDBRANCH   6  28
TORSDOF 5
