REMARK  Name = ZINC64541224
REMARK  10 active torsions:
REMARK  status: ('A' for Active; 'I' for Inactive)
REMARK    1  A    between atoms: C_1  and  C_2
REMARK    2  A    between atoms: C_2  and  C_4
REMARK    3  A    between atoms: C_2  and  C_23
REMARK    4  A    between atoms: C_10  and  C_12
REMARK    5  A    between atoms: N_25  and  C_26
REMARK    6  A    between atoms: C_26  and  C_27
REMARK    7  A    between atoms: C_27  and  N_28
REMARK    8  A    between atoms: N_28  and  C_29
REMARK    9  A    between atoms: N_28  and  C_30
REMARK   10  A    between atoms: C_30  and  C_31
REMARK                            x       y       z     vdW  Elec       q    Type
REMARK                         _______ _______ _______ _____ _____    ______ ____
ROOT
ATOM      1  C   UNL     1       0.742  -0.511   1.242  0.00  0.00    +0.004 C 
ATOM      2  C   UNL     1       2.177   0.020   1.231  0.00  0.00    +0.023 C 
ATOM      3  C   UNL     1       2.905  -0.461   2.491  0.00  0.00    +0.108 C 
ATOM      4  N   UNL     1       2.804  -1.924   2.566  0.00  0.00    -0.300 N 
ATOM      5  C   UNL     1       1.474  -2.545   2.493  0.00  0.00    +0.108 C 
ATOM      6  C   UNL     1       0.763  -2.041   1.233  0.00  0.00    +0.023 C 
ATOM      7  C   UNL     1       3.909  -2.683   2.698  0.00  0.00    +0.242 C 
ATOM      8  O   UNL     1       5.001  -2.159   2.757  0.00  0.00    -0.273 OA
ENDROOT
BRANCH   7   9
ATOM      9  C   UNL     1       3.789  -4.184   2.773  0.00  0.00    +0.190 C 
ATOM     10  C   UNL     1       3.196  -4.724   1.491  0.00  0.00    +0.016 C 
ATOM     11  C   UNL     1       4.129  -5.551   0.966  0.00  0.00    -0.002 A 
ATOM     12  C   UNL     1       4.158  -6.370  -0.252  0.00  0.00    +0.029 A 
ATOM     13  C   UNL     1       5.259  -7.111  -0.517  0.00  0.00    +0.042 A 
ATOM     14  C   UNL     1       6.369  -7.117   0.341  0.00  0.00    +0.022 A 
ATOM     15  C   UNL     1       6.415  -6.391   1.478  0.00  0.00    +0.027 A 
ATOM     16  C   UNL     1       5.312  -5.574   1.854  0.00  0.00    +0.043 A 
ATOM     17  N   UNL     1       5.119  -4.792   2.890  0.00  0.00    -0.370 N 
ATOM     18 CL   UNL     1       5.298  -8.082  -1.956  0.00  0.00    -0.084 Cl
ATOM     19  H   UNL     1       5.749  -4.641   3.613  0.00  0.00    +0.161 HD
ENDBRANCH   7   9
BRANCH   1  21
ATOM     20  C   UNL     1      -0.019   1.526   0.010  0.00  0.00    +0.017 C 
ATOM     21  C   UNL     1       0.002  -0.004   0.002  0.00  0.00    +0.075 C 
BRANCH  21  22
ATOM     22  C   UNL     1      -1.412  -0.526   0.013  0.00  0.00    +0.216 C 
ATOM     23  O   UNL     1      -1.790  -1.233   0.922  0.00  0.00    -0.276 OA
ATOM     24  N   UNL     1      -2.256  -0.206  -0.988  0.00  0.00    -0.317 N 
ATOM     25  H   UNL     1      -1.953   0.360  -1.716  0.00  0.00    +0.149 HD
BRANCH  24  26
ATOM     26  C   UNL     1      -3.630  -0.713  -0.978  0.00  0.00    +0.085 C 
BRANCH  26  27
ATOM     27  C   UNL     1      -4.370  -0.206  -2.217  0.00  0.00    -0.060 C 
BRANCH  27  28
ATOM     28  N   UNL     1      -5.748  -0.715  -2.207  0.00  0.00    +0.382 N 
ATOM     29  C   UNL     1      -5.731  -2.178  -2.336  0.00  0.00    -0.096 C 
ATOM     30  H   UNL     1      -6.194  -0.459  -1.339  0.00  0.00    -0.082 HD
BRANCH  28  31
ATOM     31  C   UNL     1      -6.493  -0.133  -3.331  0.00  0.00    -0.043 C 
BRANCH  31  32
ATOM     32  C   UNL     1      -7.937  -0.557  -3.250  0.00  0.00    -0.064 A 
ATOM     33  C   UNL     1      -8.352  -1.720  -3.872  0.00  0.00    +0.002 A 
ATOM     34  C   UNL     1      -9.676  -2.109  -3.797  0.00  0.00    +0.000 A 
ATOM     35  C   UNL     1     -10.586  -1.335  -3.101  0.00  0.00    +0.000 A 
ATOM     36  C   UNL     1     -10.171  -0.172  -2.479  0.00  0.00    +0.000 A 
ATOM     37  C   UNL     1      -8.846   0.214  -2.550  0.00  0.00    +0.002 A 
ENDBRANCH  31  32
ENDBRANCH  28  31
ENDBRANCH  27  28
ENDBRANCH  26  27
ENDBRANCH  24  26
ENDBRANCH  21  22
ENDBRANCH   1  21
TORSDOF 8
