REMARK  Name = ZINC04382914
REMARK  14 active torsions:
REMARK  status: ('A' for Active; 'I' for Inactive)
REMARK    1  A    between atoms: C_1  and  C_2
REMARK    2  A    between atoms: C_9  and  C_20
REMARK    3  A    between atoms: C_10  and  N_11
REMARK    4  A    between atoms: N_11  and  C_12
REMARK    5  A    between atoms: C_12  and  C_13
REMARK    6  A    between atoms: C_12  and  C_14
REMARK    7  A    between atoms: C_12  and  C_15
REMARK    8  A    between atoms: C_15  and  C_16
REMARK    9  A    between atoms: C_16  and  C_17
REMARK   10  A    between atoms: C_16  and  C_18
REMARK   11  A    between atoms: C_16  and  C_19
REMARK   12  A    between atoms: C_23  and  O_26
REMARK   13  A    between atoms: O_26  and  S_27
REMARK   14  A    between atoms: S_27  and  C_30
REMARK                            x       y       z     vdW  Elec       q    Type
REMARK                         _______ _______ _______ _____ _____    ______ ____
ROOT
ATOM      1  C   UNL     1      -0.921   1.285  -4.513  0.00  0.00    +0.044 C 
ATOM      2  C   UNL     1      -0.632  -0.004  -3.787  0.00  0.00    -0.046 A 
ATOM      3  C   UNL     1      -1.160  -1.216  -4.266  0.00  0.00    +0.021 A 
ATOM      4  C   UNL     1      -0.905  -2.372  -3.621  0.00  0.00    +0.094 A 
ATOM      5  N   UNL     1      -0.130  -2.383  -2.492  0.00  0.00    -0.289 N 
ATOM      6  C   UNL     1       0.401  -1.212  -2.001  0.00  0.00    +0.117 A 
ATOM      7  C   UNL     1       0.144   0.002  -2.671  0.00  0.00    +0.048 A 
ATOM      8  N   UNL     1       1.103  -1.492  -0.914  0.00  0.00    -0.338 N 
ATOM      9  C   UNL     1       1.048  -2.815  -0.679  0.00  0.00    +0.087 A 
ATOM     10  C   UNL     1       0.275  -3.393  -1.664  0.00  0.00    +0.129 A 
ATOM     11  H   UNL     1       1.581  -0.844  -0.373  0.00  0.00    +0.167 HD
ENDROOT
BRANCH   9  12
ATOM     12  C   UNL     1       1.704  -3.528   0.443  0.00  0.00    +0.002 A 
ATOM     13  C   UNL     1       2.367  -4.733   0.214  0.00  0.00    +0.014 A 
ATOM     14  C   UNL     1       2.977  -5.393   1.260  0.00  0.00    +0.049 A 
ATOM     15  C   UNL     1       2.931  -4.859   2.541  0.00  0.00    +0.156 A 
ATOM     16  C   UNL     1       2.272  -3.659   2.773  0.00  0.00    +0.049 A 
ATOM     17  C   UNL     1       1.665  -2.991   1.730  0.00  0.00    +0.014 A 
BRANCH  15  18
ATOM     18  O   UNL     1       3.533  -5.512   3.569  0.00  0.00    -0.346 OA
BRANCH  18  19
ATOM     19  S   UNL     1       4.986  -5.114   3.790  0.00  0.00    +0.118 S 
ATOM     20  O   UNL     1       5.489  -6.075   4.708  0.00  0.00    -0.137 OA
ATOM     21  O   UNL     1       5.534  -5.003   2.483  0.00  0.00    -0.137 OA
ATOM     22  C   UNL     1       4.908  -3.481   4.575  0.00  0.00    +0.242 C 
ENDBRANCH  18  19
ENDBRANCH  15  18
ENDBRANCH   9  12
BRANCH  10  23
ATOM     23  N   UNL     1      -0.034  -4.748  -1.791  0.00  0.00    -0.323 N 
ATOM     24  H   UNL     1       0.188  -5.365  -1.076  0.00  0.00    +0.148 HD
BRANCH  23  25
ATOM     25  C   UNL     1      -0.695  -5.238  -3.003  0.00  0.00    +0.028 C 
ATOM     26  C   UNL     1      -2.107  -4.655  -3.085  0.00  0.00    +0.031 C 
ATOM     27  C   UNL     1       0.107  -4.806  -4.231  0.00  0.00    +0.031 C 
BRANCH  25  28
ATOM     28  C   UNL     1      -0.776  -6.765  -2.958  0.00  0.00    +0.031 C 
BRANCH  28  29
ATOM     29  C   UNL     1       0.514  -7.327  -2.357  0.00  0.00    -0.036 C 
ATOM     30  C   UNL     1       0.335  -7.518  -0.850  0.00  0.00    +0.010 C 
ATOM     31  C   UNL     1       0.835  -8.674  -3.007  0.00  0.00    +0.010 C 
ATOM     32  C   UNL     1       1.663  -6.350  -2.614  0.00  0.00    +0.010 C 
ENDBRANCH  28  29
ENDBRANCH  25  28
ENDBRANCH  23  25
ENDBRANCH  10  23
TORSDOF 7
