REMARK  Name = ZINC44232908
REMARK  3 active torsions:
REMARK  status: ('A' for Active; 'I' for Inactive)
REMARK    1  A    between atoms: C_9  and  O_11
REMARK    2  A    between atoms: O_11  and  C_12
REMARK    3  A    between atoms: C_20  and  O_22
REMARK                            x       y       z     vdW  Elec       q    Type
REMARK                         _______ _______ _______ _____ _____    ______ ____
ROOT
ATOM      1  O   UNL     1       1.181  -2.050  -0.021  0.00  0.00    -0.484 OA
ENDROOT
BRANCH   1  10
ATOM      2  C   UNL     1       0.008   1.386   0.250  0.00  0.00    +0.004 A 
ATOM      3  C   UNL     1       1.145   2.104   0.033  0.00  0.00    +0.010 A 
ATOM      4  C   UNL     1       2.354   1.435  -0.214  0.00  0.00    +0.004 A 
ATOM      5  C   UNL     1       3.550   2.142  -0.442  0.00  0.00    +0.011 A 
ATOM      6  C   UNL     1       4.688   1.425  -0.675  0.00  0.00    +0.020 A 
ATOM      7  C   UNL     1       4.644   0.032  -0.682  0.00  0.00    +0.111 A 
ATOM      8  N   UNL     1       3.528  -0.623  -0.469  0.00  0.00    -0.251 NA
ATOM      9  C   UNL     1       2.380   0.018  -0.235  0.00  0.00    +0.112 A 
ATOM     10  C   UNL     1       1.183  -0.692  -0.006  0.00  0.00    +0.147 A 
ATOM     11  C   UNL     1       0.026  -0.006   0.231  0.00  0.00    +0.048 A 
ENDBRANCH   1  10
BRANCH   1  12
ATOM     12  C   UNL     1      -0.087  -2.699   0.098  0.00  0.00    +0.202 C 
ATOM     13  C   UNL     1      -0.457  -2.826   1.577  0.00  0.00    +0.047 C 
ATOM     14  C   UNL     1      -1.949  -3.143   1.703  0.00  0.00    +0.004 C 
ATOM     15  C   UNL     1      -2.190  -4.612   1.349  0.00  0.00    +0.000 C 
ATOM     16  C   UNL     1      -2.998  -4.699   0.054  0.00  0.00    +0.000 C 
ATOM     17  C   UNL     1      -2.438  -3.705  -0.965  0.00  0.00    +0.003 C 
ATOM     18  C   UNL     1      -1.136  -4.255  -1.551  0.00  0.00    +0.035 C 
ATOM     19  C   UNL     1      -0.008  -4.091  -0.530  0.00  0.00    +0.155 C 
BRANCH  19  20
ATOM     20  O   UNL     1       1.253  -4.248  -1.184  0.00  0.00    -0.388 OA
ATOM     21  H   UNL     1       1.373  -5.110  -1.606  0.00  0.00    +0.210 HD
ENDBRANCH  19  20
ENDBRANCH   1  12
TORSDOF 3
