REMARK  Name = ZINC63350973
REMARK  5 active torsions:
REMARK  status: ('A' for Active; 'I' for Inactive)
REMARK    1  A    between atoms: C_1  and  C_2
REMARK    2  A    between atoms: C_2  and  C_3
REMARK    3  A    between atoms: C_2  and  C_4
REMARK    4  A    between atoms: C_7  and  C_10
REMARK    5  A    between atoms: N_28  and  C_31
REMARK                            x       y       z     vdW  Elec       q    Type
REMARK                         _______ _______ _______ _____ _____    ______ ____
ROOT
ATOM      1  C   UNL     1       2.697  -1.877  -4.784  0.00  0.00    +0.135 C 
ATOM      2  C   UNL     1       3.933  -1.003  -5.041  0.00  0.00    +0.131 C 
ATOM      3  C   UNL     1       4.989  -1.409  -4.022  0.00  0.00    -0.034 C 
ATOM      4  C   UNL     1       5.306  -0.306  -3.351  0.00  0.00    -0.001 A 
ATOM      5  C   UNL     1       6.298  -0.056  -2.293  0.00  0.00    +0.010 A 
ATOM      6  C   UNL     1       6.352   1.213  -1.809  0.00  0.00    +0.001 A 
ATOM      7  C   UNL     1       5.527   2.245  -2.267  0.00  0.00    +0.002 A 
ATOM      8  C   UNL     1       4.592   2.107  -3.240  0.00  0.00    +0.026 A 
ATOM      9  C   UNL     1       4.445   0.817  -3.829  0.00  0.00    +0.043 A 
ATOM     10  N   UNL     1       3.645   0.410  -4.784  0.00  0.00    -0.375 N 
ATOM     11  C   UNL     1       5.463  -2.833  -3.845  0.00  0.00    +0.065 C 
ATOM     12  C   UNL     1       4.564  -3.706  -4.738  0.00  0.00    +0.169 C 
ATOM     13  N   UNL     1       3.167  -3.251  -4.569  0.00  0.00    -0.264 N 
ATOM     14  C   UNL     1       2.458  -4.314  -4.169  0.00  0.00    +0.317 C 
ATOM     15  O   UNL     1       1.249  -4.314  -4.043  0.00  0.00    -0.252 OA
ATOM     16  N   UNL     1       3.235  -5.379  -3.925  0.00  0.00    -0.192 N 
ATOM     17  C   UNL     1       4.553  -5.128  -4.221  0.00  0.00    +0.248 C 
ATOM     18  O   UNL     1       5.504  -5.870  -4.097  0.00  0.00    -0.273 OA
ATOM     19  H   UNL     1       2.977   0.945  -5.242  0.00  0.00    +0.160 HD
ENDROOT
BRANCH  16  20
ATOM     20  C   UNL     1       2.761  -6.605  -3.434  0.00  0.00    +0.049 A 
ATOM     21  C   UNL     1       3.621  -7.689  -3.326  0.00  0.00    +0.028 A 
ATOM     22  C   UNL     1       3.155  -8.897  -2.845  0.00  0.00    +0.051 A 
ATOM     23  C   UNL     1       1.827  -9.030  -2.467  0.00  0.00    +0.162 A 
ATOM     24  C   UNL     1       0.964  -7.946  -2.572  0.00  0.00    +0.164 A 
ATOM     25  C   UNL     1       1.433  -6.733  -3.052  0.00  0.00    +0.073 A 
ATOM     26  O   UNL     1      -0.341  -8.055  -2.199  0.00  0.00    -0.485 OA
ATOM     27  C   UNL     1      -0.865  -9.382  -2.070  0.00  0.00    +0.270 C 
ATOM     28  C   UNL     1       0.146 -10.222  -1.279  0.00  0.00    +0.270 C 
ATOM     29  O   UNL     1       1.384 -10.230  -1.999  0.00  0.00    -0.485 OA
ENDBRANCH  16  20
BRANCH   1  33
ATOM     30  C   UNL     1       0.630  -0.490  -1.312  0.00  0.00    -0.045 A 
ATOM     31  C   UNL     1       0.164  -0.163  -2.572  0.00  0.00    +0.004 A 
ATOM     32  C   UNL     1       0.833  -0.611  -3.695  0.00  0.00    +0.006 A 
ATOM     33  C   UNL     1       1.968  -1.387  -3.559  0.00  0.00    -0.025 A 
ATOM     34  C   UNL     1       2.436  -1.714  -2.300  0.00  0.00    +0.006 A 
ATOM     35  C   UNL     1       1.769  -1.262  -1.177  0.00  0.00    +0.004 A 
BRANCH  30  37
ATOM     36  C   UNL     1      -0.130   1.529  -0.089  0.00  0.00    +0.012 C 
ATOM     37  C   UNL     1      -0.099  -0.001  -0.088  0.00  0.00    +0.013 C 
ATOM     38  C   UNL     1      -1.531  -0.540  -0.097  0.00  0.00    +0.012 C 
ENDBRANCH  30  37
ENDBRANCH   1  33
TORSDOF 3
