REMARK  Name = ZINC13137294
REMARK  5 active torsions:
REMARK  status: ('A' for Active; 'I' for Inactive)
REMARK    1  A    between atoms: C_8  and  C_10
REMARK    2  A    between atoms: C_10  and  C_20
REMARK    3  A    between atoms: C_11  and  C_12
REMARK    4  A    between atoms: C_15  and  O_19
REMARK    5  A    between atoms: C_16  and  O_18
REMARK                            x       y       z     vdW  Elec       q    Type
REMARK                         _______ _______ _______ _____ _____    ______ ____
ROOT
ATOM      1  C   UNL     1      -1.179   2.172   0.115  0.00  0.00    +0.084 C 
ATOM      2  C   UNL     1      -0.018   1.462   0.010  0.00  0.00    +0.029 C 
ENDROOT
BRANCH   1  10
ATOM      3  C   UNL     1      -2.632   8.149  -0.102  0.00  0.00    +0.002 A 
ATOM      4  C   UNL     1      -1.317   8.543  -0.302  0.00  0.00    +0.001 A 
ATOM      5  C   UNL     1      -0.324   7.583  -0.368  0.00  0.00    +0.017 A 
ATOM      6  C   UNL     1      -0.657   6.258  -0.234  0.00  0.00    +0.040 A 
ATOM      7  C   UNL     1      -1.988   5.824  -0.029  0.00  0.00    +0.079 A 
ATOM      8  C   UNL     1      -2.973   6.840   0.032  0.00  0.00    +0.029 A 
ATOM      9  N   UNL     1      -2.158   4.493   0.085  0.00  0.00    -0.238 NA
ATOM     10  C   UNL     1      -1.155   3.643   0.011  0.00  0.00    +0.120 A 
ATOM     11  S   UNL     1       0.244   4.727  -0.241  0.00  0.00    -0.067 S 
ENDBRANCH   1  10
BRANCH   2  12
ATOM     12  C   UNL     1      -0.057  -0.003  -0.036  0.00  0.00    -0.020 A 
ATOM     13  C   UNL     1       1.016  -0.751   0.468  0.00  0.00    +0.012 A 
ATOM     14  C   UNL     1       0.975  -2.127   0.427  0.00  0.00    +0.050 A 
ATOM     15  C   UNL     1      -0.124  -2.776  -0.121  0.00  0.00    +0.158 A 
ATOM     16  C   UNL     1      -1.194  -2.040  -0.629  0.00  0.00    +0.159 A 
ATOM     17  C   UNL     1      -1.164  -0.660  -0.588  0.00  0.00    +0.057 A 
BRANCH  16  18
ATOM     18  O   UNL     1      -2.267  -2.681  -1.164  0.00  0.00    -0.503 OA
ATOM     19  H   UNL     1      -2.191  -2.851  -2.112  0.00  0.00    +0.292 HD
ENDBRANCH  16  18
BRANCH  15  20
ATOM     20  O   UNL     1      -0.157  -4.133  -0.162  0.00  0.00    -0.503 OA
ATOM     21  H   UNL     1       0.221  -4.511  -0.968  0.00  0.00    +0.292 HD
ENDBRANCH  15  20
ENDBRANCH   2  12
BRANCH   1  22
ATOM     22  C   UNL     1      -2.420   1.490   0.326  0.00  0.00    +0.102 C 
ATOM     23  N   UNL     1      -3.404   0.948   0.493  0.00  0.00    -0.191 NA
ENDBRANCH   1  22
TORSDOF 5
