REMARK  Name = ZINC31961973
REMARK  8 active torsions:
REMARK  status: ('A' for Active; 'I' for Inactive)
REMARK    1  A    between atoms: C_1  and  C_2
REMARK    2  A    between atoms: C_2  and  C_4
REMARK    3  A    between atoms: C_2  and  N_24
REMARK    4  A    between atoms: C_4  and  N_5
REMARK    5  A    between atoms: C_6  and  C_8
REMARK    6  A    between atoms: C_8  and  N_9
REMARK    7  A    between atoms: C_12  and  C_16
REMARK    8  A    between atoms: C_12  and  C_17
REMARK                            x       y       z     vdW  Elec       q    Type
REMARK                         _______ _______ _______ _____ _____    ______ ____
ROOT
ATOM      1  N   UNL     1      -1.049  -2.206   0.163  0.00  0.00    -0.316 N 
ATOM      2  C   UNL     1      -2.066  -3.074   0.331  0.00  0.00    +0.231 C 
ATOM      3  O   UNL     1      -3.206  -2.667   0.398  0.00  0.00    -0.274 OA
ATOM      4  H   UNL     1      -0.137  -2.532   0.110  0.00  0.00    +0.149 HD
ENDROOT
BRANCH   1   5
ATOM      5  C   UNL     1      -1.321  -0.770   0.062  0.00  0.00    +0.089 C 
BRANCH   5   7
ATOM      6  C   UNL     1      -0.281   1.500  -0.007  0.00  0.00    -0.012 C 
ATOM      7  C   UNL     1       0.002  -0.003   0.016  0.00  0.00    -0.054 C 
BRANCH   7   8
ATOM      8  N   UNL     1       0.801  -0.333   1.203  0.00  0.00    +0.385 N 
ATOM      9  C   UNL     1       0.105   0.148   2.404  0.00  0.00    -0.073 C 
ATOM     10  C   UNL     1       0.762  -0.479   3.645  0.00  0.00    +0.024 C 
ATOM     11  C   UNL     1       2.240  -0.323   3.500  0.00  0.00    -0.011 A 
ATOM     12  C   UNL     1       2.909   0.027   2.365  0.00  0.00    -0.054 A 
ATOM     13  C   UNL     1       4.295   0.117   2.463  0.00  0.00    +0.009 A 
ATOM     14  C   UNL     1       4.908  -0.140   3.642  0.00  0.00    +0.045 A 
ATOM     15  S   UNL     1       3.523  -0.534   4.701  0.00  0.00    -0.101 S 
ATOM     16  C   UNL     1       2.125   0.290   1.083  0.00  0.00    -0.042 C 
ATOM     17  H   UNL     1       0.910  -1.334   1.262  0.00  0.00    -0.081 HD
ENDBRANCH   7   8
ENDBRANCH   5   7
ENDBRANCH   1   5
BRANCH   2  18
ATOM     18  C   UNL     1      -1.786  -4.552   0.435  0.00  0.00    +0.213 C 
BRANCH  18  19
ATOM     19  N   UNL     1      -3.047  -5.276   0.613  0.00  0.00    -0.215 N 
ATOM     20  C   UNL     1      -3.602  -5.548   1.810  0.00  0.00    +0.251 C 
ATOM     21  O   UNL     1      -3.168  -5.252   2.903  0.00  0.00    -0.272 OA
ATOM     22  C   UNL     1      -4.882  -6.302   1.507  0.00  0.00    +0.135 C 
ATOM     23  N   UNL     1      -4.901  -6.374   0.036  0.00  0.00    -0.281 N 
ATOM     24  C   UNL     1      -3.793  -5.744  -0.395  0.00  0.00    +0.310 C 
ATOM     25  O   UNL     1      -3.501  -5.616  -1.568  0.00  0.00    -0.252 OA
ATOM     26  C   UNL     1      -6.097  -5.530   2.025  0.00  0.00    +0.047 C 
ATOM     27  H   UNL     1      -5.582  -6.791  -0.515  0.00  0.00    +0.152 HD
BRANCH  22  28
ATOM     28  C   UNL     1      -4.837  -7.685   2.104  0.00  0.00    -0.015 A 
ATOM     29  C   UNL     1      -4.117  -7.914   3.262  0.00  0.00    +0.009 A 
ATOM     30  C   UNL     1      -4.076  -9.182   3.811  0.00  0.00    +0.039 A 
ATOM     31  C   UNL     1      -4.755 -10.223   3.201  0.00  0.00    +0.123 A 
ATOM     32  C   UNL     1      -5.475  -9.992   2.041  0.00  0.00    +0.039 A 
ATOM     33  C   UNL     1      -5.520  -8.722   1.497  0.00  0.00    +0.009 A 
ATOM     34  F   UNL     1      -4.714 -11.462   3.736  0.00  0.00    -0.205 F 
ENDBRANCH  22  28
ENDBRANCH  18  19
ENDBRANCH   2  18
TORSDOF 6
