REMARK  Name = ZINC38971023
REMARK  7 active torsions:
REMARK  status: ('A' for Active; 'I' for Inactive)
REMARK    1  A    between atoms: C_1  and  C_2
REMARK    2  A    between atoms: C_2  and  C_3
REMARK    3  A    between atoms: N_9  and  N_10
REMARK    4  A    between atoms: C_11  and  C_12
REMARK    5  A    between atoms: C_14  and  O_20
REMARK    6  A    between atoms: C_15  and  O_19
REMARK    7  A    between atoms: O_20  and  C_21
REMARK                            x       y       z     vdW  Elec       q    Type
REMARK                         _______ _______ _______ _____ _____    ______ ____
ROOT
ATOM      1  C   UNL     1      -1.444  -4.959  -1.741  0.00  0.00    -0.001 A 
ATOM      2  C   UNL     1      -1.278  -6.338  -1.898  0.00  0.00    +0.059 A 
ATOM      3  C   UNL     1      -2.384  -7.149  -2.075  0.00  0.00    +0.163 A 
ATOM      4  C   UNL     1      -3.660  -6.591  -2.097  0.00  0.00    +0.173 A 
ATOM      5  C   UNL     1      -3.826  -5.222  -1.942  0.00  0.00    +0.063 A 
ATOM      6  C   UNL     1      -2.728  -4.407  -1.758  0.00  0.00    +0.028 A 
ATOM      7 BR   UNL     1      -5.562  -4.472  -1.974  0.00  0.00    -0.046 Br
ENDROOT
BRANCH   1   9
ATOM      8  N   UNL     1      -0.426  -2.810  -1.400  0.00  0.00    -0.184 NA
ATOM      9  C   UNL     1      -0.269  -4.090  -1.551  0.00  0.00    +0.138 C 
BRANCH   8  15
ATOM     10  C   UNL     1       2.112  -2.336  -1.510  0.00  0.00    +0.235 C 
ATOM     11  N   UNL     1       2.825  -1.063  -1.320  0.00  0.00    -0.171 NA
ATOM     12  N   UNL     1       1.985  -0.190  -1.085  0.00  0.00    -0.097 NA
ATOM     13  C   UNL     1       0.725  -0.640  -1.073  0.00  0.00    +0.198 C 
ATOM     14  S   UNL     1      -0.656   0.328  -0.779  0.00  0.00    -0.013 S 
ATOM     15  N   UNL     1       0.694  -1.971  -1.327  0.00  0.00    -0.175 N 
BRANCH  10  17
ATOM     16  C   UNL     1       3.810  -3.316  -3.059  0.00  0.00    +0.008 C 
ATOM     17  C   UNL     1       2.350  -2.881  -2.920  0.00  0.00    +0.047 C 
ENDBRANCH  10  17
ENDBRANCH   8  15
ENDBRANCH   1   9
BRANCH   4  18
ATOM     18  O   UNL     1      -4.746  -7.390  -2.272  0.00  0.00    -0.503 OA
ATOM     19  H   UNL     1      -5.122  -7.728  -1.448  0.00  0.00    +0.292 HD
ENDBRANCH   4  18
BRANCH   3  20
ATOM     20  O   UNL     1      -2.225  -8.491  -2.228  0.00  0.00    -0.491 OA
ATOM     21  C   UNL     1      -0.888  -8.994  -2.195  0.00  0.00    +0.277 C 
ENDBRANCH   3  20
TORSDOF 5
