REMARK  Name = ZINC09449285
REMARK  9 active torsions:
REMARK  status: ('A' for Active; 'I' for Inactive)
REMARK    1  A    between atoms: C_3  and  N_18
REMARK    2  A    between atoms: C_5  and  S_7
REMARK    3  A    between atoms: S_7  and  N_10
REMARK    4  A    between atoms: C_19  and  C_21
REMARK    5  A    between atoms: C_21  and  O_22
REMARK    6  A    between atoms: O_22  and  C_23
REMARK    7  A    between atoms: C_23  and  C_25
REMARK    8  A    between atoms: C_25  and  O_26
REMARK    9  A    between atoms: O_26  and  C_27
REMARK                            x       y       z     vdW  Elec       q    Type
REMARK                         _______ _______ _______ _____ _____    ______ ____
ROOT
ATOM      1  N   UNL     1      -0.017   1.395   0.010  0.00  0.00    -0.283 N 
ATOM      2  C   UNL     1      -0.857   2.186   0.706  0.00  0.00    +0.255 C 
ATOM      3  O   UNL     1      -1.672   1.692   1.457  0.00  0.00    -0.272 OA
ATOM      4  H   UNL     1       0.686   1.790  -0.529  0.00  0.00    +0.155 HD
ENDROOT
BRANCH   1   7
ATOM      5  C   UNL     1       0.826  -2.184   0.048  0.00  0.00    +0.004 A 
ATOM      6  C   UNL     1       0.966  -0.811  -0.016  0.00  0.00    +0.023 A 
ATOM      7  C   UNL     1      -0.155   0.004   0.068  0.00  0.00    +0.035 A 
ATOM      8  C   UNL     1      -1.415  -0.565   0.204  0.00  0.00    +0.052 A 
ATOM      9  C   UNL     1      -1.548  -1.938   0.262  0.00  0.00    +0.114 A 
ATOM     10  C   UNL     1      -0.429  -2.747   0.183  0.00  0.00    +0.029 A 
BRANCH   9  11
ATOM     11  S   UNL     1      -3.146  -2.661   0.434  0.00  0.00    +0.100 S 
ATOM     12  O   UNL     1      -2.951  -3.945   1.012  0.00  0.00    -0.146 OA
ATOM     13  O   UNL     1      -3.975  -1.675   1.033  0.00  0.00    -0.146 OA
BRANCH  11  14
ATOM     14  N   UNL     1      -3.737  -2.913  -1.092  0.00  0.00    -0.118 NA
ATOM     15  C   UNL     1      -4.907  -3.440  -1.254  0.00  0.00    +0.117 C 
ATOM     16  C   UNL     1      -5.743  -3.836  -0.039  0.00  0.00    +0.073 C 
ATOM     17  C   UNL     1      -6.918  -2.876   0.023  0.00  0.00    +0.008 C 
ATOM     18  C   UNL     1      -8.129  -3.345  -0.786  0.00  0.00    +0.002 C 
ATOM     19  C   UNL     1      -7.752  -3.914  -2.154  0.00  0.00    +0.019 C 
ATOM     20  C   UNL     1      -6.697  -3.097  -2.869  0.00  0.00    +0.102 C 
ATOM     21  N   UNL     1      -5.379  -3.642  -2.468  0.00  0.00    -0.331 N 
ATOM     22  H   UNL     1      -4.857  -4.153  -3.106  0.00  0.00    +0.147 HD
ENDBRANCH  11  14
ENDBRANCH   9  11
ENDBRANCH   1   7
BRANCH   2  23
ATOM     23  C   UNL     1      -0.785   3.683   0.551  0.00  0.00    +0.328 C 
BRANCH  23  24
ATOM     24  O   UNL     1      -1.786   4.306   1.399  0.00  0.00    -0.453 OA
BRANCH  24  25
ATOM     25  C   UNL     1      -1.854   5.646   1.378  0.00  0.00    +0.346 C 
ATOM     26  O   UNL     1      -1.103   6.278   0.674  0.00  0.00    -0.247 OA
BRANCH  25  27
ATOM     27  C   UNL     1      -2.868   6.363   2.232  0.00  0.00    +0.349 C 
BRANCH  27  28
ATOM     28  O   UNL     1      -2.744   7.773   2.036  0.00  0.00    -0.481 OA
BRANCH  28  29
ATOM     29  C   UNL     1      -3.591   8.570   2.739  0.00  0.00    +0.122 A 
ATOM     30  C   UNL     1      -4.524   8.008   3.599  0.00  0.00    +0.046 A 
ATOM     31  C   UNL     1      -5.382   8.822   4.310  0.00  0.00    +0.007 A 
ATOM     32  C   UNL     1      -5.317  10.198   4.169  0.00  0.00    -0.044 A 
ATOM     33  C   UNL     1      -4.389  10.761   3.312  0.00  0.00    -0.041 A 
ATOM     34  C   UNL     1      -3.523   9.948   2.602  0.00  0.00    +0.049 A 
ATOM     35  C   UNL     1      -4.519  12.269   3.336  0.00  0.00    +0.036 C 
ATOM     36  C   UNL     1      -5.321  12.585   4.616  0.00  0.00    +0.009 C 
ATOM     37  C   UNL     1      -6.134  11.290   4.826  0.00  0.00    +0.036 C 
ENDBRANCH  28  29
ENDBRANCH  27  28
ENDBRANCH  25  27
ENDBRANCH  24  25
ENDBRANCH  23  24
ENDBRANCH   2  23
TORSDOF 9
