REMARK  Name = ZINC59227874
REMARK  8 active torsions:
REMARK  status: ('A' for Active; 'I' for Inactive)
REMARK    1  A    between atoms: C_1  and  C_2
REMARK    2  A    between atoms: C_2  and  C_3
REMARK    3  A    between atoms: C_2  and  C_4
REMARK    4  A    between atoms: C_7  and  C_10
REMARK    5  A    between atoms: C_12  and  C_27
REMARK    6  A    between atoms: C_13  and  C_20
REMARK    7  A    between atoms: C_27  and  O_29
REMARK    8  A    between atoms: O_29  and  C_30
REMARK                            x       y       z     vdW  Elec       q    Type
REMARK                         _______ _______ _______ _____ _____    ______ ____
ROOT
ATOM      1  C   UNL     1      -6.131  -2.244   0.197  0.00  0.00    +0.179 C 
ATOM      2  C   UNL     1      -6.528  -1.671  -1.137  0.00  0.00    +0.087 C 
ATOM      3  C   UNL     1      -6.200  -2.255  -2.318  0.00  0.00    +0.053 C 
ATOM      4  N   UNL     1      -5.480  -3.433  -2.373  0.00  0.00    -0.283 N 
ATOM      5  C   UNL     1      -5.330  -4.144  -1.191  0.00  0.00    +0.219 A 
ATOM      6  N   UNL     1      -5.634  -3.605   0.015  0.00  0.00    -0.221 N 
ATOM      7  N   UNL     1      -5.373  -4.591   0.966  0.00  0.00    -0.156 NA
ATOM      8  C   UNL     1      -4.934  -5.639   0.314  0.00  0.00    +0.247 A 
ATOM      9  N   UNL     1      -4.907  -5.363  -0.993  0.00  0.00    -0.201 NA
ATOM     10  H   UNL     1      -5.096  -3.751  -3.205  0.00  0.00    +0.155 HD
ENDROOT
BRANCH   3  11
ATOM     11  C   UNL     1      -6.623  -1.613  -3.579  0.00  0.00    -0.003 A 
ATOM     12  C   UNL     1      -6.077  -0.384  -3.958  0.00  0.00    +0.011 A 
ATOM     13  C   UNL     1      -6.476   0.210  -5.136  0.00  0.00    +0.020 A 
ATOM     14  C   UNL     1      -7.416  -0.409  -5.943  0.00  0.00    +0.041 A 
ATOM     15  C   UNL     1      -7.961  -1.627  -5.573  0.00  0.00    +0.020 A 
ATOM     16  C   UNL     1      -7.566  -2.235  -4.400  0.00  0.00    +0.011 A 
ATOM     17 CL   UNL     1      -7.914   0.346  -7.425  0.00  0.00    -0.084 Cl
ENDBRANCH   3  11
BRANCH   1  21
ATOM     18  C   UNL     1      -3.063   0.171   1.929  0.00  0.00    -0.045 A 
ATOM     19  C   UNL     1      -4.266   0.003   2.589  0.00  0.00    +0.004 A 
ATOM     20  C   UNL     1      -5.259  -0.779   2.029  0.00  0.00    +0.006 A 
ATOM     21  C   UNL     1      -5.049  -1.391   0.807  0.00  0.00    -0.018 A 
ATOM     22  C   UNL     1      -3.847  -1.222   0.146  0.00  0.00    +0.006 A 
ATOM     23  C   UNL     1      -2.856  -0.437   0.705  0.00  0.00    +0.004 A 
BRANCH  18  25
ATOM     24  C   UNL     1      -2.503   2.448   2.737  0.00  0.00    +0.012 C 
ATOM     25  C   UNL     1      -1.981   1.023   2.540  0.00  0.00    +0.013 C 
ATOM     26  C   UNL     1      -1.574   0.438   3.894  0.00  0.00    +0.012 C 
ENDBRANCH  18  25
ENDBRANCH   1  21
BRANCH   2  27
ATOM     27  C   UNL     1      -7.273  -0.478  -1.162  0.00  0.00    +0.339 C 
ATOM     28  O   UNL     1      -7.711  -0.054  -2.216  0.00  0.00    -0.245 OA
BRANCH  27  29
ATOM     29  O   UNL     1      -7.503   0.199  -0.016  0.00  0.00    -0.465 OA
ATOM     30  C   UNL     1      -8.267   1.402  -0.114  0.00  0.00    +0.280 C 
ENDBRANCH  27  29
ENDBRANCH   2  27
TORSDOF 5
