REMARK  Name = ZINC12247110
REMARK  5 active torsions:
REMARK  status: ('A' for Active; 'I' for Inactive)
REMARK    1  A    between atoms: C_3  and  C_7
REMARK    2  A    between atoms: C_7  and  C_21
REMARK    3  A    between atoms: N_10  and  C_14
REMARK    4  A    between atoms: C_14  and  C_15
REMARK    5  A    between atoms: C_27  and  C_29
REMARK                            x       y       z     vdW  Elec       q    Type
REMARK                         _______ _______ _______ _____ _____    ______ ____
ROOT
ATOM      1  C   UNL     1      -7.942   1.778  -2.911  0.00  0.00    +0.142 C 
ATOM      2  C   UNL     1      -8.679   2.211  -4.163  0.00  0.00    +0.251 C 
ATOM      3  O   UNL     1      -9.127   3.311  -4.404  0.00  0.00    -0.272 OA
ATOM      4  N   UNL     1      -8.733   1.119  -4.951  0.00  0.00    -0.221 N 
ATOM      5  C   UNL     1      -8.138   0.067  -4.377  0.00  0.00    +0.310 C 
ATOM      6  O   UNL     1      -8.059  -1.030  -4.894  0.00  0.00    -0.252 OA
ATOM      7  N   UNL     1      -7.637   0.359  -3.163  0.00  0.00    -0.281 N 
ATOM      8  H   UNL     1      -7.167  -0.247  -2.569  0.00  0.00    +0.152 HD
ENDROOT
BRANCH   1   9
ATOM      9  C   UNL     1      -6.652   2.583  -2.740  0.00  0.00    +0.029 C 
ATOM     10  C   UNL     1      -5.753   2.372  -3.960  0.00  0.00    +0.025 C 
ATOM     11  C   UNL     1      -4.479   3.207  -3.801  0.00  0.00    +0.108 C 
ATOM     12  N   UNL     1      -3.847   2.865  -2.519  0.00  0.00    -0.298 N 
ATOM     13  C   UNL     1      -4.651   2.941  -1.292  0.00  0.00    +0.108 C 
ATOM     14  C   UNL     1      -5.922   2.114  -1.479  0.00  0.00    +0.025 C 
ATOM     15  C   UNL     1      -2.555   2.483  -2.471  0.00  0.00    +0.242 C 
ATOM     16  O   UNL     1      -1.874   2.511  -3.479  0.00  0.00    -0.270 OA
BRANCH  15  17
ATOM     17  C   UNL     1      -1.968   2.033  -1.200  0.00  0.00    +0.011 C 
ATOM     18  C   UNL     1      -2.282   0.833  -0.762  0.00  0.00    -0.018 C 
ATOM     19  C   UNL     1      -1.765   0.250   0.520  0.00  0.00    +0.027 C 
ATOM     20  C   UNL     1      -0.542   1.036   0.998  0.00  0.00    +0.004 C 
ATOM     21  C   UNL     1      -0.881   2.528   0.980  0.00  0.00    +0.005 C 
ATOM     22  C   UNL     1      -1.045   2.970  -0.476  0.00  0.00    +0.040 C 
ENDBRANCH  15  17
ENDBRANCH   1   9
BRANCH   1  25
ATOM     23  C   UNL     1     -10.469   1.083  -0.197  0.00  0.00    +0.020 A 
ATOM     24  C   UNL     1      -9.680   0.904  -1.323  0.00  0.00    +0.009 A 
ATOM     25  C   UNL     1      -8.824   1.927  -1.698  0.00  0.00    +0.003 A 
ATOM     26  C   UNL     1      -8.793   3.088  -0.949  0.00  0.00    +0.117 A 
ATOM     27  N   UNL     1      -9.561   3.226   0.114  0.00  0.00    -0.263 NA
ATOM     28  C   UNL     1     -10.383   2.272   0.503  0.00  0.00    +0.111 A 
ENDBRANCH   1  25
BRANCH   4  29
ATOM     29  C   UNL     1      -9.363   1.088  -6.273  0.00  0.00    +0.149 C 
BRANCH  29  30
ATOM     30  C   UNL     1      -8.329   1.454  -7.340  0.00  0.00    +0.136 C 
ATOM     31  C   UNL     1      -9.011   1.536  -8.723  0.00  0.00    +0.035 C 
ATOM     32  C   UNL     1      -7.943   0.900  -9.654  0.00  0.00    +0.031 C 
ATOM     33  C   UNL     1      -7.333  -0.170  -8.715  0.00  0.00    +0.160 C 
ATOM     34  O   UNL     1      -7.325   0.435  -7.412  0.00  0.00    -0.375 OA
ENDBRANCH  29  30
ENDBRANCH   4  29
TORSDOF 5
