REMARK  Name = ZINC63732978
REMARK  8 active torsions:
REMARK  status: ('A' for Active; 'I' for Inactive)
REMARK    1  A    between atoms: C_7  and  C_10
REMARK    2  A    between atoms: C_10  and  C_11
REMARK    3  A    between atoms: C_11  and  N_12
REMARK    4  A    between atoms: C_13  and  C_15
REMARK    5  A    between atoms: C_15  and  C_16
REMARK    6  A    between atoms: C_16  and  N_17
REMARK    7  A    between atoms: N_17  and  S_18
REMARK    8  A    between atoms: S_18  and  C_21
REMARK                            x       y       z     vdW  Elec       q    Type
REMARK                         _______ _______ _______ _____ _____    ______ ____
ROOT
ATOM      1  C   UNL     1      -1.752  -6.557  -2.622  0.00  0.00    +0.112 C 
ENDROOT
BRANCH   1   3
ATOM      2  N   UNL     1      -0.458  -4.798  -1.460  0.00  0.00    -0.315 N 
ATOM      3  C   UNL     1      -0.811  -5.380  -2.623  0.00  0.00    +0.214 C 
ATOM      4  O   UNL     1      -0.371  -4.957  -3.671  0.00  0.00    -0.276 OA
ATOM      5  H   UNL     1      -0.810  -5.136  -0.622  0.00  0.00    +0.149 HD
BRANCH   2   6
ATOM      6  C   UNL     1       0.457  -3.653  -1.462  0.00  0.00    +0.108 C 
BRANCH   6   7
ATOM      7  C   UNL     1       0.691  -3.186  -0.024  0.00  0.00    +0.052 C 
BRANCH   7  14
ATOM      8  C   UNL     1      -0.016   1.348   0.009  0.00  0.00    +0.001 A 
ATOM      9  C   UNL     1       1.166   2.101   0.002  0.00  0.00    +0.002 A 
ATOM     10  C   UNL     1       2.391   1.535  -0.013  0.00  0.00    +0.026 A 
ATOM     11  C   UNL     1       2.529   0.120  -0.022  0.00  0.00    +0.043 A 
ATOM     12  N   UNL     1       3.587  -0.654  -0.037  0.00  0.00    -0.380 N 
ATOM     13  C   UNL     1       3.143  -2.053  -0.041  0.00  0.00    +0.144 C 
ATOM     14  C   UNL     1       1.631  -2.008  -0.025  0.00  0.00    -0.040 C 
ATOM     15  C   UNL     1       1.295  -0.698  -0.014  0.00  0.00    -0.001 A 
ATOM     16  C   UNL     1       0.002  -0.004   0.002  0.00  0.00    +0.010 A 
ATOM     17  H   UNL     1       4.509  -0.353  -0.045  0.00  0.00    +0.160 HD
ENDBRANCH   7  14
ENDBRANCH   6   7
ENDBRANCH   2   6
ENDBRANCH   1   3
BRANCH   1  18
ATOM     18  C   UNL     1      -1.986  -7.025  -4.059  0.00  0.00    +0.115 C 
BRANCH  18  19
ATOM     19  N   UNL     1      -2.901  -8.169  -4.058  0.00  0.00    -0.189 NA
ATOM     20  H   UNL     1      -3.082  -8.645  -3.232  0.00  0.00    +0.148 HD
BRANCH  19  21
ATOM     21  S   UNL     1      -3.626  -8.652  -5.466  0.00  0.00    +0.058 S 
ATOM     22  O   UNL     1      -4.420  -9.786  -5.147  0.00  0.00    -0.153 OA
ATOM     23  O   UNL     1      -4.171  -7.483  -6.063  0.00  0.00    -0.153 OA
BRANCH  21  24
ATOM     24  C   UNL     1      -2.350  -9.218  -6.542  0.00  0.00    +0.106 A 
ATOM     25  C   UNL     1      -1.724  -8.334  -7.401  0.00  0.00    +0.029 A 
ATOM     26  C   UNL     1      -0.728  -8.786  -8.242  0.00  0.00    +0.006 A 
ATOM     27  C   UNL     1      -0.347 -10.121  -8.232  0.00  0.00    -0.044 A 
ATOM     28  C   UNL     1      -0.967 -11.000  -7.372  0.00  0.00    -0.042 A 
ATOM     29  C   UNL     1      -1.968 -10.543  -6.525  0.00  0.00    +0.032 A 
ATOM     30  C   UNL     1      -0.594 -12.458  -7.296  0.00  0.00    +0.035 C 
ATOM     31  C   UNL     1       0.183 -12.880  -8.541  0.00  0.00    +0.005 C 
ATOM     32  C   UNL     1       1.333 -11.889  -8.753  0.00  0.00    +0.005 C 
ATOM     33  C   UNL     1       0.741 -10.548  -9.182  0.00  0.00    +0.035 C 
ENDBRANCH  21  24
ENDBRANCH  19  21
ENDBRANCH  18  19
ENDBRANCH   1  18
TORSDOF 8
