REMARK  Name = ZINC39601042
REMARK  8 active torsions:
REMARK  status: ('A' for Active; 'I' for Inactive)
REMARK    1  A    between atoms: C_1  and  C_2
REMARK    2  A    between atoms: C_2  and  C_3
REMARK    3  A    between atoms: C_2  and  C_4
REMARK    4  A    between atoms: C_4  and  C_5
REMARK    5  A    between atoms: C_5  and  N_6
REMARK    6  A    between atoms: C_7  and  C_9
REMARK    7  A    between atoms: C_20  and  C_22
REMARK    8  A    between atoms: C_27  and  C_28
REMARK                            x       y       z     vdW  Elec       q    Type
REMARK                         _______ _______ _______ _____ _____    ______ ____
ROOT
ATOM      1  C   UNL     1      -4.910  -4.506  -0.726  0.00  0.00    +0.100 C 
ATOM      2  C   UNL     1      -5.313  -4.199   0.733  0.00  0.00    +0.121 C 
ATOM      3  N   UNL     1      -6.023  -5.417   1.190  0.00  0.00    -0.296 N 
ATOM      4  C   UNL     1      -5.252  -6.537   0.599  0.00  0.00    +0.115 C 
ATOM      5  C   UNL     1      -4.869  -6.042  -0.810  0.00  0.00    -0.004 C 
ATOM      6  C   UNL     1      -3.465  -6.514  -1.171  0.00  0.00    -0.010 C 
ATOM      7  C   UNL     1      -3.463  -8.040  -1.306  0.00  0.00    -0.082 C 
ATOM      8  N   UNL     1      -4.420  -8.442  -2.345  0.00  0.00    +0.379 N 
ATOM      9  C   UNL     1      -5.781  -8.066  -1.945  0.00  0.00    -0.082 C 
ATOM     10  C   UNL     1      -5.880  -6.541  -1.837  0.00  0.00    -0.010 C 
ATOM     11  C   UNL     1      -7.122  -5.490   1.966  0.00  0.00    +0.247 C 
ATOM     12  O   UNL     1      -7.531  -6.572   2.340  0.00  0.00    -0.270 OA
ATOM     13  H   UNL     1      -4.186  -7.982  -3.212  0.00  0.00    -0.086 HD
ATOM     14  H   UNL     1      -4.373  -9.441  -2.474  0.00  0.00    -0.086 HD
ENDROOT
BRANCH  11  15
ATOM     15  C   UNL     1      -7.831  -4.255   2.364  0.00  0.00    +0.049 A 
ATOM     16  C   UNL     1      -7.109  -3.095   2.650  0.00  0.00    +0.013 A 
ATOM     17  C   UNL     1      -7.776  -1.945   3.020  0.00  0.00    +0.001 A 
ATOM     18  C   UNL     1      -9.157  -1.940   3.107  0.00  0.00    +0.001 A 
ATOM     19  C   UNL     1      -9.878  -3.087   2.824  0.00  0.00    +0.013 A 
ATOM     20  C   UNL     1      -9.224  -4.242   2.448  0.00  0.00    +0.067 A 
BRANCH  20  21
ATOM     21  C   UNL     1     -10.011  -5.488   2.135  0.00  0.00    +0.418 C 
ATOM     22  F   UNL     1     -11.377  -5.228   2.289  0.00  0.00    -0.166 F 
ATOM     23  F   UNL     1      -9.757  -5.881   0.816  0.00  0.00    -0.166 F 
ATOM     24  F   UNL     1      -9.630  -6.512   3.008  0.00  0.00    -0.166 F 
ENDBRANCH  20  21
ENDBRANCH  11  15
BRANCH   1  26
ATOM     25  N   UNL     1      -3.245  -3.546  -2.283  0.00  0.00    -0.315 N 
ATOM     26  C   UNL     1      -3.551  -3.929  -1.028  0.00  0.00    +0.218 C 
ATOM     27  O   UNL     1      -2.733  -3.808  -0.140  0.00  0.00    -0.275 OA
ATOM     28  H   UNL     1      -3.899  -3.643  -2.993  0.00  0.00    +0.149 HD
BRANCH  25  29
ATOM     29  C   UNL     1      -1.924  -2.984  -2.576  0.00  0.00    +0.104 C 
BRANCH  29  30
ATOM     30  C   UNL     1      -1.836  -2.635  -4.063  0.00  0.00    +0.022 C 
BRANCH  30  32
ATOM     31  C   UNL     1      -0.325  -1.816  -5.875  0.00  0.00    +0.007 C 
ATOM     32  C   UNL     1      -0.457  -2.049  -4.369  0.00  0.00    -0.016 C 
ATOM     33  C   UNL     1      -0.293  -0.719  -3.631  0.00  0.00    +0.007 C 
ENDBRANCH  30  32
ENDBRANCH  29  30
ENDBRANCH  25  29
ENDBRANCH   1  26
TORSDOF 6
