REMARK  Name = ZINC59793123
REMARK  8 active torsions:
REMARK  status: ('A' for Active; 'I' for Inactive)
REMARK    1  A    between atoms: C_1  and  C_2
REMARK    2  A    between atoms: C_5  and  C_7
REMARK    3  A    between atoms: C_7  and  N_8
REMARK    4  A    between atoms: C_15  and  C_17
REMARK    5  A    between atoms: C_17  and  S_18
REMARK    6  A    between atoms: S_18  and  C_19
REMARK    7  A    between atoms: C_22  and  C_25
REMARK    8  A    between atoms: C_28  and  N_31
REMARK                            x       y       z     vdW  Elec       q    Type
REMARK                         _______ _______ _______ _____ _____    ______ ____
ROOT
ATOM      1  N   UNL     1       1.447  -3.711   1.712  0.00  0.00    +0.387 N 
ATOM      2  C   UNL     1       1.448  -5.049   2.299  0.00  0.00    -0.077 C 
ATOM      3  C   UNL     1       2.735  -5.754   1.930  0.00  0.00    +0.000 C 
ATOM      4  C   UNL     1       3.774  -5.540   3.046  0.00  0.00    +0.106 C 
ATOM      5  N   UNL     1       3.715  -4.160   3.569  0.00  0.00    -0.303 N 
ATOM      6  C   UNL     1       3.550  -3.009   2.704  0.00  0.00    +0.089 C 
ATOM      7  C   UNL     1       2.045  -2.710   2.510  0.00  0.00    -0.059 C 
ATOM      8  C   UNL     1       3.817  -3.964   4.898  0.00  0.00    +0.226 C 
ATOM      9  O   UNL     1       3.771  -2.840   5.351  0.00  0.00    -0.275 OA
ATOM     10  H   UNL     1       1.938  -3.751   0.831  0.00  0.00    -0.081 HD
ENDROOT
BRANCH   1  11
ATOM     11  C   UNL     1       0.055  -3.322   1.448  0.00  0.00    +0.021 C 
BRANCH  11  16
ATOM     12  C   UNL     1      -0.018   1.503   0.010  0.00  0.00    +0.111 C 
ATOM     13  C   UNL     1       0.002  -0.004   0.002  0.00  0.00    +0.214 A 
ATOM     14  N   UNL     1       0.008  -0.769  -1.052  0.00  0.00    -0.113 NA
ATOM     15  N   UNL     1       0.027  -2.002  -0.685  0.00  0.00    -0.114 NA
ATOM     16  C   UNL     1       0.034  -2.066   0.616  0.00  0.00    +0.201 A 
ATOM     17  O   UNL     1       0.023  -0.805   1.081  0.00  0.00    -0.427 OA
ENDBRANCH  11  16
ENDBRANCH   1  11
BRANCH   8  18
ATOM     18  C   UNL     1       3.989  -5.142   5.822  0.00  0.00    +0.173 C 
BRANCH  18  19
ATOM     19  S   UNL     1       4.096  -4.556   7.536  0.00  0.00    -0.077 S 
BRANCH  19  20
ATOM     20  C   UNL     1       4.292  -6.030   8.479  0.00  0.00    +0.185 A 
ATOM     21  N   UNL     1       4.344  -7.253   7.999  0.00  0.00    -0.201 NA
ATOM     22  H   UNL     1       4.424  -5.359  10.446  0.00  0.00    +0.191 HD
ATOM     23  C   UNL     1       4.501  -8.126   9.005  0.00  0.00    +0.182 A 
ATOM     24  N   UNL     1       4.550  -7.464  10.139  0.00  0.00    -0.152 NA
ATOM     25  N   UNL     1       4.422  -6.102   9.823  0.00  0.00    -0.253 N 
BRANCH  23  26
ATOM     26  C   UNL     1       4.601  -9.600   8.861  0.00  0.00    +0.021 A 
ATOM     27  C   UNL     1       4.540 -10.185   7.598  0.00  0.00    +0.014 A 
ATOM     28  C   UNL     1       4.635 -11.556   7.470  0.00  0.00    +0.033 A 
ATOM     29  C   UNL     1       4.790 -12.349   8.593  0.00  0.00    +0.126 A 
ATOM     30  C   UNL     1       4.851 -11.773   9.849  0.00  0.00    +0.033 A 
ATOM     31  C   UNL     1       4.763 -10.403   9.989  0.00  0.00    +0.014 A 
BRANCH  29  32
ATOM     32  N   UNL     1       4.890 -13.819   8.450  0.00  0.00    +0.056 N 
ATOM     33  O   UNL     1       4.837 -14.324   7.353  0.00  0.00    -0.126 OA
ATOM     34  O   UNL     1       5.026 -14.514   9.429  0.00  0.00    -0.126 OA
ENDBRANCH  29  32
ENDBRANCH  23  26
ENDBRANCH  19  20
ENDBRANCH  18  19
ENDBRANCH   8  18
TORSDOF 7
