REMARK  Name = ZINC39769263
REMARK  8 active torsions:
REMARK  status: ('A' for Active; 'I' for Inactive)
REMARK    1  A    between atoms: C_1  and  C_2
REMARK    2  A    between atoms: C_2  and  N_3
REMARK    3  A    between atoms: C_4  and  N_29
REMARK    4  A    between atoms: C_5  and  C_13
REMARK    5  A    between atoms: C_6  and  C_12
REMARK    6  A    between atoms: C_7  and  C_10
REMARK    7  A    between atoms: N_17  and  C_21
REMARK    8  A    between atoms: C_32  and  C_35
REMARK                            x       y       z     vdW  Elec       q    Type
REMARK                         _______ _______ _______ _____ _____    ______ ____
ROOT
ATOM      1  N   UNL     1      -1.739  -0.577  -0.408  0.00  0.00    -0.295 N 
ATOM      2  C   UNL     1      -2.195  -0.759   0.858  0.00  0.00    +0.112 A 
ATOM      3  C   UNL     1      -3.330  -1.551   1.101  0.00  0.00    +0.019 A 
ATOM      4  C   UNL     1      -3.993  -2.157   0.020  0.00  0.00    -0.017 A 
ATOM      5  C   UNL     1      -3.505  -1.954  -1.268  0.00  0.00    +0.120 A 
ATOM      6  C   UNL     1      -2.359  -1.141  -1.459  0.00  0.00    +0.270 A 
ATOM      7  O   UNL     1      -1.930  -0.957  -2.585  0.00  0.00    -0.266 OA
ATOM      8  C   UNL     1      -5.212  -3.012   0.252  0.00  0.00    +0.046 C 
ENDROOT
BRANCH   3   9
ATOM      9  C   UNL     1      -3.817  -1.744   2.468  0.00  0.00    +0.032 C 
ATOM     10  C   UNL     1      -5.026  -1.240   2.837  0.00  0.00    +0.077 C 
ATOM     11  C   UNL     1      -5.929  -0.413   2.101  0.00  0.00    +0.259 C 
ATOM     12  O   UNL     1      -5.667  -0.052   0.968  0.00  0.00    -0.269 OA
ATOM     13  N   UNL     1      -7.057  -0.053   2.687  0.00  0.00    -0.251 N 
ATOM     14  C   UNL     1      -7.348  -0.454   3.944  0.00  0.00    +0.121 C 
ATOM     15  S   UNL     1      -8.734  -0.109   4.887  0.00  0.00    -0.027 S 
ATOM     16  S   UNL     1      -5.921  -1.441   4.371  0.00  0.00    -0.061 S 
BRANCH  13  17
ATOM     17  C   UNL     1      -8.007   0.795   1.963  0.00  0.00    +0.105 C 
ATOM     18  C   UNL     1      -8.250   2.093   2.751  0.00  0.00    +0.047 C 
ATOM     19  C   UNL     1      -9.475   2.841   2.170  0.00  0.00    +0.168 C 
ATOM     20  S   UNL     1     -10.489   1.476   1.472  0.00  0.00    -0.029 S 
ATOM     21  O   UNL     1     -10.595   1.650   0.066  0.00  0.00    -0.174 OA
ATOM     22  O   UNL     1     -11.670   1.333   2.250  0.00  0.00    -0.174 OA
ATOM     23  C   UNL     1      -9.367   0.055   1.818  0.00  0.00    +0.188 C 
ENDBRANCH  13  17
ENDBRANCH   3   9
BRANCH   2  24
ATOM     24  N   UNL     1      -1.547  -0.168   1.903  0.00  0.00    -0.316 N 
ATOM     25  C   UNL     1      -0.385  -0.816   2.526  0.00  0.00    +0.107 C 
ATOM     26  C   UNL     1      -0.629  -0.923   4.034  0.00  0.00    +0.022 C 
ATOM     27  C   UNL     1      -0.951   0.464   4.595  0.00  0.00    -0.011 C 
ATOM     28  C   UNL     1      -2.224   1.000   3.936  0.00  0.00    +0.022 C 
ATOM     29  C   UNL     1      -1.994   1.132   2.423  0.00  0.00    +0.107 C 
ATOM     30  C   UNL     1      -1.162   0.366   6.107  0.00  0.00    +0.007 C 
ENDBRANCH   2  24
BRANCH   1  32
ATOM     31  C   UNL     1      -0.987   1.683  -0.966  0.00  0.00    +0.027 C 
ATOM     32  C   UNL     1      -0.553   0.254  -0.633  0.00  0.00    +0.123 C 
ENDBRANCH   1  32
BRANCH   5  33
ATOM     33  C   UNL     1      -4.158  -2.558  -2.390  0.00  0.00    +0.105 C 
ATOM     34  N   UNL     1      -4.676  -3.037  -3.281  0.00  0.00    -0.191 NA
ENDBRANCH   5  33
TORSDOF 5
