REMARK  Name = ZINC63515533
REMARK  12 active torsions:
REMARK  status: ('A' for Active; 'I' for Inactive)
REMARK    1  A    between atoms: C_1  and  C_2
REMARK    2  A    between atoms: C_4  and  O_32
REMARK    3  A    between atoms: C_5  and  S_10
REMARK    4  A    between atoms: C_6  and  C_9
REMARK    5  A    between atoms: S_10  and  N_13
REMARK    6  A    between atoms: N_13  and  C_14
REMARK    7  A    between atoms: C_14  and  C_15
REMARK    8  A    between atoms: C_15  and  C_16
REMARK    9  A    between atoms: C_19  and  O_27
REMARK   10  A    between atoms: C_24  and  C_26
REMARK   11  A    between atoms: O_27  and  C_28
REMARK   12  A    between atoms: O_32  and  C_33
REMARK                            x       y       z     vdW  Elec       q    Type
REMARK                         _______ _______ _______ _____ _____    ______ ____
ROOT
ATOM      1  C   UNL     1       1.270  -4.068   0.987  0.00  0.00    +0.110 C 
ENDROOT
BRANCH   1   2
ATOM      2  N   UNL     1       0.967  -4.382  -0.411  0.00  0.00    -0.190 NA
ATOM      3  H   UNL     1       1.412  -5.124  -0.850  0.00  0.00    +0.148 HD
BRANCH   2   4
ATOM      4  S   UNL     1      -0.138  -3.471  -1.244  0.00  0.00    +0.062 S 
ATOM      5  O   UNL     1      -1.298  -3.393  -0.426  0.00  0.00    -0.153 OA
ATOM      6  O   UNL     1      -0.172  -3.985  -2.568  0.00  0.00    -0.153 OA
BRANCH   4  11
ATOM      7  C   UNL     1       2.092   2.127  -1.624  0.00  0.00    +0.045 C 
ATOM      8  C   UNL     1       1.534   0.731  -1.527  0.00  0.00    -0.028 A 
ATOM      9  C   UNL     1       0.613   0.422  -0.545  0.00  0.00    +0.052 A 
ATOM     10  C   UNL     1       0.099  -0.864  -0.456  0.00  0.00    +0.147 A 
ATOM     11  C   UNL     1       0.512  -1.837  -1.354  0.00  0.00    +0.151 A 
ATOM     12  C   UNL     1       1.433  -1.525  -2.335  0.00  0.00    -0.002 A 
ATOM     13  C   UNL     1       1.940  -0.240  -2.426  0.00  0.00    +0.049 A 
ATOM     14 CL   UNL     1       3.091   0.152  -3.664  0.00  0.00    -0.083 Cl
ATOM     15  C   UNL     1       1.881  -2.582  -3.311  0.00  0.00    +0.047 C 
BRANCH  10  16
ATOM     16  O   UNL     1      -0.806  -1.169   0.510  0.00  0.00    -0.493 OA
ATOM     17  C   UNL     1      -1.185  -0.118   1.401  0.00  0.00    +0.277 C 
ENDBRANCH  10  16
ENDBRANCH   4  11
ENDBRANCH   2   4
ENDBRANCH   1   2
BRANCH   1  18
ATOM     18  C   UNL     1       2.584  -4.742   1.388  0.00  0.00    +0.050 C 
BRANCH  18  19
ATOM     19  C   UNL     1       2.901  -4.411   2.823  0.00  0.00    -0.037 C 
ATOM     20  C   UNL     1       2.171  -3.640   3.660  0.00  0.00    +0.003 A 
ATOM     21  C   UNL     1       0.912  -2.905   3.493  0.00  0.00    +0.056 A 
ATOM     22  C   UNL     1       0.408  -2.200   4.534  0.00  0.00    +0.131 A 
ATOM     23  C   UNL     1       1.050  -2.144   5.783  0.00  0.00    +0.048 A 
ATOM     24  C   UNL     1       2.211  -2.786   6.034  0.00  0.00    +0.029 A 
ATOM     25  C   UNL     1       2.846  -3.580   4.977  0.00  0.00    +0.043 A 
ATOM     26  N   UNL     1       3.949  -4.285   4.955  0.00  0.00    -0.378 N 
ATOM     27  C   UNL     1       4.097  -4.880   3.622  0.00  0.00    +0.103 C 
ATOM     28  C   UNL     1       5.391  -4.390   2.970  0.00  0.00    +0.035 C 
ATOM     29  H   UNL     1       4.563  -4.399   5.697  0.00  0.00    +0.160 HD
BRANCH  22  30
ATOM     30  O   UNL     1      -0.759  -1.524   4.364  0.00  0.00    -0.406 OA
BRANCH  30  31
ATOM     31  C   UNL     1      -1.254  -0.793   5.489  0.00  0.00    +0.575 C 
ATOM     32  F   UNL     1      -0.314   0.169   5.871  0.00  0.00    -0.133 F 
ATOM     33  F   UNL     1      -2.454  -0.162   5.142  0.00  0.00    -0.133 F 
ATOM     34  F   UNL     1      -1.481  -1.673   6.553  0.00  0.00    -0.133 F 
ENDBRANCH  30  31
ENDBRANCH  22  30
ENDBRANCH  18  19
ENDBRANCH   1  18
TORSDOF 8
