REMARK  Name = ZINC63686419
REMARK  7 active torsions:
REMARK  status: ('A' for Active; 'I' for Inactive)
REMARK    1  A    between atoms: C_1  and  C_2
REMARK    2  A    between atoms: C_5  and  C_29
REMARK    3  A    between atoms: C_11  and  C_13
REMARK    4  A    between atoms: C_13  and  S_14
REMARK    5  A    between atoms: S_14  and  C_15
REMARK    6  A    between atoms: C_19  and  C_23
REMARK    7  A    between atoms: N_21  and  C_22
REMARK                            x       y       z     vdW  Elec       q    Type
REMARK                         _______ _______ _______ _____ _____    ______ ____
ROOT
ATOM      1  C   UNL     1       0.146  -3.176   4.811  0.00  0.00    +0.125 C 
ENDROOT
BRANCH   1  12
ATOM      2  C   UNL     1      -1.818   0.637  -0.193  0.00  0.00    +0.044 C 
ATOM      3  C   UNL     1      -1.236  -0.752  -0.139  0.00  0.00    -0.038 A 
ATOM      4  C   UNL     1      -1.024  -1.453  -1.293  0.00  0.00    +0.004 A 
ATOM      5  C   UNL     1      -0.488  -2.733  -1.253  0.00  0.00    +0.005 A 
ATOM      6  C   UNL     1      -0.159  -3.320  -0.050  0.00  0.00    -0.026 A 
ATOM      7  C   UNL     1      -0.366  -2.624   1.137  0.00  0.00    +0.054 A 
ATOM      8  C   UNL     1      -0.905  -1.326   1.088  0.00  0.00    +0.048 A 
ATOM      9  C   UNL     1      -1.111  -0.604   2.356  0.00  0.00    +0.190 A 
ATOM     10  O   UNL     1      -1.580   0.523   2.371  0.00  0.00    -0.287 OA
ATOM     11  C   UNL     1      -0.748  -1.260   3.555  0.00  0.00    +0.073 A 
ATOM     12  C   UNL     1      -0.231  -2.506   3.515  0.00  0.00    +0.030 A 
ATOM     13  N   UNL     1      -0.049  -3.182   2.355  0.00  0.00    -0.357 N 
ATOM     14  C   UNL     1       0.422  -4.710  -0.021  0.00  0.00    +0.046 C 
ATOM     15  H   UNL     1       0.326  -4.076   2.382  0.00  0.00    +0.166 HD
ENDBRANCH   1  12
BRANCH   1  16
ATOM     16  S   UNL     1      -1.091  -4.437   5.221  0.00  0.00    -0.119 S 
BRANCH  16  17
ATOM     17  C   UNL     1      -0.499  -5.140   6.785  0.00  0.00    +0.200 C 
ATOM     18  N   UNL     1       0.868  -5.682   6.613  0.00  0.00    -0.229 NA
ATOM     19  N   UNL     1       1.550  -5.369   7.879  0.00  0.00    -0.233 NA
ATOM     20  C   UNL     1       1.016  -4.026   8.225  0.00  0.00    +0.171 C 
ATOM     21  N   UNL     1      -0.407  -4.083   7.813  0.00  0.00    -0.260 NA
ATOM     22  C   UNL     1      -1.276  -4.385   8.959  0.00  0.00    +0.109 C 
ATOM     23  H   UNL     1       0.845  -6.678   6.451  0.00  0.00    +0.143 HD
ATOM     24  H   UNL     1       1.317  -6.045   8.591  0.00  0.00    +0.143 HD
BRANCH  20  25
ATOM     25  C   UNL     1       1.129  -3.779   9.707  0.00  0.00    -0.015 A 
ATOM     26  C   UNL     1       0.870  -4.802  10.600  0.00  0.00    +0.006 A 
ATOM     27  C   UNL     1       0.974  -4.576  11.960  0.00  0.00    +0.000 A 
ATOM     28  C   UNL     1       1.337  -3.326  12.427  0.00  0.00    +0.000 A 
ATOM     29  C   UNL     1       1.596  -2.303  11.534  0.00  0.00    +0.000 A 
ATOM     30  C   UNL     1       1.497  -2.531  10.174  0.00  0.00    +0.006 A 
ENDBRANCH  20  25
ENDBRANCH  16  17
ENDBRANCH   1  16
TORSDOF 4
