REMARK  Name = ZINC39421879
REMARK  9 active torsions:
REMARK  status: ('A' for Active; 'I' for Inactive)
REMARK    1  A    between atoms: C_1  and  C_2
REMARK    2  A    between atoms: C_2  and  C_3
REMARK    3  A    between atoms: C_8  and  C_12
REMARK    4  A    between atoms: C_12  and  C_14
REMARK    5  A    between atoms: C_14  and  C_16
REMARK    6  A    between atoms: C_14  and  S_22
REMARK    7  A    between atoms: S_22  and  C_23
REMARK    8  A    between atoms: C_27  and  C_31
REMARK    9  A    between atoms: N_29  and  C_30
REMARK                            x       y       z     vdW  Elec       q    Type
REMARK                         _______ _______ _______ _____ _____    ______ ____
ROOT
ATOM      1  C   UNL     1      -0.794  -2.445   6.814  0.00  0.00    +0.150 C 
ENDROOT
BRANCH   1   2
ATOM      2  C   UNL     1      -0.789  -1.010   7.275  0.00  0.00    -0.027 A 
ATOM      3  C   UNL     1       0.334  -0.483   7.883  0.00  0.00    +0.005 A 
ATOM      4  C   UNL     1       0.339   0.833   8.306  0.00  0.00    +0.000 A 
ATOM      5  C   UNL     1      -0.781   1.622   8.119  0.00  0.00    +0.000 A 
ATOM      6  C   UNL     1      -1.904   1.095   7.509  0.00  0.00    +0.000 A 
ATOM      7  C   UNL     1      -1.907  -0.220   7.083  0.00  0.00    +0.005 A 
ENDBRANCH   1   2
BRANCH   1   8
ATOM      8  C   UNL     1       0.242  -2.630   5.736  0.00  0.00    +0.179 C 
ATOM      9  O   UNL     1       1.353  -3.029   6.023  0.00  0.00    -0.291 OA
BRANCH   8  15
ATOM     10  C   UNL     1       0.691  -2.089   0.790  0.00  0.00    -0.024 A 
ATOM     11  C   UNL     1       1.977  -2.500   0.753  0.00  0.00    +0.005 A 
ATOM     12  C   UNL     1       2.668  -2.884   1.914  0.00  0.00    +0.001 A 
ATOM     13  C   UNL     1       2.096  -2.868   3.138  0.00  0.00    +0.010 A 
ATOM     14  C   UNL     1       0.751  -2.455   3.292  0.00  0.00    +0.006 A 
ATOM     15  C   UNL     1      -0.078  -2.340   4.393  0.00  0.00    +0.025 C 
ATOM     16  C   UNL     1      -1.400  -1.839   3.855  0.00  0.00    +0.152 C 
ATOM     17  N   UNL     1      -1.222  -1.695   2.407  0.00  0.00    -0.380 N 
ATOM     18  C   UNL     1      -0.006  -2.037   2.086  0.00  0.00    +0.046 A 
ATOM     19  H   UNL     1      -1.901  -1.390   1.785  0.00  0.00    +0.160 HD
BRANCH  10  21
ATOM     20  C   UNL     1       0.081  -0.168  -0.654  0.00  0.00    +0.009 C 
ATOM     21  C   UNL     1      -0.019  -1.685  -0.476  0.00  0.00    +0.034 C 
ENDBRANCH  10  21
ENDBRANCH   8  15
ENDBRANCH   1   8
BRANCH   1  22
ATOM     22  S   UNL     1      -0.409  -3.531   8.216  0.00  0.00    -0.109 S 
BRANCH  22  23
ATOM     23  C   UNL     1      -1.853  -3.375   9.302  0.00  0.00    +0.201 C 
ATOM     24  N   UNL     1      -1.744  -2.160  10.151  0.00  0.00    -0.229 NA
ATOM     25  N   UNL     1      -2.584  -2.451  11.316  0.00  0.00    -0.233 NA
ATOM     26  C   UNL     1      -2.674  -3.921  11.423  0.00  0.00    +0.171 C 
ATOM     27  N   UNL     1      -1.884  -4.478  10.299  0.00  0.00    -0.260 NA
ATOM     28  C   UNL     1      -2.527  -5.675   9.740  0.00  0.00    +0.109 C 
ATOM     29  H   UNL     1      -2.078  -1.345   9.660  0.00  0.00    +0.143 HD
ATOM     30  H   UNL     1      -2.190  -2.051  12.155  0.00  0.00    +0.143 HD
BRANCH  26  31
ATOM     31  C   UNL     1      -2.100  -4.380  12.739  0.00  0.00    -0.012 A 
ATOM     32  C   UNL     1      -1.381  -5.562  12.826  0.00  0.00    +0.026 A 
ATOM     33  C   UNL     1      -0.870  -5.950  14.050  0.00  0.00    +0.111 A 
ATOM     34  N   UNL     1      -1.060  -5.211  15.126  0.00  0.00    -0.263 NA
ATOM     35  C   UNL     1      -1.738  -4.081  15.080  0.00  0.00    +0.111 A 
ATOM     36  C   UNL     1      -2.274  -3.626  13.890  0.00  0.00    +0.026 A 
ENDBRANCH  26  31
ENDBRANCH  22  23
ENDBRANCH   1  22
TORSDOF 7
