REMARK  Name = ZINC37641149
REMARK  4 active torsions:
REMARK  status: ('A' for Active; 'I' for Inactive)
REMARK    1  A    between atoms: C_1  and  C_2
REMARK    2  A    between atoms: C_3  and  C_25
REMARK    3  A    between atoms: N_11  and  C_16
REMARK    4  A    between atoms: C_16  and  C_17
REMARK                            x       y       z     vdW  Elec       q    Type
REMARK                         _______ _______ _______ _____ _____    ______ ____
ROOT
ATOM      1  C   UNL     1       0.105   1.412  -0.245  0.00  0.00    +0.039 C 
ATOM      2  C   UNL     1       0.098  -0.094  -0.191  0.00  0.00    -0.064 C 
ATOM      3  C   UNL     1      -0.969  -0.870  -0.164  0.00  0.00    -0.042 C 
ATOM      4  C   UNL     1      -0.599  -2.312  -0.112  0.00  0.00    +0.003 A 
ATOM      5  C   UNL     1       0.759  -2.386  -0.109  0.00  0.00    +0.004 A 
ATOM      6  S   UNL     1       1.127  -4.118  -0.047  0.00  0.00    -0.074 S 
ATOM      7  C   UNL     1      -0.531  -4.747  -0.025  0.00  0.00    +0.095 A 
ATOM      8  C   UNL     1      -1.321  -3.602  -0.066  0.00  0.00    +0.078 A 
ATOM      9  C   UNL     1      -2.781  -3.830  -0.057  0.00  0.00    +0.266 A 
ATOM     10  O   UNL     1      -3.552  -2.889  -0.092  0.00  0.00    -0.267 OA
ATOM     11  N   UNL     1      -3.246  -5.091  -0.012  0.00  0.00    -0.256 N 
ATOM     12  C   UNL     1      -2.422  -6.151   0.027  0.00  0.00    +0.330 A 
ATOM     13  O   UNL     1      -2.893  -7.271   0.068  0.00  0.00    -0.246 OA
ATOM     14  N   UNL     1      -1.083  -5.997   0.019  0.00  0.00    -0.301 N 
ATOM     15  H   UNL     1      -0.507  -6.777   0.048  0.00  0.00    +0.171 HD
ATOM     16  C   UNL     1       1.313  -0.994  -0.166  0.00  0.00    +0.073 C 
ATOM     17  C   UNL     1      -2.387  -0.360  -0.182  0.00  0.00    +0.044 C 
ENDROOT
BRANCH  11  18
ATOM     18  C   UNL     1      -4.694  -5.316  -0.004  0.00  0.00    +0.166 C 
BRANCH  18  19
ATOM     19  C   UNL     1      -5.161  -5.530   1.413  0.00  0.00    -0.009 A 
ATOM     20  C   UNL     1      -5.265  -6.812   1.920  0.00  0.00    +0.007 A 
ATOM     21  C   UNL     1      -5.693  -7.010   3.219  0.00  0.00    +0.000 A 
ATOM     22  C   UNL     1      -6.018  -5.926   4.013  0.00  0.00    +0.001 A 
ATOM     23  C   UNL     1      -5.915  -4.643   3.507  0.00  0.00    +0.020 A 
ATOM     24  C   UNL     1      -5.481  -4.445   2.208  0.00  0.00    +0.046 A 
ATOM     25 CL   UNL     1      -5.345  -2.834   1.575  0.00  0.00    -0.083 Cl
ENDBRANCH  18  19
ENDBRANCH  11  18
TORSDOF 2
