REMARK  Name = ZINC24034345
REMARK  10 active torsions:
REMARK  status: ('A' for Active; 'I' for Inactive)
REMARK    1  A    between atoms: C_1  and  C_2
REMARK    2  A    between atoms: C_2  and  N_3
REMARK    3  A    between atoms: C_4  and  C_6
REMARK    4  A    between atoms: C_6  and  O_7
REMARK    5  A    between atoms: O_7  and  C_8
REMARK    6  A    between atoms: C_11  and  C_16
REMARK    7  A    between atoms: C_13  and  O_14
REMARK    8  A    between atoms: O_14  and  C_15
REMARK    9  A    between atoms: N_27  and  C_28
REMARK   10  A    between atoms: C_28  and  C_29
REMARK                            x       y       z     vdW  Elec       q    Type
REMARK                         _______ _______ _______ _____ _____    ______ ____
ROOT
ATOM      1  C   UNL     1       2.485  -0.414  -2.080  0.00  0.00    +0.193 C 
ATOM      2  N   UNL     1       2.323  -0.167  -3.521  0.00  0.00    -0.321 N 
ATOM      3  C   UNL     1       3.303   0.566  -4.181  0.00  0.00    +0.041 A 
ATOM      4  C   UNL     1       3.598   0.358  -5.517  0.00  0.00    +0.024 A 
ATOM      5  C   UNL     1       4.588   1.108  -6.123  0.00  0.00    +0.002 A 
ATOM      6  C   UNL     1       5.288   2.064  -5.404  0.00  0.00    +0.001 A 
ATOM      7  C   UNL     1       5.006   2.284  -4.071  0.00  0.00    +0.015 A 
ATOM      8  C   UNL     1       4.009   1.537  -3.449  0.00  0.00    +0.058 A 
ATOM      9  C   UNL     1       3.664   1.734  -2.029  0.00  0.00    +0.250 C 
ATOM     10  O   UNL     1       4.062   2.714  -1.430  0.00  0.00    -0.270 OA
ATOM     11  N   UNL     1       2.902   0.814  -1.403  0.00  0.00    -0.271 N 
ATOM     12  H   UNL     1       1.442  -0.559  -4.051  0.00  0.00    +0.148 HD
ENDROOT
BRANCH   1  16
ATOM     13  C   UNL     1       5.446  -3.438  -1.467  0.00  0.00    +0.163 A 
ATOM     14  C   UNL     1       5.245  -2.458  -0.509  0.00  0.00    +0.050 A 
ATOM     15  C   UNL     1       4.291  -1.478  -0.713  0.00  0.00    +0.011 A 
ATOM     16  C   UNL     1       3.528  -1.481  -1.866  0.00  0.00    -0.006 A 
ATOM     17  C   UNL     1       3.724  -2.456  -2.826  0.00  0.00    +0.056 A 
ATOM     18  C   UNL     1       4.683  -3.437  -2.631  0.00  0.00    +0.162 A 
BRANCH  18  19
ATOM     19  O   UNL     1       4.877  -4.397  -3.574  0.00  0.00    -0.491 OA
ATOM     20  C   UNL     1       4.057  -4.334  -4.743  0.00  0.00    +0.277 C 
ENDBRANCH  18  19
BRANCH  13  21
ATOM     21  O   UNL     1       6.388  -4.399  -1.271  0.00  0.00    -0.479 OA
BRANCH  21  22
ATOM     22  C   UNL     1       7.134  -4.338  -0.054  0.00  0.00    +0.324 C 
BRANCH  22  24
ATOM     23  N   UNL     1       8.941  -5.617   1.049  0.00  0.00    -0.313 N 
ATOM     24  C   UNL     1       8.123  -5.474  -0.013  0.00  0.00    +0.251 C 
ATOM     25  O   UNL     1       8.184  -6.259  -0.935  0.00  0.00    -0.272 OA
ATOM     26  H   UNL     1       8.886  -4.905   1.885  0.00  0.00    +0.149 HD
BRANCH  23  28
ATOM     27  C   UNL     1      10.701  -6.656   2.392  0.00  0.00    +0.024 C 
ATOM     28  C   UNL     1       9.903  -6.722   1.089  0.00  0.00    +0.101 C 
ENDBRANCH  23  28
ENDBRANCH  22  24
ENDBRANCH  21  22
ENDBRANCH  13  21
ENDBRANCH   1  16
BRANCH  11  29
ATOM     29  C   UNL     1       2.489   1.045  -0.016  0.00  0.00    +0.145 C 
BRANCH  29  30
ATOM     30  C   UNL     1       1.175   1.783   0.000  0.00  0.00    -0.026 A 
ATOM     31  C   UNL     1       1.160   3.165   0.007  0.00  0.00    +0.009 A 
ATOM     32  C   UNL     1      -0.043   3.846   0.022  0.00  0.00    +0.050 A 
ATOM     33  C   UNL     1      -1.237   3.144   0.031  0.00  0.00    +0.166 A 
ATOM     34  C   UNL     1      -1.222   1.752   0.017  0.00  0.00    +0.167 A 
ATOM     35  C   UNL     1      -0.013   1.076   0.008  0.00  0.00    +0.054 A 
ATOM     36  O   UNL     1      -2.510   1.302   0.035  0.00  0.00    -0.453 OA
ATOM     37  C   UNL     1      -3.306   2.424   0.460  0.00  0.00    +0.466 C 
ATOM     38  O   UNL     1      -2.535   3.567   0.046  0.00  0.00    -0.453 OA
ENDBRANCH  29  30
ENDBRANCH  11  29
TORSDOF 8
