REMARK  Name = ZINC07554686
REMARK  6 active torsions:
REMARK  status: ('A' for Active; 'I' for Inactive)
REMARK    1  A    between atoms: C_1  and  C_2
REMARK    2  A    between atoms: C_2  and  C_3
REMARK    3  A    between atoms: C_6  and  N_9
REMARK    4  A    between atoms: C_13  and  C_14
REMARK    5  A    between atoms: C_23  and  C_24
REMARK    6  A    between atoms: C_23  and  C_26
REMARK                            x       y       z     vdW  Elec       q    Type
REMARK                         _______ _______ _______ _____ _____    ______ ____
ROOT
ATOM      1  N   UNL     1       2.340  -1.700  -4.570  0.00  0.00    -0.269 N 
ATOM      2  C   UNL     1       1.722  -2.065  -5.680  0.00  0.00    +0.270 A 
ATOM      3  O   UNL     1       0.524  -1.905  -5.825  0.00  0.00    -0.266 OA
ATOM      4  C   UNL     1       2.553  -2.676  -6.737  0.00  0.00    +0.079 A 
ATOM      5  C   UNL     1       2.189  -3.137  -7.961  0.00  0.00    +0.028 C 
ATOM      6  S   UNL     1       4.167  -2.645  -5.970  0.00  0.00    -0.064 S 
ATOM      7  C   UNL     1       3.694  -1.884  -4.426  0.00  0.00    +0.116 A 
ATOM      8  C   UNL     1       4.503  -1.557  -3.336  0.00  0.00    +0.159 C 
ENDROOT
BRANCH   5   9
ATOM      9  C   UNL     1       0.827  -2.902  -8.459  0.00  0.00    -0.022 A 
ATOM     10  C   UNL     1       0.177  -1.692  -8.188  0.00  0.00    +0.008 A 
ATOM     11  C   UNL     1      -1.101  -1.480  -8.659  0.00  0.00    +0.002 A 
ATOM     12  C   UNL     1      -1.743  -2.459  -9.398  0.00  0.00    +0.020 A 
ATOM     13  C   UNL     1      -1.108  -3.659  -9.670  0.00  0.00    +0.042 A 
ATOM     14  C   UNL     1       0.174  -3.885  -9.211  0.00  0.00    +0.028 A 
ATOM     15 CL   UNL     1      -1.923  -4.880 -10.597  0.00  0.00    -0.084 Cl
ENDBRANCH   5   9
BRANCH   1  19
ATOM     16  C   UNL     1       0.158   0.043  -1.476  0.00  0.00    -0.047 A 
ATOM     17  C   UNL     1       0.035  -1.311  -1.729  0.00  0.00    +0.005 A 
ATOM     18  C   UNL     1       0.757  -1.892  -2.754  0.00  0.00    +0.026 A 
ATOM     19  C   UNL     1       1.606  -1.114  -3.530  0.00  0.00    +0.051 A 
ATOM     20  C   UNL     1       1.727   0.245  -3.273  0.00  0.00    +0.026 A 
ATOM     21  C   UNL     1       0.999   0.821  -2.250  0.00  0.00    +0.005 A 
BRANCH  16  23
ATOM     22  C   UNL     1      -1.983   1.149  -0.891  0.00  0.00    +0.009 C 
ATOM     23  C   UNL     1      -0.630   0.673  -0.356  0.00  0.00    +0.032 C 
ENDBRANCH  16  23
ENDBRANCH   1  19
BRANCH   8  24
ATOM     24  C   UNL     1       5.923  -1.717  -3.425  0.00  0.00    +0.113 C 
ATOM     25  N   UNL     1       7.049  -1.844  -3.495  0.00  0.00    -0.190 NA
ENDBRANCH   8  24
BRANCH   8  26
ATOM     26  C   UNL     1       3.912  -1.062  -2.129  0.00  0.00    +0.113 C 
ATOM     27  N   UNL     1       3.443  -0.669  -1.171  0.00  0.00    -0.190 NA
ENDBRANCH   8  26
TORSDOF 5
