REMARK  Name = ZINC33604203
REMARK  4 active torsions:
REMARK  status: ('A' for Active; 'I' for Inactive)
REMARK    1  A    between atoms: C_1  and  O_2
REMARK    2  A    between atoms: O_2  and  C_3
REMARK    3  A    between atoms: C_6  and  C_9
REMARK    4  A    between atoms: C_17  and  C_18
REMARK                            x       y       z     vdW  Elec       q    Type
REMARK                         _______ _______ _______ _____ _____    ______ ____
ROOT
ATOM      1  C   UNL     1      -0.033   0.279   1.344  0.00  0.00    +0.183 A 
ATOM      2  N   UNL     1       1.228  -0.178   1.333  0.00  0.00    -0.200 NA
ATOM      3  C   UNL     1       2.034   0.793   1.008  0.00  0.00    +0.200 A 
ATOM      4  N   UNL     1       1.317   1.935   0.791  0.00  0.00    -0.169 N 
ATOM      5  N   UNL     1      -0.033   1.550   1.024  0.00  0.00    -0.141 NA
ATOM      6  C   UNL     1       1.968   3.054   0.444  0.00  0.00    +0.288 A 
ATOM      7  O   UNL     1       1.369   4.093   0.241  0.00  0.00    -0.265 OA
ATOM      8  C   UNL     1       3.432   2.980   0.317  0.00  0.00    +0.082 A 
ATOM      9  C   UNL     1       4.319   3.952  -0.017  0.00  0.00    +0.028 C 
ATOM     10  S   UNL     1       3.724   1.264   0.720  0.00  0.00    -0.044 S 
ENDROOT
BRANCH   9  11
ATOM     11  C   UNL     1       5.763   3.693   0.079  0.00  0.00    -0.024 A 
ATOM     12  C   UNL     1       6.228   2.520   0.684  0.00  0.00    +0.009 A 
ATOM     13  C   UNL     1       7.584   2.283   0.765  0.00  0.00    +0.015 A 
ATOM     14  C   UNL     1       8.484   3.206   0.260  0.00  0.00    +0.013 A 
ATOM     15  C   UNL     1       8.031   4.372  -0.335  0.00  0.00    +0.015 A 
ATOM     16  C   UNL     1       6.679   4.622  -0.429  0.00  0.00    +0.009 A 
ATOM     17  I   UNL     1      10.542   2.837   0.396  0.00  0.00    -0.044 I 
ENDBRANCH   9  11
BRANCH   1  21
ATOM     18  C   UNL     1      -3.484  -2.028   2.272  0.00  0.00    +0.120 A 
ATOM     19  C   UNL     1      -2.229  -2.619   2.295  0.00  0.00    +0.046 A 
ATOM     20  C   UNL     1      -1.108  -1.874   1.995  0.00  0.00    +0.015 A 
ATOM     21  C   UNL     1      -1.237  -0.525   1.668  0.00  0.00    +0.021 A 
ATOM     22  C   UNL     1      -2.498   0.067   1.650  0.00  0.00    +0.015 A 
ATOM     23  C   UNL     1      -3.616  -0.684   1.945  0.00  0.00    +0.046 A 
BRANCH  18  25
ATOM     24  C   UNL     1      -5.847  -2.093   2.524  0.00  0.00    +0.277 C 
ATOM     25  O   UNL     1      -4.587  -2.764   2.568  0.00  0.00    -0.495 OA
ENDBRANCH  18  25
ENDBRANCH   1  21
TORSDOF 3
