REMARK  Name = ZINC44935081
REMARK  9 active torsions:
REMARK  status: ('A' for Active; 'I' for Inactive)
REMARK    1  A    between atoms: C_1  and  C_2
REMARK    2  A    between atoms: C_5  and  C_9
REMARK    3  A    between atoms: C_6  and  C_8
REMARK    4  A    between atoms: C_9  and  C_11
REMARK    5  A    between atoms: C_9  and  N_12
REMARK    6  A    between atoms: C_13  and  C_15
REMARK    7  A    between atoms: N_18  and  S_27
REMARK    8  A    between atoms: C_21  and  C_26
REMARK    9  A    between atoms: S_27  and  C_30
REMARK                            x       y       z     vdW  Elec       q    Type
REMARK                         _______ _______ _______ _____ _____    ______ ____
ROOT
ATOM      1  C   UNL     1       1.824  -6.451  -2.630  0.00  0.00    +0.277 C 
ATOM      2  C   UNL     1       3.019  -5.564  -3.010  0.00  0.00    +0.185 C 
ATOM      3  N   UNL     1       3.600  -6.108  -4.250  0.00  0.00    -0.200 N 
ATOM      4  C   UNL     1       3.723  -7.502  -4.357  0.00  0.00    +0.093 A 
ATOM      5  C   UNL     1       4.510  -8.056  -5.354  0.00  0.00    +0.031 A 
ATOM      6  C   UNL     1       4.625  -9.430  -5.457  0.00  0.00    -0.048 A 
ATOM      7  C   UNL     1       3.956 -10.250  -4.567  0.00  0.00    +0.007 A 
ATOM      8  C   UNL     1       3.170  -9.702  -3.570  0.00  0.00    +0.048 A 
ATOM      9  C   UNL     1       3.050  -8.326  -3.458  0.00  0.00    +0.144 A 
ATOM     10  O   UNL     1       2.278  -7.797  -2.471  0.00  0.00    -0.476 OA
ATOM     11  C   UNL     1       5.481 -10.034  -6.540  0.00  0.00    +0.044 C 
ENDROOT
BRANCH   1  13
ATOM     12  N   UNL     1       0.642  -4.749  -1.279  0.00  0.00    -0.306 N 
ATOM     13  C   UNL     1       1.224  -5.963  -1.337  0.00  0.00    +0.256 C 
ATOM     14  O   UNL     1       1.266  -6.664  -0.347  0.00  0.00    -0.272 OA
ATOM     15  H   UNL     1       0.610  -4.189  -2.070  0.00  0.00    +0.149 HD
BRANCH  12  16
ATOM     16  C   UNL     1       0.059  -4.275  -0.021  0.00  0.00    +0.100 C 
ATOM     17  C   UNL     1      -1.370  -4.804   0.109  0.00  0.00    +0.033 C 
BRANCH  16  22
ATOM     18  C   UNL     1      -0.018   1.503   0.010  0.00  0.00    +0.044 C 
ATOM     19  C   UNL     1       0.002  -0.004   0.002  0.00  0.00    -0.050 A 
ATOM     20  C   UNL     1       0.006  -0.689  -1.199  0.00  0.00    +0.004 A 
ATOM     21  C   UNL     1       0.025  -2.071  -1.207  0.00  0.00    +0.006 A 
ATOM     22  C   UNL     1       0.040  -2.768  -0.013  0.00  0.00    -0.025 A 
ATOM     23  C   UNL     1       0.037  -2.084   1.188  0.00  0.00    -0.045 A 
ATOM     24  C   UNL     1       0.023  -0.702   1.195  0.00  0.00    +0.007 A 
ATOM     25  C   UNL     1       0.054  -2.845   2.489  0.00  0.00    +0.044 C 
ENDBRANCH  16  22
ENDBRANCH  12  16
ENDBRANCH   1  13
BRANCH   3  26
ATOM     26  S   UNL     1       4.091  -5.108  -5.475  0.00  0.00    +0.043 S 
ATOM     27  O   UNL     1       3.997  -5.901  -6.650  0.00  0.00    -0.155 OA
ATOM     28  O   UNL     1       3.301  -3.937  -5.327  0.00  0.00    -0.155 OA
ATOM     29  C   UNL     1       5.829  -4.740  -5.108  0.00  0.00    +0.218 C 
ENDBRANCH   3  26
TORSDOF 4
