REMARK  Name = ZINC02326313
REMARK  6 active torsions:
REMARK  status: ('A' for Active; 'I' for Inactive)
REMARK    1  A    between atoms: C_1  and  N_53
REMARK    2  A    between atoms: C_12  and  C_15
REMARK    3  A    between atoms: C_19  and  O_21
REMARK    4  A    between atoms: O_21  and  C_22
REMARK    5  A    between atoms: C_25  and  N_31
REMARK    6  A    between atoms: C_27  and  N_28
REMARK                            x       y       z     vdW  Elec       q    Type
REMARK                         _______ _______ _______ _____ _____    ______ ____
ROOT
ATOM      1  C   UNL     1      -5.775   7.483   0.043  0.00  0.00    -0.006 A 
ATOM      2  C   UNL     1      -4.519   8.057  -0.032  0.00  0.00    +0.007 A 
ATOM      3  C   UNL     1      -3.393   7.256  -0.080  0.00  0.00    +0.004 A 
ATOM      4  C   UNL     1      -3.519   5.881  -0.047  0.00  0.00    +0.046 A 
ATOM      5  C   UNL     1      -4.779   5.303   0.022  0.00  0.00    +0.129 A 
ATOM      6  C   UNL     1      -5.908   6.109   0.070  0.00  0.00    +0.053 A 
ENDROOT
BRANCH   1  18
ATOM      7  C   UNL     1      -7.431   9.361  -8.290  0.00  0.00    -0.096 C 
ATOM      8  C   UNL     1      -8.698   8.616  -6.366  0.00  0.00    -0.074 C 
ATOM      9  C   UNL     1      -8.559   7.913  -5.012  0.00  0.00    +0.018 C 
ATOM     10  C   UNL     1      -7.730   8.806  -4.095  0.00  0.00    -0.027 A 
ATOM     11  C   UNL     1      -6.973   9.797  -4.620  0.00  0.00    -0.021 A 
ATOM     12  S   UNL     1      -6.202  10.570  -3.225  0.00  0.00    -0.080 S 
ATOM     13  C   UNL     1      -6.868   9.602  -1.980  0.00  0.00    +0.080 A 
ATOM     14  C   UNL     1      -7.684   8.677  -2.650  0.00  0.00    +0.068 A 
ATOM     15  C   UNL     1      -8.404   7.678  -1.826  0.00  0.00    +0.248 C 
ATOM     16  O   UNL     1      -9.215   6.916  -2.320  0.00  0.00    -0.270 OA
ATOM     17  N   UNL     1      -8.123   7.647  -0.508  0.00  0.00    -0.289 N 
ATOM     18  C   UNL     1      -7.000   8.359   0.095  0.00  0.00    +0.190 C 
ATOM     19  N   UNL     1      -6.723   9.620  -0.617  0.00  0.00    -0.316 N 
ATOM     20  C   UNL     1      -6.839  10.141  -6.071  0.00  0.00    -0.036 C 
ATOM     21  H   UNL     1      -8.698   7.123   0.071  0.00  0.00    +0.151 HD
ATOM     22  H   UNL     1      -6.452  10.422  -0.144  0.00  0.00    +0.149 HD
ATOM     23  N   UNL     1      -7.359   8.997  -6.859  0.00  0.00    +0.381 N 
ATOM     24  H   UNL     1      -6.723   8.199  -6.750  0.00  0.00    -0.082 HD
ENDBRANCH   1  18
BRANCH   5  25
ATOM     25  O   UNL     1      -4.907   3.950   0.049  0.00  0.00    -0.454 OA
BRANCH  25  26
ATOM     26  C   UNL     1      -5.030   3.298  -1.137  0.00  0.00    +0.159 A 
ATOM     27  C   UNL     1      -5.011   4.010  -2.328  0.00  0.00    +0.051 A 
ATOM     28  C   UNL     1      -5.131   3.344  -3.531  0.00  0.00    +0.036 A 
ATOM     29  C   UNL     1      -5.281   1.969  -3.550  0.00  0.00    +0.129 A 
ATOM     30  C   UNL     1      -5.301   1.257  -2.365  0.00  0.00    +0.069 A 
ATOM     31  C   UNL     1      -5.176   1.918  -1.159  0.00  0.00    +0.170 A 
BRANCH  31  32
ATOM     32  N   UNL     1      -5.197   1.155   0.110  0.00  0.00    +0.060 N 
ATOM     33  O   UNL     1      -5.325  -0.056   0.090  0.00  0.00    -0.126 OA
ATOM     34  O   UNL     1      -5.087   1.739   1.173  0.00  0.00    -0.126 OA
ENDBRANCH  31  32
BRANCH  29  35
ATOM     35  N   UNL     1      -5.415   1.258  -4.842  0.00  0.00    +0.057 N 
ATOM     36  O   UNL     1      -5.542   0.047  -4.860  0.00  0.00    -0.126 OA
ATOM     37  O   UNL     1      -5.403   1.885  -5.886  0.00  0.00    -0.126 OA
ENDBRANCH  29  35
ENDBRANCH  25  26
ENDBRANCH   5  25
TORSDOF 5
