REMARK  Name = ZINC20463761
REMARK  9 active torsions:
REMARK  status: ('A' for Active; 'I' for Inactive)
REMARK    1  A    between atoms: C_1  and  O_2
REMARK    2  A    between atoms: O_2  and  C_3
REMARK    3  A    between atoms: C_6  and  C_9
REMARK    4  A    between atoms: C_9  and  N_10
REMARK    5  A    between atoms: N_10  and  C_11
REMARK    6  A    between atoms: C_20  and  N_25
REMARK    7  A    between atoms: C_22  and  O_24
REMARK    8  A    between atoms: C_28  and  C_31
REMARK    9  A    between atoms: C_31  and  C_32
REMARK                            x       y       z     vdW  Elec       q    Type
REMARK                         _______ _______ _______ _____ _____    ______ ____
ROOT
ATOM      1  C   UNL     1       2.269  -3.335   6.599  0.00  0.00    +0.112 C 
ATOM      2  C   UNL     1       2.353  -4.845   6.321  0.00  0.00    +0.166 C 
ATOM      3  C   UNL     1       2.680  -5.552   7.657  0.00  0.00    +0.196 C 
ATOM      4  O   UNL     1       1.399  -5.849   8.243  0.00  0.00    -0.350 OA
ATOM      5  C   UNL     1       0.399  -5.324   7.351  0.00  0.00    +0.240 C 
ATOM      6  O   UNL     1       1.011  -5.301   6.022  0.00  0.00    -0.346 OA
ATOM      7  C   UNL     1       0.098  -3.875   7.765  0.00  0.00    +0.019 C 
ATOM      8  C   UNL     1       1.432  -3.115   7.865  0.00  0.00    +0.125 C 
ENDROOT
BRANCH   7   9
ATOM      9  N   UNL     1      -0.735  -3.233   6.739  0.00  0.00    +0.387 N 
ATOM     10  C   UNL     1      -1.973  -4.001   6.566  0.00  0.00    -0.078 C 
ATOM     11  C   UNL     1      -2.808  -3.383   5.442  0.00  0.00    -0.015 C 
ATOM     12  C   UNL     1      -3.150  -1.935   5.805  0.00  0.00    -0.010 C 
ATOM     13  C   UNL     1      -1.853  -1.162   6.057  0.00  0.00    -0.015 C 
ATOM     14  C   UNL     1      -1.053  -1.863   7.158  0.00  0.00    -0.078 C 
ATOM     15  H   UNL     1      -0.231  -3.208   5.865  0.00  0.00    -0.081 HD
BRANCH  12  16
ATOM     16  C   UNL     1      -3.917  -1.286   4.652  0.00  0.00    +0.038 C 
BRANCH  16  17
ATOM     17  C   UNL     1      -4.360   0.097   5.058  0.00  0.00    -0.047 A 
ATOM     18  C   UNL     1      -5.584   0.277   5.674  0.00  0.00    +0.003 A 
ATOM     19  C   UNL     1      -5.990   1.545   6.047  0.00  0.00    +0.000 A 
ATOM     20  C   UNL     1      -5.172   2.632   5.803  0.00  0.00    +0.000 A 
ATOM     21  C   UNL     1      -3.947   2.451   5.187  0.00  0.00    +0.000 A 
ATOM     22  C   UNL     1      -3.539   1.183   4.819  0.00  0.00    +0.003 A 
ENDBRANCH  16  17
ENDBRANCH  12  16
ENDBRANCH   7   9
BRANCH   1  23
ATOM     23  N   UNL     1       1.630  -2.659   5.462  0.00  0.00    -0.305 NA
ATOM     24  H   UNL     1       1.139  -1.831   5.763  0.00  0.00    +0.123 HD
BRANCH  23  25
ATOM     25  C   UNL     1       2.615  -2.338   4.420  0.00  0.00    +0.116 C 
BRANCH  25  29
ATOM     26  C   UNL     1       0.658  -0.378   1.166  0.00  0.00    +0.120 A 
ATOM     27  C   UNL     1       1.178   0.367   2.214  0.00  0.00    +0.046 A 
ATOM     28  C   UNL     1       1.810  -0.269   3.265  0.00  0.00    +0.008 A 
ATOM     29  C   UNL     1       1.925  -1.647   3.273  0.00  0.00    -0.033 A 
ATOM     30  C   UNL     1       1.407  -2.392   2.229  0.00  0.00    +0.008 A 
ATOM     31  C   UNL     1       0.769  -1.761   1.179  0.00  0.00    +0.046 A 
BRANCH  26  33
ATOM     32  C   UNL     1      -0.042   1.671   0.184  0.00  0.00    +0.277 C 
ATOM     33  O   UNL     1       0.035   0.245   0.131  0.00  0.00    -0.495 OA
ENDBRANCH  26  33
ENDBRANCH  25  29
ENDBRANCH  23  25
ENDBRANCH   1  23
BRANCH   8  34
ATOM     34  O   UNL     1       2.141  -3.619   8.999  0.00  0.00    -0.392 OA
ATOM     35  H   UNL     1       2.998  -3.196   9.147  0.00  0.00    +0.210 HD
ENDBRANCH   8  34
TORSDOF 8
