REMARK  Name = ZINC46658212
REMARK  9 active torsions:
REMARK  status: ('A' for Active; 'I' for Inactive)
REMARK    1  A    between atoms: C_4  and  S_23
REMARK    2  A    between atoms: C_5  and  N_7
REMARK    3  A    between atoms: C_8  and  C_10
REMARK    4  A    between atoms: C_10  and  O_11
REMARK    5  A    between atoms: O_11  and  C_12
REMARK    6  A    between atoms: C_12  and  C_14
REMARK    7  A    between atoms: C_17  and  S_19
REMARK    8  A    between atoms: S_19  and  N_22
REMARK    9  A    between atoms: S_23  and  C_24
REMARK                            x       y       z     vdW  Elec       q    Type
REMARK                         _______ _______ _______ _____ _____    ______ ____
ROOT
ATOM      1  N   UNL     1       1.245  -2.073  -0.033  0.00  0.00    -0.282 N 
ATOM      2  C   UNL     1       0.082  -2.747  -0.133  0.00  0.00    +0.255 C 
ATOM      3  O   UNL     1      -0.955  -2.144  -0.315  0.00  0.00    -0.272 OA
ATOM      4  H   UNL     1       2.083  -2.558   0.031  0.00  0.00    +0.155 HD
ENDROOT
BRANCH   1   9
ATOM      5  C   UNL     1       0.199   1.400   0.584  0.00  0.00    +0.002 A 
ATOM      6  C   UNL     1       1.240   2.100   0.003  0.00  0.00    +0.001 A 
ATOM      7  C   UNL     1       2.287   1.421  -0.592  0.00  0.00    +0.017 A 
ATOM      8  C   UNL     1       2.295   0.034  -0.608  0.00  0.00    +0.034 A 
ATOM      9  C   UNL     1       1.244  -0.672  -0.021  0.00  0.00    +0.047 A 
ATOM     10  C   UNL     1       0.198   0.018   0.574  0.00  0.00    +0.024 A 
BRANCH   8  11
ATOM     11  S   UNL     1       3.627  -0.834  -1.367  0.00  0.00    -0.088 S 
BRANCH  11  12
ATOM     12  C   UNL     1       4.612   0.439  -2.083  0.00  0.00    +0.013 A 
ATOM     13  C   UNL     1       5.571   1.091  -1.318  0.00  0.00    +0.016 A 
ATOM     14  C   UNL     1       6.341   2.089  -1.883  0.00  0.00    +0.021 A 
ATOM     15  C   UNL     1       6.159   2.439  -3.209  0.00  0.00    +0.041 A 
ATOM     16  C   UNL     1       5.204   1.791  -3.974  0.00  0.00    +0.021 A 
ATOM     17  C   UNL     1       4.435   0.789  -3.417  0.00  0.00    +0.016 A 
ATOM     18 CL   UNL     1       7.129   3.694  -3.915  0.00  0.00    -0.084 Cl
ENDBRANCH  11  12
ENDBRANCH   8  11
ENDBRANCH   1   9
BRANCH   2  19
ATOM     19  C   UNL     1       0.070  -4.250  -0.018  0.00  0.00    +0.328 C 
BRANCH  19  20
ATOM     20  O   UNL     1      -1.270  -4.727  -0.156  0.00  0.00    -0.450 OA
BRANCH  20  21
ATOM     21  C   UNL     1      -1.456  -6.061  -0.077  0.00  0.00    +0.375 C 
ATOM     22  O   UNL     1      -0.505  -6.798   0.105  0.00  0.00    -0.241 OA
BRANCH  21  23
ATOM     23  C   UNL     1      -2.802  -6.622  -0.209  0.00  0.00    +0.214 A 
ATOM     24  C   UNL     1      -3.131  -7.946  -0.144  0.00  0.00    +0.059 A 
ATOM     25  C   UNL     1      -4.520  -8.027  -0.321  0.00  0.00    +0.072 A 
ATOM     26  C   UNL     1      -4.974  -6.764  -0.484  0.00  0.00    +0.258 A 
ATOM     27  O   UNL     1      -3.937  -5.920  -0.411  0.00  0.00    -0.430 OA
BRANCH  26  28
ATOM     28  S   UNL     1      -6.655  -6.304  -0.745  0.00  0.00    +0.089 S 
ATOM     29  O   UNL     1      -6.634  -5.045  -1.403  0.00  0.00    -0.150 OA
ATOM     30  O   UNL     1      -7.306  -7.441  -1.296  0.00  0.00    -0.150 OA
BRANCH  28  31
ATOM     31  N   UNL     1      -7.329  -6.048   0.746  0.00  0.00    -0.201 NA
ATOM     32  H   UNL     1      -6.794  -6.163   1.546  0.00  0.00    +0.144 HD
ATOM     33  H   UNL     1      -8.260  -5.784   0.818  0.00  0.00    +0.144 HD
ENDBRANCH  28  31
ENDBRANCH  26  28
ENDBRANCH  21  23
ENDBRANCH  20  21
ENDBRANCH  19  20
ENDBRANCH   2  19
TORSDOF 9
