REMARK  Name = ZINC39545687
REMARK  8 active torsions:
REMARK  status: ('A' for Active; 'I' for Inactive)
REMARK    1  A    between atoms: C_1  and  O_2
REMARK    2  A    between atoms: O_2  and  N_3
REMARK    3  A    between atoms: N_3  and  S_28
REMARK    4  A    between atoms: C_4  and  C_6
REMARK    5  A    between atoms: C_9  and  C_21
REMARK    6  A    between atoms: C_21  and  C_22
REMARK    7  A    between atoms: S_28  and  O_31
REMARK    8  A    between atoms: O_31  and  C_32
REMARK                            x       y       z     vdW  Elec       q    Type
REMARK                         _______ _______ _______ _____ _____    ______ ____
ROOT
ATOM      1  C   UNL     1       2.864  -0.997   0.594  0.00  0.00    +0.174 C 
ATOM      2  C   UNL     1       3.013   0.512   0.894  0.00  0.00    +0.045 C 
ATOM      3  C   UNL     1       4.541   0.619   1.114  0.00  0.00    +0.057 C 
ATOM      4  C   UNL     1       5.099  -0.561   0.354  0.00  0.00    +0.079 C 
ATOM      5  N   UNL     1       6.416  -0.721  -0.021  0.00  0.00    -0.304 N 
ATOM      6  C   UNL     1       6.704  -1.690  -0.991  0.00  0.00    +0.037 A 
ATOM      7  C   UNL     1       7.941  -1.686  -1.622  0.00  0.00    +0.023 A 
ATOM      8  C   UNL     1       8.228  -2.637  -2.582  0.00  0.00    +0.002 A 
ATOM      9  C   UNL     1       7.282  -3.591  -2.912  0.00  0.00    +0.000 A 
ATOM     10  C   UNL     1       6.052  -3.597  -2.284  0.00  0.00    +0.007 A 
ATOM     11  C   UNL     1       5.756  -2.649  -1.319  0.00  0.00    -0.007 A 
ATOM     12  C   UNL     1       4.413  -2.682  -0.641  0.00  0.00    +0.155 C 
ATOM     13  N   UNL     1       4.173  -1.428   0.084  0.00  0.00    -0.346 N 
ATOM     14  H   UNL     1       7.119  -0.180   0.372  0.00  0.00    +0.153 HD
ENDROOT
BRANCH   1  16
ATOM     15  N   UNL     1       0.526  -1.452  -0.072  0.00  0.00    -0.011 N 
ATOM     16  C   UNL     1       1.799  -1.219  -0.448  0.00  0.00    +0.285 C 
ATOM     17  O   UNL     1       2.087  -1.188  -1.626  0.00  0.00    -0.269 OA
BRANCH  15  18
ATOM     18  S   UNL     1      -0.619  -1.822  -1.210  0.00  0.00    +0.235 S 
ATOM     19  O   UNL     1       0.077  -2.361  -2.325  0.00  0.00    -0.113 OA
ATOM     20  O   UNL     1      -1.646  -2.536  -0.535  0.00  0.00    -0.113 OA
BRANCH  18  21
ATOM     21  O   UNL     1      -1.234  -0.510  -1.673  0.00  0.00    -0.330 OA
BRANCH  21  22
ATOM     22  C   UNL     1      -0.436   0.212  -2.503  0.00  0.00    +0.158 A 
ATOM     23  C   UNL     1       0.456   1.137  -1.979  0.00  0.00    +0.048 A 
ATOM     24  C   UNL     1       1.266   1.869  -2.824  0.00  0.00    +0.004 A 
ATOM     25  C   UNL     1       1.189   1.682  -4.192  0.00  0.00    +0.000 A 
ATOM     26  C   UNL     1       0.301   0.761  -4.717  0.00  0.00    +0.004 A 
ATOM     27  C   UNL     1      -0.507   0.022  -3.876  0.00  0.00    +0.048 A 
ENDBRANCH  21  22
ENDBRANCH  18  21
ENDBRANCH  15  18
BRANCH  15  29
ATOM     28  C   UNL     1      -0.355  -0.110   1.693  0.00  0.00    +0.229 C 
ATOM     29  O   UNL     1       0.167  -1.379   1.296  0.00  0.00    -0.258 OA
ENDBRANCH  15  29
ENDBRANCH   1  16
BRANCH   3  30
ATOM     30  C   UNL     1       5.076   1.933   0.540  0.00  0.00    +0.046 C 
BRANCH  30  31
ATOM     31  C   UNL     1       4.516   3.089   1.327  0.00  0.00    -0.047 A 
ATOM     32  C   UNL     1       3.384   3.745   0.881  0.00  0.00    +0.003 A 
ATOM     33  C   UNL     1       2.870   4.806   1.603  0.00  0.00    +0.000 A 
ATOM     34  C   UNL     1       3.488   5.211   2.772  0.00  0.00    +0.000 A 
ATOM     35  C   UNL     1       4.620   4.554   3.219  0.00  0.00    +0.000 A 
ATOM     36  C   UNL     1       5.131   3.490   2.499  0.00  0.00    +0.003 A 
ENDBRANCH  30  31
ENDBRANCH   3  30
TORSDOF 7
