REMARK  Name = ZINC39276904
REMARK  5 active torsions:
REMARK  status: ('A' for Active; 'I' for Inactive)
REMARK    1  A    between atoms: C_1  and  C_2
REMARK    2  A    between atoms: C_2  and  C_3
REMARK    3  A    between atoms: C_2  and  C_4
REMARK    4  A    between atoms: C_2  and  C_5
REMARK    5  A    between atoms: N_19  and  N_20
REMARK                            x       y       z     vdW  Elec       q    Type
REMARK                         _______ _______ _______ _____ _____    ______ ____
ROOT
ATOM      1  C   UNL     1       0.707  -0.490  -1.238  0.00  0.00    -0.041 A 
ATOM      2  C   UNL     1       0.009  -1.294  -2.149  0.00  0.00    +0.006 A 
ATOM      3  C   UNL     1       0.570  -1.764  -3.284  0.00  0.00    +0.026 A 
ATOM      4  C   UNL     1       1.919  -1.453  -3.603  0.00  0.00    +0.043 A 
ATOM      5  N   UNL     1       2.682  -1.807  -4.614  0.00  0.00    -0.372 N 
ATOM      6  C   UNL     1       3.958  -1.112  -4.493  0.00  0.00    +0.153 C 
ATOM      7  C   UNL     1       3.928  -0.451  -3.123  0.00  0.00    -0.033 C 
ATOM      8  C   UNL     1       2.685  -0.611  -2.650  0.00  0.00    -0.000 A 
ATOM      9  C   UNL     1       1.995  -0.134  -1.445  0.00  0.00    +0.014 A 
ATOM     10  C   UNL     1       5.159   0.140  -2.485  0.00  0.00    +0.034 C 
ATOM     11  C   UNL     1       6.240  -0.953  -2.496  0.00  0.00    +0.010 C 
ATOM     12  C   UNL     1       6.439  -1.499  -3.909  0.00  0.00    +0.055 C 
ATOM     13  C   UNL     1       5.140  -2.056  -4.469  0.00  0.00    +0.067 C 
ATOM     14  N   UNL     1       5.044  -3.282  -4.894  0.00  0.00    -0.155 NA
ATOM     15  H   UNL     1       2.438  -2.425  -5.320  0.00  0.00    +0.161 HD
ENDROOT
BRANCH  14  16
ATOM     16  N   UNL     1       6.073  -4.059  -4.859  0.00  0.00    -0.144 NA
ATOM     17  C   UNL     1       5.976  -5.298  -5.288  0.00  0.00    +0.157 C 
ATOM     18  C   UNL     1       4.781  -5.966  -5.846  0.00  0.00    +0.029 A 
ATOM     19  C   UNL     1       3.475  -5.544  -6.080  0.00  0.00    +0.027 A 
ATOM     20  C   UNL     1       2.559  -6.421  -6.625  0.00  0.00    +0.019 A 
ATOM     21  C   UNL     1       2.939  -7.717  -6.937  0.00  0.00    +0.017 A 
ATOM     22  C   UNL     1       4.232  -8.145  -6.708  0.00  0.00    +0.025 A 
ATOM     23  C   UNL     1       5.169  -7.276  -6.160  0.00  0.00    +0.043 A 
ATOM     24  N   UNL     1       6.510  -7.451  -5.834  0.00  0.00    -0.280 N 
ATOM     25  C   UNL     1       7.042  -6.327  -5.325  0.00  0.00    +0.269 C 
ATOM     26  O   UNL     1       8.192  -6.180  -4.958  0.00  0.00    -0.268 OA
ATOM     27 BR   UNL     1       0.784  -5.855  -6.947  0.00  0.00    -0.050 Br
ATOM     28  H   UNL     1       7.000  -8.278  -5.962  0.00  0.00    +0.155 HD
ENDBRANCH  14  16
BRANCH   1  30
ATOM     29  C   UNL     1      -0.019   1.526   0.010  0.00  0.00    +0.015 C 
ATOM     30  C   UNL     1       0.002  -0.004   0.002  0.00  0.00    -0.013 C 
ATOM     31  C   UNL     1       0.742  -0.511   1.242  0.00  0.00    +0.015 C 
ATOM     32  C   UNL     1      -1.433  -0.534   0.013  0.00  0.00    +0.015 C 
ENDBRANCH   1  30
TORSDOF 2
