REMARK  Name = ZINC09461843
REMARK  10 active torsions:
REMARK  status: ('A' for Active; 'I' for Inactive)
REMARK    1  A    between atoms: C_1  and  C_2
REMARK    2  A    between atoms: C_2  and  N_3
REMARK    3  A    between atoms: N_3  and  C_4
REMARK    4  A    between atoms: N_3  and  C_7
REMARK    5  A    between atoms: C_4  and  C_5
REMARK    6  A    between atoms: C_5  and  O_6
REMARK    7  A    between atoms: C_10  and  N_13
REMARK    8  A    between atoms: N_13  and  C_14
REMARK    9  A    between atoms: N_21  and  C_24
REMARK   10  A    between atoms: C_29  and  C_30
REMARK                            x       y       z     vdW  Elec       q    Type
REMARK                         _______ _______ _______ _____ _____    ______ ____
ROOT
ATOM      1  C   UNL     1      -3.539  -1.208  -5.885  0.00  0.00    +0.090 C 
ATOM      2  C   UNL     1      -4.242  -1.342  -7.069  0.00  0.00    +0.113 C 
ATOM      3  C   UNL     1      -3.591  -1.825  -8.300  0.00  0.00    +0.256 C 
ATOM      4  O   UNL     1      -2.411  -2.121  -8.307  0.00  0.00    -0.270 OA
ATOM      5  N   UNL     1      -4.339  -1.930  -9.417  0.00  0.00    -0.263 N 
ATOM      6  C   UNL     1      -5.640  -1.608  -9.423  0.00  0.00    +0.150 C 
ATOM      7  S   UNL     1      -6.511  -1.775 -10.887  0.00  0.00    -0.018 S 
ATOM      8  N   UNL     1      -6.296  -1.163  -8.342  0.00  0.00    -0.217 N 
ATOM      9  C   UNL     1      -5.676  -1.014  -7.153  0.00  0.00    +0.263 C 
ATOM     10  O   UNL     1      -6.284  -0.615  -6.177  0.00  0.00    -0.269 OA
ATOM     11  H   UNL     1      -3.926  -2.246 -10.236  0.00  0.00    +0.157 HD
ENDROOT
BRANCH   8  12
ATOM     12  C   UNL     1      -7.658  -0.852  -8.447  0.00  0.00    +0.046 A 
ATOM     13  C   UNL     1      -8.616  -1.827  -8.200  0.00  0.00    +0.024 A 
ATOM     14  C   UNL     1      -9.957  -1.517  -8.304  0.00  0.00    +0.002 A 
ATOM     15  C   UNL     1     -10.348  -0.238  -8.656  0.00  0.00    +0.000 A 
ATOM     16  C   UNL     1      -9.397   0.735  -8.903  0.00  0.00    +0.005 A 
ATOM     17  C   UNL     1      -8.053   0.432  -8.795  0.00  0.00    -0.029 A 
ATOM     18  C   UNL     1      -7.018   1.495  -9.059  0.00  0.00    +0.045 C 
ENDBRANCH   8  12
BRANCH   1  19
ATOM     19  N   UNL     1      -2.198  -1.352  -5.877  0.00  0.00    -0.320 N 
ATOM     20  H   UNL     1      -1.724  -1.519  -6.707  0.00  0.00    +0.152 HD
BRANCH  19  24
ATOM     21  C   UNL     1      -0.093  -1.077  -2.289  0.00  0.00    +0.030 A 
ATOM     22  C   UNL     1       0.586  -1.317  -3.477  0.00  0.00    +0.025 A 
ATOM     23  C   UNL     1      -0.111  -1.408  -4.665  0.00  0.00    +0.025 A 
ATOM     24  C   UNL     1      -1.492  -1.260  -4.673  0.00  0.00    +0.031 A 
ATOM     25  C   UNL     1      -2.172  -1.020  -3.485  0.00  0.00    +0.025 A 
ATOM     26  C   UNL     1      -1.475  -0.933  -2.297  0.00  0.00    +0.025 A 
BRANCH  21  27
ATOM     27  N   UNL     1       0.613  -0.985  -1.086  0.00  0.00    -0.328 N 
BRANCH  27  29
ATOM     28  C   UNL     1      -0.206   0.770   0.408  0.00  0.00    +0.024 C 
ATOM     29  C   UNL     1      -0.105  -0.738   0.167  0.00  0.00    +0.102 C 
ENDBRANCH  27  29
BRANCH  27  30
ATOM     30  C   UNL     1       2.070  -1.136  -1.078  0.00  0.00    +0.133 C 
BRANCH  30  31
ATOM     31  C   UNL     1       2.429  -2.610  -0.880  0.00  0.00    +0.174 C 
BRANCH  31  32
ATOM     32  O   UNL     1       1.976  -3.366  -2.005  0.00  0.00    -0.393 OA
ATOM     33  H   UNL     1       2.171  -4.311  -1.947  0.00  0.00    +0.209 HD
ENDBRANCH  31  32
ENDBRANCH  30  31
ENDBRANCH  27  30
ENDBRANCH  21  27
ENDBRANCH  19  24
ENDBRANCH   1  19
TORSDOF 8
