REMARK  Name = ZINC15547841
REMARK  9 active torsions:
REMARK  status: ('A' for Active; 'I' for Inactive)
REMARK    1  A    between atoms: C_1  and  C_2
REMARK    2  A    between atoms: C_4  and  C_28
REMARK    3  A    between atoms: C_5  and  N_9
REMARK    4  A    between atoms: C_6  and  C_8
REMARK    5  A    between atoms: C_10  and  C_12
REMARK    6  A    between atoms: C_12  and  N_13
REMARK    7  A    between atoms: C_14  and  C_16
REMARK    8  A    between atoms: C_16  and  N_17
REMARK    9  A    between atoms: C_25  and  C_27
REMARK                            x       y       z     vdW  Elec       q    Type
REMARK                         _______ _______ _______ _____ _____    ______ ____
ROOT
ATOM      1  N   UNL     1       0.858  -6.983   2.265  0.00  0.00    -0.308 N 
ATOM      2  C   UNL     1       0.984  -8.311   2.462  0.00  0.00    +0.197 C 
ATOM      3  O   UNL     1       0.718  -9.085   1.567  0.00  0.00    -0.278 OA
ATOM      4  H   UNL     1       1.071  -6.364   2.981  0.00  0.00    +0.149 HD
ENDROOT
BRANCH   1   5
ATOM      5  C   UNL     1       0.399  -6.476   0.969  0.00  0.00    +0.200 C 
BRANCH   5   7
ATOM      6  N   UNL     1      -0.052  -4.280  -0.077  0.00  0.00    -0.284 N 
ATOM      7  C   UNL     1       0.345  -4.970   1.011  0.00  0.00    +0.234 C 
ATOM      8  O   UNL     1       0.659  -4.380   2.022  0.00  0.00    -0.274 OA
ATOM      9  H   UNL     1      -0.370  -4.753  -0.862  0.00  0.00    +0.155 HD
BRANCH   6  14
ATOM     10  C   UNL     1       0.136   1.390  -0.065  0.00  0.00    +0.044 C 
ATOM     11  C   UNL     1       0.086  -0.116  -0.068  0.00  0.00    -0.050 A 
ATOM     12  C   UNL     1       0.759  -0.827  -1.045  0.00  0.00    +0.008 A 
ATOM     13  C   UNL     1       0.715  -2.207  -1.051  0.00  0.00    -0.029 A 
ATOM     14  C   UNL     1      -0.005  -2.882  -0.074  0.00  0.00    +0.039 A 
ATOM     15  C   UNL     1      -0.679  -2.165   0.906  0.00  0.00    -0.029 A 
ATOM     16  C   UNL     1      -0.628  -0.785   0.909  0.00  0.00    +0.008 A 
ATOM     17  C   UNL     1      -1.463  -2.893   1.968  0.00  0.00    +0.045 C 
ATOM     18  C   UNL     1       1.448  -2.981  -2.117  0.00  0.00    +0.045 C 
ENDBRANCH   6  14
ENDBRANCH   5   7
ENDBRANCH   1   5
BRANCH   2  19
ATOM     19  C   UNL     1       1.456  -8.833   3.794  0.00  0.00    +0.019 C 
BRANCH  19  20
ATOM     20  N   UNL     1       1.509 -10.301   3.754  0.00  0.00    +0.390 N 
ATOM     21  C   UNL     1       2.507 -10.721   2.762  0.00  0.00    -0.072 C 
ATOM     22  C   UNL     1       2.329 -12.224   2.483  0.00  0.00    +0.024 C 
ATOM     23  C   UNL     1       2.216 -12.916   3.802  0.00  0.00    -0.010 A 
ATOM     24  C   UNL     1       2.006 -12.324   5.011  0.00  0.00    -0.051 A 
ATOM     25  C   UNL     1       1.941 -13.171   6.115  0.00  0.00    +0.010 A 
ATOM     26  C   UNL     1       2.081 -14.507   5.952  0.00  0.00    +0.045 A 
ATOM     27  S   UNL     1       2.319 -14.641   4.186  0.00  0.00    -0.101 S 
ATOM     28  C   UNL     1       1.853 -10.808   5.088  0.00  0.00    -0.039 C 
ATOM     29  C   UNL     1       0.739 -10.454   6.075  0.00  0.00    -0.008 C 
ATOM     30  H   UNL     1       0.604 -10.658   3.486  0.00  0.00    -0.080 HD
ENDBRANCH  19  20
ENDBRANCH   2  19
TORSDOF 5
