REMARK  Name = ZINC37443470
REMARK  6 active torsions:
REMARK  status: ('A' for Active; 'I' for Inactive)
REMARK    1  A    between atoms: C_1  and  C_2
REMARK    2  A    between atoms: C_7  and  N_12
REMARK    3  A    between atoms: C_9  and  C_11
REMARK    4  A    between atoms: C_13  and  C_15
REMARK    5  A    between atoms: C_15  and  C_35
REMARK    6  A    between atoms: N_27  and  C_28
REMARK                            x       y       z     vdW  Elec       q    Type
REMARK                         _______ _______ _______ _____ _____    ______ ____
ROOT
ATOM      1  C   UNL     1      -1.978  -4.120   1.663  0.00  0.00    +0.133 C 
ATOM      2  C   UNL     1      -2.072  -5.633   1.853  0.00  0.00    +0.158 C 
ATOM      3  N   UNL     1      -1.969  -6.290   0.546  0.00  0.00    -0.331 N 
ATOM      4  C   UNL     1      -1.484  -7.521   0.221  0.00  0.00    +0.088 A 
ATOM      5  C   UNL     1      -0.890  -8.713   0.701  0.00  0.00    +0.067 A 
ATOM      6  C   UNL     1      -0.706  -9.522  -0.357  0.00  0.00    +0.198 A 
ATOM      7  O   UNL     1      -1.147  -8.910  -1.470  0.00  0.00    -0.461 OA
ATOM      8  C   UNL     1      -1.625  -7.687  -1.157  0.00  0.00    +0.153 A 
ATOM      9  C   UNL     1      -2.205  -6.517  -1.669  0.00  0.00    +0.079 A 
ATOM     10  C   UNL     1      -2.405  -5.667  -0.621  0.00  0.00    +0.109 A 
ATOM     11  C   UNL     1      -2.957  -4.308  -0.585  0.00  0.00    +0.268 C 
ATOM     12  O   UNL     1      -3.499  -3.811  -1.555  0.00  0.00    -0.268 OA
ATOM     13  N   UNL     1      -2.830  -3.636   0.583  0.00  0.00    -0.250 N 
ATOM     14  C   UNL     1      -2.392  -3.433   2.966  0.00  0.00    +0.044 C 
ENDROOT
BRANCH  13  15
ATOM     15  C   UNL     1      -3.538  -2.443   0.760  0.00  0.00    +0.038 A 
ATOM     16  C   UNL     1      -4.614  -2.395   1.637  0.00  0.00    +0.025 A 
ATOM     17  C   UNL     1      -5.311  -1.216   1.810  0.00  0.00    +0.022 A 
ATOM     18  C   UNL     1      -4.938  -0.081   1.110  0.00  0.00    +0.041 A 
ATOM     19  C   UNL     1      -3.866  -0.126   0.236  0.00  0.00    +0.022 A 
ATOM     20  C   UNL     1      -3.162  -1.301   0.064  0.00  0.00    +0.025 A 
ATOM     21 CL   UNL     1      -5.816   1.400   1.330  0.00  0.00    -0.084 Cl
ENDBRANCH  13  15
BRANCH   1  23
ATOM     22  N   UNL     1      -0.268  -2.598   0.725  0.00  0.00    -0.310 N 
ATOM     23  C   UNL     1      -0.548  -3.756   1.355  0.00  0.00    +0.239 C 
ATOM     24  O   UNL     1       0.351  -4.506   1.674  0.00  0.00    -0.273 OA
ATOM     25  H   UNL     1      -0.987  -1.999   0.469  0.00  0.00    +0.149 HD
BRANCH  22  31
ATOM     26  C   UNL     1       0.466   1.297  -0.934  0.00  0.00    +0.008 C 
ATOM     27  C   UNL     1       0.340  -0.223  -0.817  0.00  0.00    -0.009 C 
ATOM     28  C   UNL     1       0.758  -0.873  -2.138  0.00  0.00    +0.003 C 
ATOM     29  C   UNL     1       0.632  -2.393  -2.021  0.00  0.00    +0.002 C 
ATOM     30  C   UNL     1       1.540  -2.894  -0.896  0.00  0.00    +0.022 C 
ATOM     31  C   UNL     1       1.122  -2.245   0.425  0.00  0.00    +0.076 C 
ATOM     32  C   UNL     1       1.248  -0.725   0.308  0.00  0.00    +0.009 C 
ATOM     33  C   UNL     1       0.829  -0.075   1.628  0.00  0.00    +0.009 C 
ENDBRANCH  22  31
ENDBRANCH   1  23
TORSDOF 3
