REMARK  Name = ZINC09395267
REMARK  9 active torsions:
REMARK  status: ('A' for Active; 'I' for Inactive)
REMARK    1  A    between atoms: C_1  and  C_2
REMARK    2  A    between atoms: C_7  and  N_8
REMARK    3  A    between atoms: C_11  and  C_16
REMARK    4  A    between atoms: C_16  and  S_17
REMARK    5  A    between atoms: S_17  and  C_18
REMARK    6  A    between atoms: C_21  and  C_26
REMARK    7  A    between atoms: N_22  and  C_23
REMARK    8  A    between atoms: C_26  and  O_27
REMARK    9  A    between atoms: O_27  and  C_28
REMARK                            x       y       z     vdW  Elec       q    Type
REMARK                         _______ _______ _______ _____ _____    ______ ____
ROOT
ATOM      1  C   UNL     1       0.280   1.955   1.202  0.00  0.00    +0.153 C 
ENDROOT
BRANCH   1   5
ATOM      2  N   UNL     1       0.443   6.676   0.357  0.00  0.00    -0.283 N 
ATOM      3  C   UNL     1       0.473   5.631   1.260  0.00  0.00    +0.224 A 
ATOM      4  N   UNL     1       0.374   4.375   0.830  0.00  0.00    -0.198 NA
ATOM      5  C   UNL     1       0.398   3.375   1.693  0.00  0.00    +0.146 A 
ATOM      6  N   UNL     1       0.530   3.616   2.986  0.00  0.00    -0.199 NA
ATOM      7  C   UNL     1       0.635   4.869   3.423  0.00  0.00    +0.217 A 
ATOM      8  N   UNL     1       0.607   5.877   2.558  0.00  0.00    -0.181 NA
ATOM      9  N   UNL     1       0.773   5.120   4.773  0.00  0.00    -0.327 N 
ATOM     10  H   UNL     1       0.425   6.494  -0.595  0.00  0.00    +0.155 HD
ATOM     11  H   UNL     1       0.794   4.383   5.404  0.00  0.00    +0.145 HD
ATOM     12  H   UNL     1       0.849   6.033   5.091  0.00  0.00    +0.145 HD
BRANCH   2  19
ATOM     13  C   UNL     1       1.277   8.724  -1.433  0.00  0.00    +0.045 C 
ATOM     14  C   UNL     1       0.836   9.027  -0.024  0.00  0.00    -0.029 A 
ATOM     15  C   UNL     1       0.828  10.331   0.433  0.00  0.00    +0.005 A 
ATOM     16  C   UNL     1       0.422  10.610   1.725  0.00  0.00    +0.000 A 
ATOM     17  C   UNL     1       0.023   9.586   2.564  0.00  0.00    +0.002 A 
ATOM     18  C   UNL     1       0.025   8.281   2.112  0.00  0.00    +0.023 A 
ATOM     19  C   UNL     1       0.436   7.997   0.816  0.00  0.00    +0.036 A 
ENDBRANCH   2  19
ENDBRANCH   1   5
BRANCH   1  20
ATOM     20  S   UNL     1      -1.465   1.474   1.163  0.00  0.00    -0.078 S 
BRANCH  20  21
ATOM     21  C   UNL     1      -1.313  -0.178   0.570  0.00  0.00    +0.192 A 
ATOM     22  N   UNL     1      -0.197  -0.798   0.262  0.00  0.00    -0.122 NA
ATOM     23  N   UNL     1      -0.456  -1.993  -0.135  0.00  0.00    -0.130 NA
ATOM     24  C   UNL     1      -1.742  -2.203  -0.112  0.00  0.00    +0.172 A 
ATOM     25  N   UNL     1      -2.334  -1.055   0.337  0.00  0.00    -0.300 N 
BRANCH  25  26
ATOM     26  C   UNL     1      -3.766  -0.815   0.530  0.00  0.00    +0.091 C 
ATOM     27  C   UNL     1      -4.228   0.637   0.665  0.00  0.00    +0.027 C 
ATOM     28  C   UNL     1      -4.216  -0.279   1.891  0.00  0.00    +0.027 C 
ENDBRANCH  25  26
BRANCH  24  29
ATOM     29  C   UNL     1      -2.446  -3.475  -0.508  0.00  0.00    +0.305 C 
BRANCH  29  30
ATOM     30  O   UNL     1      -2.764  -3.430  -1.900  0.00  0.00    -0.483 OA
BRANCH  30  31
ATOM     31  C   UNL     1      -3.406  -4.509  -2.421  0.00  0.00    +0.139 A 
ATOM     32  C   UNL     1      -3.719  -5.590  -1.611  0.00  0.00    +0.047 A 
ATOM     33  C   UNL     1      -4.377  -6.683  -2.142  0.00  0.00    +0.004 A 
ATOM     34  C   UNL     1      -4.714  -6.704  -3.482  0.00  0.00    +0.002 A 
ATOM     35  C   UNL     1      -4.399  -5.631  -4.295  0.00  0.00    +0.023 A 
ATOM     36  C   UNL     1      -3.746  -4.532  -3.767  0.00  0.00    +0.083 A 
ATOM     37 CL   UNL     1      -3.350  -3.184  -4.787  0.00  0.00    -0.080 Cl
ENDBRANCH  30  31
ENDBRANCH  29  30
ENDBRANCH  24  29
ENDBRANCH  20  21
ENDBRANCH   1  20
TORSDOF 8
