REMARK  Name = ZINC60272921
REMARK  7 active torsions:
REMARK  status: ('A' for Active; 'I' for Inactive)
REMARK    1  A    between atoms: C_1  and  C_2
REMARK    2  A    between atoms: C_2  and  C_3
REMARK    3  A    between atoms: C_3  and  N_4
REMARK    4  A    between atoms: C_5  and  C_7
REMARK    5  A    between atoms: C_7  and  N_8
REMARK    6  A    between atoms: C_11  and  N_14
REMARK    7  A    between atoms: C_15  and  C_17
REMARK                            x       y       z     vdW  Elec       q    Type
REMARK                         _______ _______ _______ _____ _____    ______ ____
ROOT
ATOM      1  N   UNL     1      -3.929  -4.704   0.014  0.00  0.00    +0.385 N 
ATOM      2  C   UNL     1      -4.580  -4.322   1.274  0.00  0.00    -0.076 C 
ATOM      3  C   UNL     1      -6.040  -4.779   1.256  0.00  0.00    +0.003 C 
ATOM      4  C   UNL     1      -6.091  -6.301   1.093  0.00  0.00    +0.070 C 
ATOM      5  C   UNL     1      -5.345  -6.693  -0.186  0.00  0.00    +0.003 C 
ATOM      6  C   UNL     1      -3.911  -6.165  -0.114  0.00  0.00    -0.076 C 
ATOM      7  H   UNL     1      -4.439  -4.305  -0.760  0.00  0.00    -0.081 HD
ENDROOT
BRANCH   4   8
ATOM      8  N   UNL     1      -7.487  -6.737   0.999  0.00  0.00    -0.310 N 
ATOM      9  C   UNL     1      -7.826  -7.993   1.351  0.00  0.00    +0.255 C 
ATOM     10  O   UNL     1      -6.975  -8.763   1.745  0.00  0.00    -0.272 OA
ATOM     11  H   UNL     1      -8.167  -6.122   0.683  0.00  0.00    +0.149 HD
BRANCH   9  12
ATOM     12  C   UNL     1      -9.261  -8.442   1.254  0.00  0.00    +0.269 C 
ATOM     13  C   UNL     1     -10.118  -7.642   2.249  0.00  0.00    +0.128 C 
ATOM     14  S   UNL     1     -11.853  -8.103   1.947  0.00  0.00    -0.117 S 
ATOM     15  C   UNL     1     -11.758  -9.857   1.757  0.00  0.00    +0.050 A 
ATOM     16  C   UNL     1     -12.929 -10.604   1.789  0.00  0.00    +0.018 A 
ATOM     17  C   UNL     1     -12.882 -11.975   1.634  0.00  0.00    +0.001 A 
ATOM     18  C   UNL     1     -11.664 -12.603   1.444  0.00  0.00    +0.004 A 
ATOM     19  C   UNL     1     -10.498 -11.866   1.415  0.00  0.00    +0.047 A 
ATOM     20  C   UNL     1     -10.530 -10.483   1.577  0.00  0.00    +0.135 A 
ATOM     21  O   UNL     1      -9.349  -9.823   1.568  0.00  0.00    -0.478 OA
ENDBRANCH   9  12
ENDBRANCH   4   8
BRANCH   1  22
ATOM     22  C   UNL     1      -2.551  -4.195   0.004  0.00  0.00    +0.019 C 
BRANCH  22  24
ATOM     23  N   UNL     1      -1.413  -1.998   0.005  0.00  0.00    -0.317 N 
ATOM     24  C   UNL     1      -2.571  -2.688   0.012  0.00  0.00    +0.196 C 
ATOM     25  O   UNL     1      -3.630  -2.096   0.025  0.00  0.00    -0.278 OA
ATOM     26  H   UNL     1      -0.567  -2.472  -0.006  0.00  0.00    +0.149 HD
BRANCH  23  27
ATOM     27  C   UNL     1      -1.433  -0.534   0.013  0.00  0.00    +0.104 C 
BRANCH  27  29
ATOM     28  C   UNL     1      -0.019   1.526   0.010  0.00  0.00    +0.005 C 
ATOM     29  C   UNL     1       0.002  -0.004   0.002  0.00  0.00    +0.015 C 
ENDBRANCH  27  29
ENDBRANCH  23  27
ENDBRANCH  22  24
ENDBRANCH   1  22
TORSDOF 6
