REMARK  Name = ZINC35745675
REMARK  13 active torsions:
REMARK  status: ('A' for Active; 'I' for Inactive)
REMARK    1  A    between atoms: C_1  and  C_2
REMARK    2  A    between atoms: C_2  and  C_3
REMARK    3  A    between atoms: C_2  and  C_4
REMARK    4  A    between atoms: C_4  and  O_5
REMARK    5  A    between atoms: O_5  and  C_6
REMARK    6  A    between atoms: C_6  and  C_7
REMARK    7  A    between atoms: C_7  and  C_9
REMARK    8  A    between atoms: C_7  and  O_35
REMARK    9  A    between atoms: C_9  and  N_10
REMARK   10  A    between atoms: N_10  and  C_11
REMARK   11  A    between atoms: N_10  and  C_29
REMARK   12  A    between atoms: C_11  and  C_12
REMARK   13  A    between atoms: C_18  and  C_23
REMARK                            x       y       z     vdW  Elec       q    Type
REMARK                         _______ _______ _______ _____ _____    ______ ____
ROOT
ATOM      1  N   UNL     1      -3.841  -6.511  -0.522  0.00  0.00    +0.388 N 
ATOM      2  H   UNL     1      -2.924  -6.491  -0.944  0.00  0.00    -0.081 HD
ENDROOT
BRANCH   1   3
ATOM      3  C   UNL     1      -3.931  -7.650   0.401  0.00  0.00    -0.068 C 
ATOM      4  C   UNL     1      -3.754  -8.954  -0.379  0.00  0.00    -0.015 C 
ATOM      5  C   UNL     1      -3.848 -10.141   0.582  0.00  0.00    -0.002 C 
ATOM      6  C   UNL     1      -5.217 -10.137   1.265  0.00  0.00    -0.000 C 
ATOM      7  C   UNL     1      -5.394  -8.833   2.045  0.00  0.00    -0.002 C 
ATOM      8  C   UNL     1      -5.300  -7.646   1.083  0.00  0.00    -0.015 C 
ENDBRANCH   1   3
BRANCH   1   9
ATOM      9  C   UNL     1      -4.067  -5.262   0.217  0.00  0.00    -0.044 C 
BRANCH   9  10
ATOM     10  C   UNL     1      -2.914  -5.034   1.197  0.00  0.00    +0.124 C 
BRANCH  10  11
ATOM     11  O   UNL     1      -2.967  -6.018   2.232  0.00  0.00    -0.391 OA
ATOM     12  H   UNL     1      -3.812  -6.051   2.701  0.00  0.00    +0.210 HD
ENDBRANCH  10  11
BRANCH  10  13
ATOM     13  C   UNL     1      -3.036  -3.639   1.813  0.00  0.00    +0.189 C 
BRANCH  13  14
ATOM     14  O   UNL     1      -1.898  -3.381   2.638  0.00  0.00    -0.377 OA
BRANCH  14  15
ATOM     15  C   UNL     1      -1.914  -2.096   3.264  0.00  0.00    +0.163 C 
BRANCH  15  17
ATOM     16  C   UNL     1      -0.609  -0.511   4.688  0.00  0.00    +0.009 C 
ATOM     17  C   UNL     1      -0.655  -1.930   4.118  0.00  0.00    +0.009 C 
ATOM     18  C   UNL     1      -0.680  -2.941   5.266  0.00  0.00    +0.009 C 
ENDBRANCH  15  17
ENDBRANCH  14  15
ENDBRANCH  13  14
ENDBRANCH  10  13
ENDBRANCH   9  10
ENDBRANCH   1   9
BRANCH   1  19
ATOM     19  C   UNL     1      -4.859  -6.649  -1.572  0.00  0.00    -0.003 C 
BRANCH  19  20
ATOM     20  C   UNL     1      -4.357  -7.587  -2.639  0.00  0.00    +0.094 A 
ATOM     21  N   UNL     1      -5.195  -7.976  -3.634  0.00  0.00    -0.312 N 
ATOM     22  H   UNL     1      -6.106  -7.645  -3.644  0.00  0.00    +0.170 HD
ATOM     23  C   UNL     1      -4.785  -8.812  -4.606  0.00  0.00    +0.260 A 
ATOM     24  O   UNL     1      -5.550  -9.151  -5.493  0.00  0.00    -0.267 OA
ATOM     25  C   UNL     1      -3.438  -9.296  -4.583  0.00  0.00    +0.080 A 
ATOM     26  C   UNL     1      -2.766 -10.197  -5.511  0.00  0.00    +0.004 A 
ATOM     27  C   UNL     1      -1.469 -10.518  -5.284  0.00  0.00    +0.056 A 
ATOM     28  S   UNL     1      -1.076  -9.618  -3.796  0.00  0.00    -0.076 S 
ATOM     29  C   UNL     1      -2.646  -8.840  -3.517  0.00  0.00    +0.116 A 
ATOM     30  N   UNL     1      -3.121  -8.007  -2.594  0.00  0.00    -0.229 NA
BRANCH  26  31
ATOM     31  C   UNL     1      -3.487 -10.752  -6.681  0.00  0.00    -0.017 A 
ATOM     32  C   UNL     1      -4.737 -11.347  -6.515  0.00  0.00    +0.008 A 
ATOM     33  C   UNL     1      -5.404 -11.862  -7.608  0.00  0.00    +0.001 A 
ATOM     34  C   UNL     1      -4.835 -11.788  -8.867  0.00  0.00    +0.000 A 
ATOM     35  C   UNL     1      -3.595 -11.199  -9.038  0.00  0.00    +0.001 A 
ATOM     36  C   UNL     1      -2.921 -10.676  -7.953  0.00  0.00    +0.008 A 
ENDBRANCH  26  31
ENDBRANCH  19  20
ENDBRANCH   1  19
TORSDOF 11
