REMARK  Name = ZINC04615076
REMARK  3 active torsions:
REMARK  status: ('A' for Active; 'I' for Inactive)
REMARK    1  A    between atoms: C_3  and  N_8
REMARK    2  A    between atoms: C_10  and  C_22
REMARK    3  A    between atoms: C_14  and  N_19
REMARK                            x       y       z     vdW  Elec       q    Type
REMARK                         _______ _______ _______ _____ _____    ______ ____
ROOT
ATOM      1  N   UNL     1      -1.154   2.134   0.019  0.00  0.00    -0.325 N 
ATOM      2  C   UNL     1      -0.018   1.472   0.005  0.00  0.00    +0.212 A 
ATOM      3  C   UNL     1       0.003  -0.004   0.004  0.00  0.00    +0.097 A 
ATOM      4  C   UNL     1       1.107  -0.620  -0.570  0.00  0.00    +0.030 A 
ATOM      5  C   UNL     1       2.150   0.247  -1.122  0.00  0.00    +0.020 A 
ATOM      6  C   UNL     1       3.155  -0.275  -1.946  0.00  0.00    +0.044 A 
ATOM      7  C   UNL     1       4.116   0.554  -2.451  0.00  0.00    +0.127 A 
ATOM      8  C   UNL     1       4.104   1.909  -2.155  0.00  0.00    +0.036 A 
ATOM      9  C   UNL     1       3.124   2.444  -1.343  0.00  0.00    +0.049 A 
ATOM     10  C   UNL     1       2.139   1.621  -0.818  0.00  0.00    +0.138 A 
ATOM     11  O   UNL     1       1.172   2.126  -0.014  0.00  0.00    -0.439 OA
ATOM     12  H   UNL     1      -2.108   1.591  -0.058  0.00  0.00    +0.169 HD
ENDROOT
BRANCH   1  15
ATOM     13  C   UNL     1      -1.089   5.475   1.494  0.00  0.00    +0.003 A 
ATOM     14  C   UNL     1      -1.096   4.099   1.389  0.00  0.00    +0.026 A 
ATOM     15  C   UNL     1      -1.151   3.497   0.130  0.00  0.00    +0.043 A 
ATOM     16  C   UNL     1      -1.207   4.295  -1.016  0.00  0.00    +0.041 A 
ATOM     17  C   UNL     1      -1.203   5.669  -0.897  0.00  0.00    +0.020 A 
ATOM     18  C   UNL     1      -1.144   6.258   0.355  0.00  0.00    +0.015 A 
ATOM     19 BR   UNL     1      -1.279   6.751  -2.446  0.00  0.00    -0.050 Br
ENDBRANCH   1  15
BRANCH   3  20
ATOM     20  C   UNL     1      -1.100  -0.788   0.585  0.00  0.00    +0.247 C 
ATOM     21  O   UNL     1      -2.054  -0.221   1.081  0.00  0.00    -0.270 OA
ATOM     22  N   UNL     1      -1.051  -2.135   0.568  0.00  0.00    -0.325 N 
ATOM     23  H   UNL     1      -1.874  -2.721   1.002  0.00  0.00    +0.145 HD
ATOM     24  H   UNL     1      -0.187  -2.648   0.120  0.00  0.00    +0.145 HD
ENDBRANCH   3  20
BRANCH   7  25
ATOM     25  N   UNL     1       5.178   0.002  -3.322  0.00  0.00    +0.056 N 
ATOM     26  O   UNL     1       5.193  -1.187  -3.586  0.00  0.00    -0.126 OA
ATOM     27  O   UNL     1       6.037   0.737  -3.775  0.00  0.00    -0.126 OA
ENDBRANCH   7  25
TORSDOF 3
