REMARK  Name = ZINC36206366
REMARK  17 active torsions:
REMARK  status: ('A' for Active; 'I' for Inactive)
REMARK    1  A    between atoms: C_1  and  C_2
REMARK    2  A    between atoms: C_2  and  C_3
REMARK    3  A    between atoms: C_3  and  C_4
REMARK    4  A    between atoms: C_4  and  O_6
REMARK    5  A    between atoms: O_6  and  C_7
REMARK    6  A    between atoms: C_7  and  C_8
REMARK    7  A    between atoms: C_8  and  C_10
REMARK    8  A    between atoms: C_8  and  O_35
REMARK    9  A    between atoms: C_10  and  N_11
REMARK   10  A    between atoms: N_11  and  C_12
REMARK   11  A    between atoms: N_11  and  C_32
REMARK   12  A    between atoms: C_12  and  C_13
REMARK   13  A    between atoms: C_19  and  C_24
REMARK   14  A    between atoms: C_28  and  O_30
REMARK   15  A    between atoms: O_30  and  C_31
REMARK   16  A    between atoms: C_32  and  C_33
REMARK   17  A    between atoms: C_32  and  C_34
REMARK                            x       y       z     vdW  Elec       q    Type
REMARK                         _______ _______ _______ _____ _____    ______ ____
ROOT
ATOM      1  C   UNL     1      -6.466  -7.834   1.781  0.00  0.00    +0.094 A 
ATOM      2  N   UNL     1      -6.570  -8.794   2.735  0.00  0.00    -0.312 N 
ATOM      3  H   UNL     1      -5.846  -9.429   2.852  0.00  0.00    +0.170 HD
ATOM      4  C   UNL     1      -7.658  -8.881   3.523  0.00  0.00    +0.260 A 
ATOM      5  O   UNL     1      -7.736  -9.749   4.376  0.00  0.00    -0.267 OA
ATOM      6  C   UNL     1      -8.721  -7.940   3.345  0.00  0.00    +0.080 A 
ATOM      7  C   UNL     1      -9.985  -7.828   4.063  0.00  0.00    +0.004 A 
ATOM      8  C   UNL     1     -10.848  -6.843   3.715  0.00  0.00    +0.056 A 
ATOM      9  S   UNL     1     -10.002  -6.004   2.389  0.00  0.00    -0.076 S 
ATOM     10  C   UNL     1      -8.524  -6.985   2.334  0.00  0.00    +0.116 A 
ATOM     11  N   UNL     1      -7.417  -6.958   1.597  0.00  0.00    -0.229 NA
ENDROOT
BRANCH   7  12
ATOM     12  C   UNL     1     -10.319  -8.774   5.154  0.00  0.00    -0.013 A 
ATOM     13  C   UNL     1     -10.193 -10.148   4.952  0.00  0.00    +0.009 A 
ATOM     14  C   UNL     1     -10.505 -11.027   5.969  0.00  0.00    +0.004 A 
ATOM     15  C   UNL     1     -10.944 -10.549   7.190  0.00  0.00    +0.045 A 
ATOM     16  C   UNL     1     -11.073  -9.183   7.400  0.00  0.00    +0.121 A 
ATOM     17  C   UNL     1     -10.756  -8.293   6.387  0.00  0.00    +0.054 A 
BRANCH  16  18
ATOM     18  O   UNL     1     -11.505  -8.718   8.602  0.00  0.00    -0.495 OA
ATOM     19  C   UNL     1     -11.807  -9.691   9.603  0.00  0.00    +0.277 C 
ENDBRANCH  16  18
ENDBRANCH   7  12
BRANCH   1  20
ATOM     20  C   UNL     1      -5.229  -7.775   0.922  0.00  0.00    -0.003 C 
BRANCH  20  21
ATOM     21  N   UNL     1      -5.418  -6.779  -0.141  0.00  0.00    +0.388 N 
ATOM     22  H   UNL     1      -5.926  -5.988   0.225  0.00  0.00    -0.081 HD
BRANCH  21  23
ATOM     23  C   UNL     1      -6.178  -7.381  -1.245  0.00  0.00    -0.074 C 
ATOM     24  C   UNL     1      -5.408  -8.582  -1.799  0.00  0.00    -0.014 C 
ATOM     25  C   UNL     1      -7.543  -7.842  -0.733  0.00  0.00    -0.014 C 
ENDBRANCH  21  23
BRANCH  21  26
ATOM     26  C   UNL     1      -4.108  -6.334  -0.634  0.00  0.00    -0.043 C 
BRANCH  26  27
ATOM     27  C   UNL     1      -4.299  -5.181  -1.622  0.00  0.00    +0.136 C 
BRANCH  27  28
ATOM     28  O   UNL     1      -4.917  -5.672  -2.813  0.00  0.00    -0.390 OA
ATOM     29  H   UNL     1      -4.442  -6.404  -3.229  0.00  0.00    +0.210 HD
ENDBRANCH  27  28
BRANCH  27  30
ATOM     30  C   UNL     1      -2.938  -4.573  -1.966  0.00  0.00    +0.261 C 
BRANCH  30  31
ATOM     31  O   UNL     1      -3.125  -3.425  -2.796  0.00  0.00    -0.462 OA
BRANCH  31  32
ATOM     32  C   UNL     1      -2.021  -2.771  -3.189  0.00  0.00    +0.307 C 
ATOM     33  O   UNL     1      -0.932  -3.160  -2.841  0.00  0.00    -0.251 OA
BRANCH  32  34
ATOM     34  C   UNL     1      -2.141  -1.550  -4.066  0.00  0.00    +0.120 C 
BRANCH  34  36
ATOM     35  C   UNL     1      -0.866   0.238  -5.256  0.00  0.00    +0.004 C 
ATOM     36  C   UNL     1      -0.745  -1.000  -4.367  0.00  0.00    +0.008 C 
ENDBRANCH  34  36
ENDBRANCH  32  34
ENDBRANCH  31  32
ENDBRANCH  30  31
ENDBRANCH  27  30
ENDBRANCH  26  27
ENDBRANCH  21  26
ENDBRANCH  20  21
ENDBRANCH   1  20
TORSDOF 13
