REMARK  Name = ZINC36342229
REMARK  10 active torsions:
REMARK  status: ('A' for Active; 'I' for Inactive)
REMARK    1  A    between atoms: C_1  and  C_2
REMARK    2  A    between atoms: C_5  and  C_8
REMARK    3  A    between atoms: C_11  and  C_26
REMARK    4  A    between atoms: C_14  and  C_16
REMARK    5  A    between atoms: C_16  and  N_17
REMARK    6  A    between atoms: C_20  and  C_23
REMARK    7  A    between atoms: C_29  and  O_34
REMARK    8  A    between atoms: C_31  and  O_32
REMARK    9  A    between atoms: O_32  and  C_33
REMARK   10  A    between atoms: O_34  and  C_35
REMARK                            x       y       z     vdW  Elec       q    Type
REMARK                         _______ _______ _______ _____ _____    ______ ____
ROOT
ATOM      1  C   UNL     1       0.059  -4.275  -0.021  0.00  0.00    +0.137 C 
ATOM      2  C   UNL     1       1.479  -4.801   0.271  0.00  0.00    +0.087 C 
ATOM      3  C   UNL     1       1.317  -5.594   1.548  0.00  0.00    +0.072 C 
ATOM      4  N   UNL     1       0.087  -5.551   1.929  0.00  0.00    -0.181 NA
ATOM      5  N   UNL     1      -0.746  -4.810   1.088  0.00  0.00    -0.187 N 
ATOM      6  C   UNL     1      -2.068  -4.613   1.263  0.00  0.00    +0.219 C 
ATOM      7  O   UNL     1      -2.693  -3.946   0.465  0.00  0.00    -0.276 OA
ENDROOT
BRANCH   1  12
ATOM      8  C   UNL     1      -0.018   1.503   0.010  0.00  0.00    +0.044 C 
ATOM      9  C   UNL     1       0.002  -0.004   0.002  0.00  0.00    -0.050 A 
ATOM     10  C   UNL     1       0.006  -0.689  -1.199  0.00  0.00    +0.004 A 
ATOM     11  C   UNL     1       0.025  -2.071  -1.206  0.00  0.00    +0.006 A 
ATOM     12  C   UNL     1       0.040  -2.768  -0.013  0.00  0.00    -0.025 A 
ATOM     13  C   UNL     1       0.037  -2.084   1.188  0.00  0.00    +0.006 A 
ATOM     14  C   UNL     1       0.023  -0.702   1.195  0.00  0.00    +0.004 A 
ENDBRANCH   1  12
BRANCH   3  15
ATOM     15  C   UNL     1       2.399  -6.307   2.249  0.00  0.00    +0.040 A 
ATOM     16  C   UNL     1       3.701  -6.279   1.742  0.00  0.00    +0.017 A 
ATOM     17  C   UNL     1       4.710  -6.946   2.400  0.00  0.00    +0.046 A 
ATOM     18  C   UNL     1       4.438  -7.650   3.568  0.00  0.00    +0.124 A 
ATOM     19  C   UNL     1       3.149  -7.685   4.079  0.00  0.00    +0.091 A 
ATOM     20  C   UNL     1       2.128  -7.012   3.430  0.00  0.00    +0.132 A 
BRANCH  20  21
ATOM     21  O   UNL     1       0.867  -7.040   3.933  0.00  0.00    -0.494 OA
ATOM     22  C   UNL     1       0.666  -7.779   5.140  0.00  0.00    +0.277 C 
ENDBRANCH  20  21
BRANCH  18  23
ATOM     23  O   UNL     1       5.439  -8.306   4.211  0.00  0.00    -0.495 OA
ATOM     24  C   UNL     1       6.742  -8.230   3.631  0.00  0.00    +0.277 C 
ENDBRANCH  18  23
ENDBRANCH   3  15
BRANCH   6  25
ATOM     25  C   UNL     1      -2.770  -5.222   2.449  0.00  0.00    +0.021 C 
BRANCH  25  26
ATOM     26  N   UNL     1      -4.194  -4.863   2.412  0.00  0.00    +0.385 N 
ATOM     27  C   UNL     1      -4.336  -3.411   2.570  0.00  0.00    -0.077 C 
ATOM     28  C   UNL     1      -5.811  -3.022   2.451  0.00  0.00    -0.006 C 
ATOM     29  C   UNL     1      -6.611  -3.736   3.545  0.00  0.00    +0.071 C 
ATOM     30  C   UNL     1      -6.396  -5.247   3.416  0.00  0.00    -0.006 C 
ATOM     31  C   UNL     1      -4.899  -5.553   3.499  0.00  0.00    -0.077 C 
ATOM     32  H   UNL     1      -4.588  -5.143   1.526  0.00  0.00    -0.081 HD
BRANCH  29  33
ATOM     33  C   UNL     1      -8.075  -3.420   3.386  0.00  0.00    +0.213 C 
ATOM     34  O   UNL     1      -8.445  -2.694   2.487  0.00  0.00    -0.276 OA
ATOM     35  N   UNL     1      -8.975  -3.943   4.243  0.00  0.00    -0.329 N 
ATOM     36  H   UNL     1      -8.679  -4.523   4.962  0.00  0.00    +0.145 HD
ATOM     37  H   UNL     1      -9.918  -3.739   4.141  0.00  0.00    +0.145 HD
ENDBRANCH  29  33
ENDBRANCH  25  26
ENDBRANCH   6  25
TORSDOF 7
