REMARK  Name = ZINC14460908
REMARK  4 active torsions:
REMARK  status: ('A' for Active; 'I' for Inactive)
REMARK    1  A    between atoms: C_6  and  S_7
REMARK    2  A    between atoms: S_7  and  N_10
REMARK    3  A    between atoms: C_24  and  C_27
REMARK    4  A    between atoms: C_32  and  O_33
REMARK                            x       y       z     vdW  Elec       q    Type
REMARK                         _______ _______ _______ _____ _____    ______ ____
ROOT
ATOM      1  C   UNL     1      -3.017   0.880   2.871  0.00  0.00    +0.030 A 
ATOM      2  C   UNL     1      -3.271   1.294   4.164  0.00  0.00    +0.025 A 
ATOM      3  C   UNL     1      -2.812   2.530   4.601  0.00  0.00    +0.031 A 
ATOM      4  C   UNL     1      -2.092   3.355   3.749  0.00  0.00    -0.018 A 
ATOM      5  C   UNL     1      -1.839   2.925   2.454  0.00  0.00    +0.034 A 
ATOM      6  C   UNL     1      -2.295   1.696   2.020  0.00  0.00    +0.106 A 
ATOM      7  C   UNL     1      -1.578   4.693   4.175  0.00  0.00    +0.049 C 
ATOM      8  C   UNL     1      -0.088   4.658   4.422  0.00  0.00    -0.023 C 
ATOM      9  C   UNL     1       0.222   5.434   5.432  0.00  0.00    -0.030 C 
ATOM     10  C   UNL     1      -1.021   6.098   5.993  0.00  0.00    +0.033 C 
ATOM     11  C   UNL     1      -2.174   5.168   5.514  0.00  0.00    +0.029 C 
ATOM     12  C   UNL     1      -2.250   3.995   6.497  0.00  0.00    +0.108 C 
ATOM     13  N   UNL     1      -3.081   2.938   5.912  0.00  0.00    -0.336 N 
ATOM     14  H   UNL     1      -3.799   2.531   6.421  0.00  0.00    +0.147 HD
ENDROOT
BRANCH  12  15
ATOM     15  C   UNL     1      -0.865   3.462   6.758  0.00  0.00    +0.015 A 
ATOM     16  C   UNL     1      -0.341   2.472   5.949  0.00  0.00    +0.024 A 
ATOM     17  C   UNL     1       0.930   1.982   6.189  0.00  0.00    +0.018 A 
ATOM     18  C   UNL     1       1.680   2.483   7.238  0.00  0.00    +0.019 A 
ATOM     19  C   UNL     1       1.161   3.474   8.049  0.00  0.00    +0.047 A 
ATOM     20  C   UNL     1      -0.113   3.970   7.807  0.00  0.00    +0.122 A 
ATOM     21 BR   UNL     1       1.644   0.627   5.080  0.00  0.00    -0.050 Br
BRANCH  20  22
ATOM     22  O   UNL     1      -0.623   4.948   8.600  0.00  0.00    -0.506 OA
ATOM     23  H   UNL     1      -1.109   4.618   9.368  0.00  0.00    +0.292 HD
ENDBRANCH  20  22
ENDBRANCH  12  15
BRANCH   6  24
ATOM     24  S   UNL     1      -1.962   1.169   0.372  0.00  0.00    +0.061 S 
ATOM     25  O   UNL     1      -1.745   2.345  -0.395  0.00  0.00    -0.153 OA
ATOM     26  O   UNL     1      -2.964   0.217   0.040  0.00  0.00    -0.153 OA
BRANCH  24  27
ATOM     27  N   UNL     1      -0.523   0.350   0.401  0.00  0.00    -0.177 NA
ATOM     28  C   UNL     1       0.700   1.091   0.186  0.00  0.00    +0.109 C 
ATOM     29  C   UNL     1       1.018   1.139  -1.329  0.00  0.00    +0.017 C 
ATOM     30  C   UNL     1       1.446  -0.186  -1.803  0.00  0.00    +0.001 C 
ATOM     31  C   UNL     1       0.383  -1.273  -1.675  0.00  0.00    +0.001 C 
ATOM     32  C   UNL     1       0.432  -1.858  -0.285  0.00  0.00    +0.017 C 
ATOM     33  C   UNL     1      -0.542  -1.106   0.639  0.00  0.00    +0.109 C 
ENDBRANCH  24  27
ENDBRANCH   6  24
TORSDOF 4
