REMARK  Name = ZINC09428246
REMARK  8 active torsions:
REMARK  status: ('A' for Active; 'I' for Inactive)
REMARK    1  A    between atoms: C_1  and  C_2
REMARK    2  A    between atoms: C_2  and  C_3
REMARK    3  A    between atoms: C_3  and  C_5
REMARK    4  A    between atoms: C_3  and  C_6
REMARK    5  A    between atoms: C_9  and  N_12
REMARK    6  A    between atoms: C_16  and  C_17
REMARK    7  A    between atoms: N_19  and  C_26
REMARK    8  A    between atoms: C_26  and  C_27
REMARK                            x       y       z     vdW  Elec       q    Type
REMARK                         _______ _______ _______ _____ _____    ______ ____
ROOT
ATOM      1  N   UNL     1      -1.899   9.203  -0.150  0.00  0.00    -0.190 N 
ATOM      2  C   UNL     1      -1.428   8.169   0.576  0.00  0.00    +0.263 C 
ATOM      3  O   UNL     1      -2.179   7.474   1.235  0.00  0.00    -0.269 OA
ATOM      4  C   UNL     1       0.021   7.903   0.550  0.00  0.00    +0.100 C 
ATOM      5  C   UNL     1       0.579   6.856   1.272  0.00  0.00    +0.028 C 
ATOM      6  C   UNL     1       0.853   8.800  -0.271  0.00  0.00    +0.257 C 
ATOM      7  O   UNL     1       2.058   8.646  -0.338  0.00  0.00    -0.270 OA
ATOM      8  N   UNL     1       0.242   9.793  -0.950  0.00  0.00    -0.235 N 
ATOM      9  C   UNL     1      -1.084   9.976  -0.880  0.00  0.00    +0.320 C 
ATOM     10  O   UNL     1      -1.572  10.893  -1.512  0.00  0.00    -0.251 OA
ATOM     11  H   UNL     1       0.775  10.390  -1.498  0.00  0.00    +0.159 HD
ENDROOT
BRANCH   5  12
ATOM     12  C   UNL     1      -0.206   6.145   2.203  0.00  0.00    +0.001 A 
ATOM     13  C   UNL     1      -1.034   6.681   3.174  0.00  0.00    +0.095 A 
ATOM     14  N   UNL     1      -1.616   5.686   3.868  0.00  0.00    -0.342 N 
ATOM     15  C   UNL     1      -1.207   4.454   3.396  0.00  0.00    +0.050 A 
ATOM     16  C   UNL     1      -0.311   4.678   2.339  0.00  0.00    +0.007 A 
ATOM     17  C   UNL     1       0.264   3.603   1.670  0.00  0.00    +0.010 A 
ATOM     18  C   UNL     1      -0.050   2.315   2.050  0.00  0.00    +0.001 A 
ATOM     19  C   UNL     1      -0.935   2.091   3.094  0.00  0.00    +0.002 A 
ATOM     20  C   UNL     1      -1.516   3.148   3.761  0.00  0.00    +0.026 A 
BRANCH  14  21
ATOM     21  C   UNL     1      -2.557   5.882   4.974  0.00  0.00    +0.157 C 
BRANCH  21  22
ATOM     22  C   UNL     1      -1.810   5.835   6.282  0.00  0.00    -0.028 A 
ATOM     23  C   UNL     1      -1.650   4.631   6.944  0.00  0.00    +0.007 A 
ATOM     24  C   UNL     1      -0.961   4.586   8.141  0.00  0.00    +0.020 A 
ATOM     25  C   UNL     1      -0.440   5.747   8.683  0.00  0.00    +0.041 A 
ATOM     26  C   UNL     1      -0.605   6.952   8.023  0.00  0.00    +0.020 A 
ATOM     27  C   UNL     1      -1.290   6.995   6.824  0.00  0.00    +0.007 A 
ATOM     28 CL   UNL     1       0.421   5.693  10.189  0.00  0.00    -0.084 Cl
ENDBRANCH  21  22
ENDBRANCH  14  21
ENDBRANCH   5  12
BRANCH   1  32
ATOM     29  C   UNL     1      -5.988  10.014  -0.124  0.00  0.00    -0.044 A 
ATOM     30  C   UNL     1      -5.156  10.631   0.793  0.00  0.00    +0.006 A 
ATOM     31  C   UNL     1      -3.801  10.364   0.786  0.00  0.00    +0.024 A 
ATOM     32  C   UNL     1      -3.274   9.476  -0.141  0.00  0.00    +0.046 A 
ATOM     33  C   UNL     1      -4.111   8.861  -1.063  0.00  0.00    +0.024 A 
ATOM     34  C   UNL     1      -5.466   9.128  -1.048  0.00  0.00    +0.006 A 
BRANCH  29  35
ATOM     35  C   UNL     1      -7.466  10.308  -0.115  0.00  0.00    +0.016 C 
ATOM     36  C   UNL     1      -8.242   9.013   0.134  0.00  0.00    +0.012 C 
BRANCH  35  38
ATOM     37  C   UNL     1      -9.349  11.311  -1.415  0.00  0.00    +0.004 C 
ATOM     38  C   UNL     1      -7.877  10.897  -1.466  0.00  0.00    +0.004 C 
ENDBRANCH  35  38
ENDBRANCH  29  35
ENDBRANCH   1  32
TORSDOF 6
