REMARK  Name = ZINC65304892
REMARK  8 active torsions:
REMARK  status: ('A' for Active; 'I' for Inactive)
REMARK    1  A    between atoms: C_1  and  C_2
REMARK    2  A    between atoms: C_2  and  C_4
REMARK    3  A    between atoms: C_2  and  N_15
REMARK    4  A    between atoms: C_4  and  C_5
REMARK    5  A    between atoms: N_17  and  C_18
REMARK    6  A    between atoms: C_21  and  C_24
REMARK    7  A    between atoms: N_27  and  C_28
REMARK    8  A    between atoms: C_28  and  C_29
REMARK                            x       y       z     vdW  Elec       q    Type
REMARK                         _______ _______ _______ _____ _____    ______ ____
ROOT
ATOM      1  N   UNL     1      -2.102   0.518  -0.272  0.00  0.00    -0.355 N 
ATOM      2  C   UNL     1      -2.780  -0.228   0.554  0.00  0.00    +0.176 C 
ATOM      3  N   UNL     1      -4.091  -0.547   0.276  0.00  0.00    -0.328 N 
ATOM      4  N   UNL     1      -2.187  -0.697   1.702  0.00  0.00    -0.353 N 
ATOM      5  H   UNL     1      -2.468   0.734  -1.144  0.00  0.00    +0.163 HD
ATOM      6  H   UNL     1      -1.291  -0.410   1.938  0.00  0.00    +0.163 HD
ATOM      7  H   UNL     1      -4.717  -0.699   1.000  0.00  0.00    +0.169 HD
ENDROOT
BRANCH   3   8
ATOM      8  C   UNL     1      -4.516  -0.652  -1.046  0.00  0.00    +0.042 A 
ATOM      9  C   UNL     1      -3.583  -0.644  -2.079  0.00  0.00    +0.026 A 
ATOM     10  C   UNL     1      -3.998  -0.746  -3.381  0.00  0.00    +0.017 A 
ATOM     11  C   UNL     1      -5.362  -0.859  -3.672  0.00  0.00    +0.063 A 
ATOM     12  C   UNL     1      -6.298  -0.866  -2.631  0.00  0.00    +0.017 A 
ATOM     13  C   UNL     1      -5.874  -0.769  -1.330  0.00  0.00    +0.026 A 
BRANCH  11  14
ATOM     14  C   UNL     1      -5.813  -0.968  -5.069  0.00  0.00    +0.387 C 
ATOM     15  O   UNL     1      -4.994  -0.960  -5.978  0.00  0.00    -0.241 OA
ATOM     16  O   UNL     1      -7.006  -1.066  -5.321  0.00  0.00    -0.241 OA
ENDBRANCH  11  14
ENDBRANCH   3   8
BRANCH   1  18
ATOM     17  C   UNL     1      -0.957   2.325   0.914  0.00  0.00    +0.030 C 
ATOM     18  C   UNL     1      -0.785   1.030   0.117  0.00  0.00    +0.079 C 
BRANCH  18  19
ATOM     19  C   UNL     1       0.043   1.311  -1.139  0.00  0.00    +0.031 C 
BRANCH  19  20
ATOM     20  C   UNL     1       0.666   0.007  -1.641  0.00  0.00    -0.027 C 
ATOM     21  C   UNL     1       1.638  -0.532  -0.590  0.00  0.00    +0.010 C 
ATOM     22  C   UNL     1       2.260  -1.837  -1.092  0.00  0.00    -0.010 C 
ATOM     23  C   UNL     1       1.156  -2.866  -1.341  0.00  0.00    +0.007 C 
ATOM     24  C   UNL     1       0.184  -2.327  -2.392  0.00  0.00    -0.010 C 
ATOM     25  C   UNL     1      -0.439  -1.023  -1.890  0.00  0.00    +0.010 C 
ATOM     26  C   UNL     1       0.938  -2.063  -3.697  0.00  0.00    +0.007 C 
ATOM     27  C   UNL     1       2.042  -1.033  -3.448  0.00  0.00    -0.010 C 
ATOM     28  C   UNL     1       3.015  -1.572  -2.397  0.00  0.00    +0.007 C 
ATOM     29  C   UNL     1       1.420   0.271  -2.946  0.00  0.00    +0.010 C 
ENDBRANCH  19  20
ENDBRANCH  18  19
ENDBRANCH   1  18
BRANCH   4  30
ATOM     30  C   UNL     1      -2.909  -1.629   2.571  0.00  0.00    +0.151 C 
BRANCH  30  31
ATOM     31  C   UNL     1      -2.094  -1.894   3.811  0.00  0.00    -0.028 A 
ATOM     32  C   UNL     1      -1.184  -2.934   3.830  0.00  0.00    +0.008 A 
ATOM     33  C   UNL     1      -0.436  -3.178   4.966  0.00  0.00    +0.038 A 
ATOM     34  C   UNL     1      -0.599  -2.379   6.086  0.00  0.00    +0.123 A 
ATOM     35  C   UNL     1      -1.511  -1.338   6.066  0.00  0.00    +0.038 A 
ATOM     36  C   UNL     1      -2.254  -1.093   4.926  0.00  0.00    +0.008 A 
ATOM     37  F   UNL     1       0.132  -2.617   7.197  0.00  0.00    -0.205 F 
ENDBRANCH  30  31
ENDBRANCH   4  30
TORSDOF 7
