REMARK  Name = ZINC52939334
REMARK  8 active torsions:
REMARK  status: ('A' for Active; 'I' for Inactive)
REMARK    1  A    between atoms: C_1  and  C_2
REMARK    2  A    between atoms: C_5  and  C_8
REMARK    3  A    between atoms: C_10  and  C_13
REMARK    4  A    between atoms: N_15  and  N_16
REMARK    5  A    between atoms: N_16  and  C_17
REMARK    6  A    between atoms: C_17  and  N_19
REMARK    7  A    between atoms: N_19  and  C_20
REMARK    8  A    between atoms: C_26  and  C_28
REMARK                            x       y       z     vdW  Elec       q    Type
REMARK                         _______ _______ _______ _____ _____    ______ ____
ROOT
ATOM      1  C   UNL     1       0.103  -7.366   1.851  0.00  0.00    +0.279 C 
ATOM      2  O   UNL     1       0.120  -8.558   1.611  0.00  0.00    -0.267 OA
ATOM      3  N   UNL     1       0.097  -6.937   3.129  0.00  0.00    -0.230 N 
ATOM      4  H   UNL     1       0.084  -5.986   3.321  0.00  0.00    +0.173 HD
ENDROOT
BRANCH   1   7
ATOM      5  C   UNL     1       0.061  -4.252  -0.021  0.00  0.00    +0.109 A 
ATOM      6  N   UNL     1       0.072  -5.090   0.999  0.00  0.00    -0.234 NA
ATOM      7  C   UNL     1       0.089  -6.392   0.747  0.00  0.00    +0.135 A 
ATOM      8  C   UNL     1       0.096  -6.818  -0.555  0.00  0.00    +0.080 A 
ATOM      9  S   UNL     1       0.068  -5.370  -1.412  0.00  0.00    -0.075 S 
BRANCH   5  14
ATOM     10  C   UNL     1      -0.018   1.503   0.010  0.00  0.00    +0.044 C 
ATOM     11  C   UNL     1       0.002  -0.004   0.002  0.00  0.00    -0.050 A 
ATOM     12  C   UNL     1       0.006  -0.686  -1.202  0.00  0.00    +0.004 A 
ATOM     13  C   UNL     1       0.025  -2.066  -1.216  0.00  0.00    +0.011 A 
ATOM     14  C   UNL     1       0.041  -2.773  -0.013  0.00  0.00    +0.007 A 
ATOM     15  C   UNL     1       0.037  -2.079   1.197  0.00  0.00    +0.011 A 
ATOM     16  C   UNL     1       0.023  -0.699   1.198  0.00  0.00    +0.004 A 
ENDBRANCH   5  14
ENDBRANCH   1   7
BRANCH   3  17
ATOM     17  N   UNL     1       0.110  -7.863   4.180  0.00  0.00    -0.246 N 
ATOM     18  H   UNL     1       0.123  -8.814   3.988  0.00  0.00    +0.172 HD
BRANCH  17  19
ATOM     19  C   UNL     1       0.103  -7.434   5.457  0.00  0.00    +0.147 C 
ATOM     20  S   UNL     1       0.119  -8.566   6.741  0.00  0.00    -0.017 S 
BRANCH  19  21
ATOM     21  N   UNL     1       0.085  -6.113   5.724  0.00  0.00    -0.322 N 
ATOM     22  H   UNL     1       0.076  -5.471   4.996  0.00  0.00    +0.148 HD
BRANCH  21  23
ATOM     23  C   UNL     1       0.078  -5.646   7.112  0.00  0.00    +0.075 C 
ATOM     24  C   UNL     1       1.514  -5.583   7.636  0.00  0.00    +0.022 C 
ATOM     25  C   UNL     1       2.329  -4.614   6.776  0.00  0.00    +0.002 C 
ATOM     26  C   UNL     1       1.699  -3.221   6.843  0.00  0.00    +0.000 C 
ATOM     27  C   UNL     1       0.263  -3.284   6.319  0.00  0.00    +0.005 C 
ATOM     28  C   UNL     1      -0.551  -4.253   7.179  0.00  0.00    +0.006 C 
ATOM     29  C   UNL     1      -1.987  -4.316   6.655  0.00  0.00    +0.009 C 
ENDBRANCH  21  23
ENDBRANCH  19  21
ENDBRANCH  17  19
ENDBRANCH   3  17
TORSDOF 6
