REMARK  Name = ZINC36061544
REMARK  12 active torsions:
REMARK  status: ('A' for Active; 'I' for Inactive)
REMARK    1  A    between atoms: C_1  and  C_2
REMARK    2  A    between atoms: C_10  and  C_12
REMARK    3  A    between atoms: C_15  and  C_17
REMARK    4  A    between atoms: C_17  and  N_18
REMARK    5  A    between atoms: N_18  and  C_19
REMARK    6  A    between atoms: N_18  and  C_30
REMARK    7  A    between atoms: C_19  and  C_20
REMARK    8  A    between atoms: C_23  and  C_26
REMARK    9  A    between atoms: C_26  and  C_27
REMARK   10  A    between atoms: C_26  and  C_28
REMARK   11  A    between atoms: C_26  and  C_29
REMARK   12  A    between atoms: C_30  and  C_31
REMARK                            x       y       z     vdW  Elec       q    Type
REMARK                         _______ _______ _______ _____ _____    ______ ____
ROOT
ATOM      1  N   UNL     1      -2.143  -8.043   0.821  0.00  0.00    +0.391 N 
ATOM      2  H   UNL     1      -2.055  -7.687   1.761  0.00  0.00    -0.080 HD
ENDROOT
BRANCH   1   3
ATOM      3  C   UNL     1      -2.255  -6.921  -0.120  0.00  0.00    +0.020 C 
BRANCH   3   7
ATOM      4  C   UNL     1      -4.544  -4.462   1.236  0.00  0.00    +0.164 A 
ATOM      5  C   UNL     1      -5.396  -5.191   0.466  0.00  0.00    +0.230 A 
ATOM      6  O   UNL     1      -4.669  -6.161  -0.112  0.00  0.00    -0.449 OA
ATOM      7  C   UNL     1      -3.399  -6.031   0.294  0.00  0.00    +0.179 A 
ATOM      8  N   UNL     1      -3.308  -5.014   1.099  0.00  0.00    -0.210 NA
BRANCH   4  18
ATOM      9  C   UNL     1      -2.128  -0.557   6.849  0.00  0.00    +0.109 C 
ATOM     10  C   UNL     1      -1.820  -1.836   6.115  0.00  0.00    +0.213 C 
ATOM     11  O   UNL     1      -0.744  -2.376   6.262  0.00  0.00    -0.276 OA
ATOM     12  N   UNL     1      -2.740  -2.381   5.293  0.00  0.00    -0.299 N 
ATOM     13  C   UNL     1      -4.045  -1.734   5.101  0.00  0.00    +0.126 C 
ATOM     14  C   UNL     1      -4.257  -1.496   3.600  0.00  0.00    +0.127 C 
ATOM     15  N   UNL     1      -3.972  -2.746   2.882  0.00  0.00    -0.293 N 
ATOM     16  C   UNL     1      -2.667  -3.392   3.075  0.00  0.00    +0.127 C 
ATOM     17  C   UNL     1      -2.453  -3.627   4.571  0.00  0.00    +0.126 C 
ATOM     18  C   UNL     1      -4.892  -3.290   2.061  0.00  0.00    +0.268 C 
ATOM     19  O   UNL     1      -6.010  -2.815   1.999  0.00  0.00    -0.268 OA
ENDBRANCH   4  18
ENDBRANCH   3   7
ENDBRANCH   1   3
BRANCH   1  20
ATOM     20  C   UNL     1      -0.957  -8.844   0.488  0.00  0.00    -0.042 C 
BRANCH  20  21
ATOM     21  C   UNL     1       0.287  -8.037   0.762  0.00  0.00    -0.064 A 
ATOM     22  C   UNL     1       0.897  -7.339  -0.263  0.00  0.00    +0.002 A 
ATOM     23  C   UNL     1       2.038  -6.599  -0.013  0.00  0.00    +0.004 A 
ATOM     24  C   UNL     1       2.567  -6.557   1.264  0.00  0.00    -0.042 A 
ATOM     25  C   UNL     1       1.956  -7.255   2.289  0.00  0.00    +0.004 A 
ATOM     26  C   UNL     1       0.814  -7.991   2.039  0.00  0.00    +0.002 A 
BRANCH  24  27
ATOM     27  C   UNL     1       3.811  -5.751   1.537  0.00  0.00    -0.013 C 
ATOM     28  C   UNL     1       3.518  -4.267   1.308  0.00  0.00    +0.015 C 
ATOM     29  C   UNL     1       4.250  -5.967   2.986  0.00  0.00    +0.015 C 
ATOM     30  C   UNL     1       4.928  -6.202   0.593  0.00  0.00    +0.015 C 
ENDBRANCH  24  27
ENDBRANCH  20  21
ENDBRANCH   1  20
BRANCH   1  31
ATOM     31  C   UNL     1      -3.343  -8.884   0.726  0.00  0.00    -0.042 C 
BRANCH  31  32
ATOM     32  C   UNL     1      -3.332  -9.904   1.835  0.00  0.00    -0.060 A 
ATOM     33  C   UNL     1      -2.848 -11.177   1.597  0.00  0.00    +0.005 A 
ATOM     34  C   UNL     1      -2.835 -12.116   2.611  0.00  0.00    +0.050 A 
ATOM     35  C   UNL     1      -3.308 -11.783   3.870  0.00  0.00    +0.166 A 
ATOM     36  C   UNL     1      -3.796 -10.501   4.110  0.00  0.00    +0.166 A 
ATOM     37  C   UNL     1      -3.800  -9.563   3.090  0.00  0.00    +0.051 A 
ATOM     38  O   UNL     1      -4.198 -10.424   5.412  0.00  0.00    -0.453 OA
ATOM     39  C   UNL     1      -4.331 -11.787   5.855  0.00  0.00    +0.466 C 
ATOM     40  O   UNL     1      -3.404 -12.509   5.022  0.00  0.00    -0.453 OA
ENDBRANCH  31  32
ENDBRANCH   1  31
TORSDOF 8
