REMARK  Name = ZINC39440771
REMARK  5 active torsions:
REMARK  status: ('A' for Active; 'I' for Inactive)
REMARK    1  A    between atoms: C_5  and  S_12
REMARK    2  A    between atoms: S_12  and  C_13
REMARK    3  A    between atoms: C_13  and  C_14
REMARK    4  A    between atoms: N_16  and  C_17
REMARK    5  A    between atoms: C_19  and  C_24
REMARK                            x       y       z     vdW  Elec       q    Type
REMARK                         _______ _______ _______ _____ _____    ______ ____
ROOT
ATOM      1  C   UNL     1      -8.166   2.619   0.056  0.00  0.00    +0.224 C 
ATOM      2  O   UNL     1      -8.881   1.640   0.054  0.00  0.00    -0.275 OA
ATOM      3  N   UNL     1      -8.711   3.852   0.065  0.00  0.00    -0.302 N 
ATOM      4  H   UNL     1      -8.138   4.635   0.066  0.00  0.00    +0.150 HD
ENDROOT
BRANCH   3   5
ATOM      5  C   UNL     1     -10.167   4.009   0.073  0.00  0.00    +0.151 C 
ATOM      6  C   UNL     1     -10.610   5.157   1.018  0.00  0.00    +0.128 C 
ATOM      7  C   UNL     1     -10.752   6.439   0.263  0.00  0.00    -0.005 C 
ATOM      8  C   UNL     1     -10.863   6.419  -1.051  0.00  0.00    +0.039 C 
ATOM      9  S   UNL     1     -10.781   4.698  -1.522  0.00  0.00    -0.110 S 
BRANCH   6  10
ATOM     10  C   UNL     1     -11.935   4.801   1.643  0.00  0.00    +0.220 C 
ATOM     11  O   UNL     1     -12.472   3.749   1.369  0.00  0.00    -0.275 OA
ATOM     12  N   UNL     1     -12.522   5.653   2.507  0.00  0.00    -0.329 N 
ATOM     13  H   UNL     1     -12.093   6.495   2.726  0.00  0.00    +0.145 HD
ATOM     14  H   UNL     1     -13.375   5.424   2.909  0.00  0.00    +0.145 HD
ENDBRANCH   6  10
ENDBRANCH   3   5
BRANCH   1  15
ATOM     15  C   UNL     1      -6.667   2.458   0.047  0.00  0.00    +0.173 C 
BRANCH  15  16
ATOM     16  S   UNL     1      -6.250   0.692   0.036  0.00  0.00    -0.079 S 
BRANCH  16  21
ATOM     17  C   UNL     1      -0.017   1.383   0.010  0.00  0.00    +0.022 A 
ATOM     18  C   UNL     1      -1.213   2.066   0.019  0.00  0.00    +0.031 A 
ATOM     19  C   UNL     1      -2.417   1.357   0.021  0.00  0.00    +0.090 A 
ATOM     20  N   UNL     1      -3.722   1.735   0.029  0.00  0.00    -0.222 NA
ATOM     21  C   UNL     1      -4.488   0.671   0.027  0.00  0.00    +0.168 A 
ATOM     22  H   UNL     1      -4.035  -1.372   0.013  0.00  0.00    +0.168 HD
ATOM     23  N   UNL     1      -3.716  -0.456   0.017  0.00  0.00    -0.333 N 
ATOM     24  C   UNL     1      -2.392  -0.048   0.013  0.00  0.00    +0.068 A 
ATOM     25  C   UNL     1      -1.179  -0.719   0.004  0.00  0.00    +0.047 A 
ATOM     26  C   UNL     1       0.002  -0.004   0.002  0.00  0.00    +0.043 A 
ATOM     27 CL   UNL     1       1.520  -0.846  -0.016  0.00  0.00    -0.083 Cl
ENDBRANCH  16  21
ENDBRANCH  15  16
ENDBRANCH   1  15
TORSDOF 5
