REMARK  Name = ZINC63685658
REMARK  8 active torsions:
REMARK  status: ('A' for Active; 'I' for Inactive)
REMARK    1  A    between atoms: C_1  and  C_2
REMARK    2  A    between atoms: C_2  and  C_3
REMARK    3  A    between atoms: C_2  and  C_4
REMARK    4  A    between atoms: C_8  and  N_13
REMARK    5  A    between atoms: C_14  and  C_16
REMARK    6  A    between atoms: C_16  and  N_17
REMARK    7  A    between atoms: C_20  and  C_24
REMARK    8  A    between atoms: C_20  and  C_25
REMARK                            x       y       z     vdW  Elec       q    Type
REMARK                         _______ _______ _______ _____ _____    ______ ____
ROOT
ATOM      1  N   UNL     1       4.304  -2.975  -5.103  0.00  0.00    -0.284 N 
ATOM      2  C   UNL     1       4.339  -3.121  -6.442  0.00  0.00    +0.235 C 
ATOM      3  O   UNL     1       3.521  -2.553  -7.136  0.00  0.00    -0.274 OA
ATOM      4  H   UNL     1       5.003  -3.365  -4.554  0.00  0.00    +0.155 HD
ENDROOT
BRANCH   1   9
ATOM      5  C   UNL     1      -0.895  -0.639  -3.852  0.00  0.00    +0.199 A 
ATOM      6  N   UNL     1      -0.364  -1.417  -4.747  0.00  0.00    -0.213 NA
ATOM      7  C   UNL     1       0.956  -1.582  -4.457  0.00  0.00    +0.111 A 
ATOM      8  C   UNL     1       1.993  -2.296  -5.058  0.00  0.00    +0.055 A 
ATOM      9  C   UNL     1       3.260  -2.260  -4.503  0.00  0.00    +0.036 A 
ATOM     10  C   UNL     1       3.501  -1.516  -3.350  0.00  0.00    +0.027 A 
ATOM     11  C   UNL     1       2.481  -0.809  -2.751  0.00  0.00    +0.050 A 
ATOM     12  C   UNL     1       1.206  -0.835  -3.296  0.00  0.00    +0.155 A 
ATOM     13  O   UNL     1       0.030  -0.260  -2.956  0.00  0.00    -0.439 OA
BRANCH   5  15
ATOM     14  C   UNL     1      -2.985  -0.677  -2.519  0.00  0.00    +0.017 C 
ATOM     15  C   UNL     1      -2.341  -0.216  -3.828  0.00  0.00    +0.069 C 
ATOM     16  C   UNL     1      -2.429   1.308  -3.930  0.00  0.00    +0.017 C 
ENDBRANCH   5  15
ENDBRANCH   1   9
BRANCH   2  17
ATOM     17  C   UNL     1       5.394  -3.988  -7.079  0.00  0.00    +0.214 C 
BRANCH  17  18
ATOM     18  N   UNL     1       5.219  -3.982  -8.533  0.00  0.00    -0.215 N 
ATOM     19  C   UNL     1       4.447  -4.858  -9.206  0.00  0.00    +0.246 C 
ATOM     20  O   UNL     1       3.791  -5.765  -8.740  0.00  0.00    -0.273 OA
ATOM     21  C   UNL     1       4.568  -4.473 -10.667  0.00  0.00    +0.107 C 
ATOM     22  N   UNL     1       5.481  -3.317 -10.646  0.00  0.00    -0.285 N 
ATOM     23  C   UNL     1       5.802  -3.104  -9.357  0.00  0.00    +0.310 C 
ATOM     24  O   UNL     1       6.542  -2.215  -8.983  0.00  0.00    -0.252 OA
ATOM     25  C   UNL     1       3.205  -4.072 -11.234  0.00  0.00    +0.041 C 
ATOM     26  C   UNL     1       5.173  -5.621 -11.478  0.00  0.00    +0.041 C 
ATOM     27  H   UNL     1       5.788  -2.807 -11.412  0.00  0.00    +0.151 HD
ENDBRANCH  17  18
ENDBRANCH   2  17
TORSDOF 4
