REMARK  Name = ZINC38875987
REMARK  8 active torsions:
REMARK  status: ('A' for Active; 'I' for Inactive)
REMARK    1  A    between atoms: C_1  and  O_2
REMARK    2  A    between atoms: O_2  and  C_3
REMARK    3  A    between atoms: C_8  and  O_9
REMARK    4  A    between atoms: O_9  and  C_10
REMARK    5  A    between atoms: N_13  and  C_14
REMARK    6  A    between atoms: C_14  and  C_16
REMARK    7  A    between atoms: N_22  and  C_23
REMARK    8  A    between atoms: C_23  and  C_24
REMARK                            x       y       z     vdW  Elec       q    Type
REMARK                         _______ _______ _______ _____ _____    ______ ____
ROOT
ATOM      1  C   UNL     1       0.773  -0.019  -0.968  0.00  0.00    +0.164 A 
ATOM      2  C   UNL     1       1.411   0.564  -2.042  0.00  0.00    +0.076 A 
ATOM      3  C   UNL     1       1.933  -0.225  -3.077  0.00  0.00    +0.062 A 
ATOM      4  C   UNL     1       1.776  -1.614  -2.965  0.00  0.00    +0.043 A 
ATOM      5  C   UNL     1       1.141  -2.200  -1.895  0.00  0.00    +0.066 A 
ATOM      6  C   UNL     1       0.635  -1.402  -0.879  0.00  0.00    +0.163 A 
ATOM      7  S   UNL     1       2.554  -2.228  -4.436  0.00  0.00    -0.052 S 
ATOM      8  C   UNL     1       3.029  -0.764  -5.110  0.00  0.00    +0.168 A 
ATOM      9  N   UNL     1       3.679  -0.565  -6.253  0.00  0.00    -0.151 NA
ATOM     10  N   UNL     1       2.599   0.171  -4.224  0.00  0.00    -0.309 N 
ENDROOT
BRANCH   1  12
ATOM     11  C   UNL     1       0.445   2.180  -0.123  0.00  0.00    +0.277 C 
ATOM     12  O   UNL     1       0.275   0.769   0.023  0.00  0.00    -0.491 OA
ENDBRANCH   1  12
BRANCH   6  13
ATOM     13  O   UNL     1       0.008  -1.964   0.190  0.00  0.00    -0.491 OA
ATOM     14  C   UNL     1      -0.092  -3.390   0.207  0.00  0.00    +0.277 C 
ENDBRANCH   6  13
BRANCH   9  15
ATOM     15  C   UNL     1       3.830   0.674  -6.729  0.00  0.00    +0.289 C 
ATOM     16  O   UNL     1       4.871   1.277  -6.536  0.00  0.00    -0.266 OA
BRANCH  15  17
ATOM     17  C   UNL     1       2.731   1.316  -7.490  0.00  0.00    +0.145 A 
ATOM     18  C   UNL     1       2.889   2.607  -7.992  0.00  0.00    +0.143 A 
ATOM     19  N   UNL     1       1.907   3.174  -8.670  0.00  0.00    -0.259 NA
ATOM     20  C   UNL     1       0.778   2.518  -8.873  0.00  0.00    +0.130 A 
ATOM     21  C   UNL     1       0.617   1.235  -8.374  0.00  0.00    +0.131 A 
ATOM     22  N   UNL     1       1.594   0.659  -7.701  0.00  0.00    -0.247 NA
ENDBRANCH  15  17
ENDBRANCH   9  15
BRANCH  10  23
ATOM     23  C   UNL     1       2.839   1.593  -4.481  0.00  0.00    +0.212 C 
BRANCH  23  24
ATOM     24  C   UNL     1       4.194   1.951  -4.032  0.00  0.00    -0.084 C 
ATOM     25  C   UNL     1       5.275   2.237  -3.674  0.00  0.00    +0.005 C 
ENDBRANCH  23  24
ENDBRANCH  10  23
TORSDOF 6
