REMARK  Name = ZINC00808741
REMARK  5 active torsions:
REMARK  status: ('A' for Active; 'I' for Inactive)
REMARK    1  A    between atoms: C_1  and  O_2
REMARK    2  A    between atoms: O_2  and  C_3
REMARK    3  A    between atoms: C_7  and  C_11
REMARK    4  A    between atoms: C_8  and  O_9
REMARK    5  A    between atoms: O_9  and  C_10
REMARK                            x       y       z     vdW  Elec       q    Type
REMARK                         _______ _______ _______ _____ _____    ______ ____
ROOT
ATOM      1  C   UNL     1      -1.298  -0.768   0.010  0.00  0.00    +0.063 C 
ATOM      2  C   UNL     1      -2.335  -0.005   0.834  0.00  0.00    +0.109 C 
ATOM      3  C   UNL     1      -2.362   1.439   0.407  0.00  0.00    +0.218 C 
ATOM      4  O   UNL     1      -3.412   2.046   0.408  0.00  0.00    -0.275 OA
ATOM      5  N   UNL     1      -1.232   2.060   0.019  0.00  0.00    -0.285 N 
ATOM      6  C   UNL     1      -0.017   1.374   0.010  0.00  0.00    +0.045 A 
ATOM      7  C   UNL     1       0.002  -0.004   0.002  0.00  0.00    -0.017 A 
ATOM      8  C   UNL     1       1.211  -0.696  -0.014  0.00  0.00    +0.022 A 
ATOM      9  C   UNL     1       2.401  -0.034  -0.022  0.00  0.00    +0.026 A 
ATOM     10  C   UNL     1       2.424   1.372  -0.015  0.00  0.00    -0.002 A 
ATOM     11  C   UNL     1       1.201   2.087   0.002  0.00  0.00    +0.005 A 
ATOM     12  C   UNL     1       1.223   3.490   0.009  0.00  0.00    +0.010 A 
ATOM     13  C   UNL     1       2.416   4.146  -0.000  0.00  0.00    +0.001 A 
ATOM     14  C   UNL     1       3.619   3.443  -0.018  0.00  0.00    +0.001 A 
ATOM     15  C   UNL     1       3.636   2.082  -0.025  0.00  0.00    +0.009 A 
ATOM     16 BR   UNL     1       4.024  -1.005  -0.044  0.00  0.00    -0.050 Br
ATOM     17  H   UNL     1      -1.260   2.992  -0.248  0.00  0.00    +0.155 HD
ENDROOT
BRANCH   1  22
ATOM     18  C   UNL     1      -2.441  -2.334  -3.241  0.00  0.00    +0.162 A 
ATOM     19  C   UNL     1      -2.714  -1.208  -4.002  0.00  0.00    +0.049 A 
ATOM     20  C   UNL     1      -2.529   0.051  -3.465  0.00  0.00    +0.004 A 
ATOM     21  C   UNL     1      -2.071   0.193  -2.168  0.00  0.00    +0.008 A 
ATOM     22  C   UNL     1      -1.796  -0.926  -1.403  0.00  0.00    +0.006 A 
ATOM     23  C   UNL     1      -1.974  -2.192  -1.938  0.00  0.00    +0.165 A 
BRANCH  18  25
ATOM     24  C   UNL     1      -3.098  -3.643  -5.115  0.00  0.00    +0.277 C 
ATOM     25  O   UNL     1      -2.622  -3.574  -3.769  0.00  0.00    -0.491 OA
ENDBRANCH  18  25
BRANCH  23  26
ATOM     26  O   UNL     1      -1.699  -3.293  -1.189  0.00  0.00    -0.491 OA
ATOM     27  C   UNL     1      -2.768  -3.829  -0.407  0.00  0.00    +0.277 C 
ENDBRANCH  23  26
ENDBRANCH   1  22
TORSDOF 3
