REMARK  Name = ZINC13973161
REMARK  3 active torsions:
REMARK  status: ('A' for Active; 'I' for Inactive)
REMARK    1  A    between atoms: C_6  and  C_11
REMARK    2  A    between atoms: C_11  and  C_12
REMARK    3  A    between atoms: C_17  and  C_20
REMARK                            x       y       z     vdW  Elec       q    Type
REMARK                         _______ _______ _______ _____ _____    ______ ____
ROOT
ATOM      1  C   UNL     1       1.050   7.942   1.453  0.00  0.00    +0.223 C 
ATOM      2  O   UNL     1       1.069   7.149   2.371  0.00  0.00    -0.275 OA
ATOM      3  N   UNL     1       1.034   9.266   1.706  0.00  0.00    -0.264 N 
ATOM      4  C   UNL     1       1.040   9.722   3.018  0.00  0.00    +0.165 A 
ATOM      5  N   UNL     1       1.028  10.962   3.470  0.00  0.00    -0.221 NA
ATOM      6  C   UNL     1       1.036  11.220   4.776  0.00  0.00    +0.115 A 
ATOM      7  C   UNL     1       1.059  10.177   5.663  0.00  0.00    +0.080 A 
ATOM      8  S   UNL     1       1.060   8.785   4.540  0.00  0.00    -0.060 S 
ATOM      9  H   UNL     1       1.019   9.900   0.972  0.00  0.00    +0.157 HD
ENDROOT
BRANCH   6  10
ATOM     10  C   UNL     1       1.021  12.615   5.262  0.00  0.00    +0.155 A 
ATOM     11  C   UNL     1       1.004  13.716   4.472  0.00  0.00    +0.060 A 
ATOM     12  C   UNL     1       0.992  14.866   5.378  0.00  0.00    +0.021 A 
ATOM     13  C   UNL     1       0.971  16.250   5.195  0.00  0.00    +0.011 A 
ATOM     14  C   UNL     1       0.969  17.078   6.283  0.00  0.00    +0.001 A 
ATOM     15  C   UNL     1       0.988  16.551   7.566  0.00  0.00    +0.004 A 
ATOM     16  C   UNL     1       1.009  15.187   7.767  0.00  0.00    +0.047 A 
ATOM     17  C   UNL     1       1.011  14.327   6.677  0.00  0.00    +0.136 A 
ATOM     18  O   UNL     1       1.028  12.983   6.559  0.00  0.00    -0.453 OA
ENDBRANCH   6  10
BRANCH   1  19
ATOM     19  C   UNL     1       1.044   7.447   0.030  0.00  0.00    +0.131 C 
BRANCH  19  25
ATOM     20  C   UNL     1      -0.013   1.076   0.008  0.00  0.00    +0.001 A 
ATOM     21  C   UNL     1      -1.235   1.746   0.017  0.00  0.00    +0.001 A 
ATOM     22  C   UNL     1      -1.288   3.106   0.030  0.00  0.00    +0.008 A 
ATOM     23  C   UNL     1      -0.096   3.849   0.023  0.00  0.00    -0.018 A 
ATOM     24  C   UNL     1      -0.111   5.254   0.030  0.00  0.00    +0.012 A 
ATOM     25  C   UNL     1       1.064   5.940   0.022  0.00  0.00    -0.038 A 
ATOM     26  C   UNL     1       2.286   5.270   0.008  0.00  0.00    +0.005 A 
ATOM     27  C   UNL     1       2.340   3.910  -0.000  0.00  0.00    +0.009 A 
ATOM     28  C   UNL     1       1.147   3.167   0.008  0.00  0.00    -0.018 A 
ATOM     29  C   UNL     1       1.163   1.762   0.000  0.00  0.00    +0.008 A 
ENDBRANCH  19  25
ENDBRANCH   1  19
TORSDOF 3
