REMARK  Name = ZINC05437471
REMARK  17 active torsions:
REMARK  status: ('A' for Active; 'I' for Inactive)
REMARK    1  A    between atoms: C_1  and  C_2
REMARK    2  A    between atoms: C_2  and  C_3
REMARK    3  A    between atoms: C_2  and  C_4
REMARK    4  A    between atoms: C_4  and  C_5
REMARK    5  A    between atoms: C_5  and  C_7
REMARK    6  A    between atoms: C_5  and  N_11
REMARK    7  A    between atoms: C_7  and  O_9
REMARK    8  A    between atoms: O_9  and  C_10
REMARK    9  A    between atoms: C_12  and  C_14
REMARK   10  A    between atoms: C_14  and  C_16
REMARK   11  A    between atoms: C_14  and  N_27
REMARK   12  A    between atoms: C_16  and  C_17
REMARK   13  A    between atoms: C_28  and  O_30
REMARK   14  A    between atoms: O_30  and  C_31
REMARK   15  A    between atoms: C_31  and  C_32
REMARK   16  A    between atoms: C_31  and  C_33
REMARK   17  A    between atoms: C_31  and  C_34
REMARK                            x       y       z     vdW  Elec       q    Type
REMARK                         _______ _______ _______ _____ _____    ______ ____
ROOT
ATOM      1  C   UNL     1       4.175   0.620   1.402  0.00  0.00    +0.166 C 
ENDROOT
BRANCH   1   3
ATOM      2  N   UNL     1       6.192  -0.810   1.324  0.00  0.00    -0.301 N 
ATOM      3  C   UNL     1       5.670   0.430   1.398  0.00  0.00    +0.234 C 
ATOM      4  O   UNL     1       6.404   1.394   1.462  0.00  0.00    -0.274 OA
ATOM      5  H   UNL     1       5.606  -1.581   1.272  0.00  0.00    +0.150 HD
BRANCH   2   6
ATOM      6  C   UNL     1       7.646  -0.994   1.321  0.00  0.00    +0.182 C 
BRANCH   6   7
ATOM      7  C   UNL     1       8.152  -1.023   2.740  0.00  0.00    +0.327 C 
ATOM      8  O   UNL     1       7.378  -0.902   3.660  0.00  0.00    -0.249 OA
BRANCH   7   9
ATOM      9  O   UNL     1       9.462  -1.183   2.982  0.00  0.00    -0.467 OA
ATOM     10  C   UNL     1       9.878  -1.201   4.373  0.00  0.00    +0.280 C 
ENDBRANCH   7   9
ENDBRANCH   6   7
BRANCH   6  11
ATOM     11  C   UNL     1       7.991  -2.315   0.629  0.00  0.00    +0.036 C 
BRANCH  11  13
ATOM     12  C   UNL     1       8.437  -1.179  -1.551  0.00  0.00    +0.007 C 
ATOM     13  C   UNL     1       7.589  -2.239  -0.845  0.00  0.00    -0.015 C 
ATOM     14  C   UNL     1       7.818  -3.599  -1.507  0.00  0.00    +0.007 C 
ENDBRANCH  11  13
ENDBRANCH   6  11
ENDBRANCH   2   6
ENDBRANCH   1   3
BRANCH   1  15
ATOM     15  N   UNL     1       3.851   1.937   1.955  0.00  0.00    -0.269 N 
ATOM     16  C   UNL     1       4.319   3.052   1.360  0.00  0.00    +0.401 C 
ATOM     17  O   UNL     1       5.010   2.965   0.364  0.00  0.00    -0.226 OA
ATOM     18  H   UNL     1       3.300   2.006   2.750  0.00  0.00    +0.153 HD
BRANCH  16  19
ATOM     19  O   UNL     1       4.022   4.262   1.869  0.00  0.00    -0.445 OA
BRANCH  19  20
ATOM     20  C   UNL     1       4.560   5.419   1.176  0.00  0.00    +0.107 C 
ATOM     21  C   UNL     1       4.041   5.439  -0.263  0.00  0.00    +0.055 C 
ATOM     22  C   UNL     1       4.119   6.695   1.895  0.00  0.00    +0.055 C 
ATOM     23  C   UNL     1       6.088   5.342   1.166  0.00  0.00    +0.055 C 
ENDBRANCH  19  20
ENDBRANCH  16  19
ENDBRANCH   1  15
BRANCH   1  24
ATOM     24  C   UNL     1       3.646   0.524  -0.031  0.00  0.00    +0.069 C 
BRANCH  24  25
ATOM     25  C   UNL     1       2.140   0.591  -0.015  0.00  0.00    -0.020 A 
ATOM     26  C   UNL     1       1.295  -0.452  -0.013  0.00  0.00    +0.087 A 
ATOM     27  N   UNL     1       0.002  -0.004   0.002  0.00  0.00    -0.360 N 
ATOM     28  H   UNL     1      -0.784  -0.572   0.006  0.00  0.00    +0.165 HD
ATOM     29  C   UNL     1      -0.017   1.373   0.010  0.00  0.00    +0.047 A 
ATOM     30  C   UNL     1       1.322   1.806  -0.001  0.00  0.00    +0.003 A 
ATOM     31  C   UNL     1       1.612   3.171   0.004  0.00  0.00    +0.010 A 
ATOM     32  C   UNL     1       0.593   4.082   0.019  0.00  0.00    +0.001 A 
ATOM     33  C   UNL     1      -0.729   3.659   0.029  0.00  0.00    +0.002 A 
ATOM     34  C   UNL     1      -1.038   2.317   0.029  0.00  0.00    +0.026 A 
ENDBRANCH  24  25
ENDBRANCH   1  24
TORSDOF 11
