REMARK  Name = ZINC57313963
REMARK  5 active torsions:
REMARK  status: ('A' for Active; 'I' for Inactive)
REMARK    1  A    between atoms: C_4  and  C_7
REMARK    2  A    between atoms: C_10  and  C_12
REMARK    3  A    between atoms: C_13  and  C_14
REMARK    4  A    between atoms: N_16  and  C_17
REMARK    5  A    between atoms: C_17  and  N_19
REMARK                            x       y       z     vdW  Elec       q    Type
REMARK                         _______ _______ _______ _____ _____    ______ ____
ROOT
ATOM      1  C   UNL     1       9.144   0.626  -0.059  0.00  0.00    +0.242 C 
ATOM      2  O   UNL     1       9.906  -0.324  -0.076  0.00  0.00    -0.270 OA
ATOM      3  N   UNL     1       9.633   1.882  -0.054  0.00  0.00    -0.264 N 
ATOM      4  H   UNL     1       9.026   2.639  -0.041  0.00  0.00    +0.157 HD
ENDROOT
BRANCH   1   6
ATOM      5  C   UNL     1       7.255  -0.855  -0.051  0.00  0.00    +0.051 C 
ATOM      6  C   UNL     1       7.748   0.412  -0.046  0.00  0.00    +0.071 C 
BRANCH   5  10
ATOM      7  C   UNL     1       3.694  -0.682  -0.010  0.00  0.00    +0.136 A 
ATOM      8  C   UNL     1       3.853  -2.049  -0.023  0.00  0.00    +0.050 A 
ATOM      9  C   UNL     1       5.227  -2.300  -0.041  0.00  0.00    +0.050 A 
ATOM     10  C   UNL     1       5.858  -1.069  -0.037  0.00  0.00    +0.129 A 
ATOM     11  O   UNL     1       4.910  -0.109  -0.023  0.00  0.00    -0.455 OA
BRANCH   7  15
ATOM     12  C   UNL     1      -0.017   1.381   0.047  0.00  0.00    +0.000 A 
ATOM     13  C   UNL     1       1.168   2.096   0.035  0.00  0.00    +0.001 A 
ATOM     14  C   UNL     1       2.377   1.432   0.017  0.00  0.00    +0.011 A 
ATOM     15  C   UNL     1       2.404   0.036   0.010  0.00  0.00    +0.017 A 
ATOM     16  C   UNL     1       1.204  -0.679   0.022  0.00  0.00    +0.011 A 
ATOM     17  C   UNL     1       0.002  -0.002   0.040  0.00  0.00    +0.001 A 
ENDBRANCH   7  15
ENDBRANCH   5  10
ENDBRANCH   1   6
BRANCH   3  18
ATOM     18  C   UNL     1      10.965   2.087  -0.067  0.00  0.00    +0.142 C 
ATOM     19  S   UNL     1      12.036   0.752  -0.091  0.00  0.00    -0.018 S 
BRANCH  18  20
ATOM     20  N   UNL     1      11.454   3.343  -0.062  0.00  0.00    -0.282 N 
ATOM     21  C   UNL     1      12.828   3.556   0.034  0.00  0.00    +0.124 A 
ATOM     22  C   UNL     1      13.318   4.852   0.147  0.00  0.00    +0.045 A 
ATOM     23  C   UNL     1      14.684   5.049   0.242  0.00  0.00    +0.019 A 
ATOM     24  C   UNL     1      15.517   3.938   0.221  0.00  0.00    +0.032 A 
ATOM     25  C   UNL     1      14.961   2.679   0.107  0.00  0.00    +0.127 A 
ATOM     26  N   UNL     1      13.653   2.521   0.023  0.00  0.00    -0.239 NA
ATOM     27  I   UNL     1      17.594   4.169   0.361  0.00  0.00    -0.042 I 
ATOM     28  H   UNL     1      10.849   4.099  -0.125  0.00  0.00    +0.155 HD
ENDBRANCH  18  20
ENDBRANCH   3  18
TORSDOF 5
