REMARK  Name = ZINC51733666
REMARK  8 active torsions:
REMARK  status: ('A' for Active; 'I' for Inactive)
REMARK    1  A    between atoms: C_1  and  C_2
REMARK    2  A    between atoms: C_4  and  C_9
REMARK    3  A    between atoms: C_5  and  C_8
REMARK    4  A    between atoms: N_6  and  C_7
REMARK    5  A    between atoms: C_9  and  C_11
REMARK    6  A    between atoms: C_11  and  N_12
REMARK    7  A    between atoms: C_15  and  C_21
REMARK    8  A    between atoms: C_18  and  C_20
REMARK                            x       y       z     vdW  Elec       q    Type
REMARK                         _______ _______ _______ _____ _____    ______ ____
ROOT
ATOM      1  C   UNL     1       0.043  -3.379  -1.448  0.00  0.00    +0.149 C 
ATOM      2  O   UNL     1       0.060  -4.471  -0.920  0.00  0.00    -0.294 OA
ENDROOT
BRANCH   1   6
ATOM      3  C   UNL     1      -0.018   1.503   0.010  0.00  0.00    +0.063 C 
ATOM      4  C   UNL     1       0.002  -0.004   0.002  0.00  0.00    +0.016 A 
ATOM      5  C   UNL     1       0.008  -0.777  -1.097  0.00  0.00    +0.034 A 
ATOM      6  C   UNL     1       0.030  -2.167  -0.625  0.00  0.00    +0.036 A 
ATOM      7  C   UNL     1       0.035  -2.098   0.755  0.00  0.00    +0.026 A 
ATOM      8  N   UNL     1       0.023  -0.801   1.110  0.00  0.00    -0.351 N 
ATOM      9  C   UNL     1       0.029  -0.312   2.491  0.00  0.00    +0.149 C 
ATOM     10  C   UNL     1       0.056  -3.273   1.700  0.00  0.00    +0.064 C 
ENDBRANCH   1   6
BRANCH   1  11
ATOM     11  C   UNL     1       0.035  -3.269  -2.951  0.00  0.00    +0.003 C 
BRANCH  11  12
ATOM     12  N   UNL     1       0.052  -4.614  -3.541  0.00  0.00    +0.386 N 
ATOM     13  C   UNL     1      -1.188  -5.316  -3.188  0.00  0.00    -0.078 C 
ATOM     14  C   UNL     1      -1.141  -6.746  -3.731  0.00  0.00    -0.015 C 
ATOM     15  C   UNL     1      -0.993  -6.703  -5.255  0.00  0.00    -0.017 C 
ATOM     16  C   UNL     1       0.264  -5.905  -5.613  0.00  0.00    -0.012 C 
ATOM     17  C   UNL     1       0.165  -4.506  -5.000  0.00  0.00    -0.071 C 
ATOM     18  C   UNL     1       1.418  -3.704  -5.356  0.00  0.00    -0.013 C 
ATOM     19  C   UNL     1      -0.868  -8.128  -5.797  0.00  0.00    +0.007 C 
ATOM     20  H   UNL     1       0.841  -5.129  -3.180  0.00  0.00    -0.081 HD
ENDBRANCH  11  12
ENDBRANCH   1  11
TORSDOF 3
