REMARK  Name = ZINC40612285
REMARK  4 active torsions:
REMARK  status: ('A' for Active; 'I' for Inactive)
REMARK    1  A    between atoms: C_1  and  C_2
REMARK    2  A    between atoms: C_10  and  N_23
REMARK    3  A    between atoms: C_11  and  N_15
REMARK    4  A    between atoms: N_15  and  C_16
REMARK                            x       y       z     vdW  Elec       q    Type
REMARK                         _______ _______ _______ _____ _____    ______ ____
ROOT
ATOM      1  C   UNL     1      -0.724   1.021   2.456  0.00  0.00    +0.009 C 
ATOM      2  C   UNL     1       0.002   0.200   1.388  0.00  0.00    +0.003 C 
ATOM      3  C   UNL     1      -0.792   0.248   0.081  0.00  0.00    +0.006 C 
ATOM      4  C   UNL     1      -0.050  -0.545  -0.997  0.00  0.00    +0.019 C 
ATOM      5  C   UNL     1       0.070  -2.008  -0.558  0.00  0.00    +0.106 C 
ATOM      6  N   UNL     1       0.703  -2.053   0.767  0.00  0.00    -0.313 N 
ATOM      7  C   UNL     1       0.123  -1.254   1.855  0.00  0.00    +0.109 C 
ATOM      8  C   UNL     1       1.826  -2.835   0.987  0.00  0.00    +0.157 A 
ATOM      9  C   UNL     1       1.696  -4.162   1.389  0.00  0.00    +0.206 A 
ATOM     10  C   UNL     1       2.854  -4.904   1.596  0.00  0.00    +0.159 A 
ATOM     11  N   UNL     1       4.037  -4.324   1.404  0.00  0.00    -0.218 NA
ATOM     12  C   UNL     1       4.119  -3.065   1.024  0.00  0.00    +0.225 A 
ATOM     13  N   UNL     1       3.046  -2.330   0.812  0.00  0.00    -0.218 NA
ENDROOT
BRANCH   9  14
ATOM     14  N   UNL     1       0.360  -4.766   1.591  0.00  0.00    +0.063 N 
ATOM     15  O   UNL     1      -0.202  -5.313   0.670  0.00  0.00    -0.126 OA
ATOM     16  O   UNL     1      -0.171  -4.712   2.676  0.00  0.00    -0.126 OA
ENDBRANCH   9  14
BRANCH  10  17
ATOM     17  N   UNL     1       2.777  -6.230   1.997  0.00  0.00    -0.297 N 
ATOM     18  H   UNL     1       1.914  -6.669   2.061  0.00  0.00    +0.154 HD
BRANCH  17  19
ATOM     19  C   UNL     1       3.944  -6.934   2.310  0.00  0.00    +0.032 A 
ATOM     20  C   UNL     1       4.024  -8.297   2.052  0.00  0.00    +0.024 A 
ATOM     21  C   UNL     1       5.178  -8.989   2.362  0.00  0.00    +0.016 A 
ATOM     22  C   UNL     1       6.253  -8.328   2.929  0.00  0.00    +0.013 A 
ATOM     23  C   UNL     1       6.175  -6.971   3.187  0.00  0.00    +0.016 A 
ATOM     24  C   UNL     1       5.026  -6.272   2.874  0.00  0.00    +0.024 A 
ATOM     25  I   UNL     1       8.001  -9.383   3.397  0.00  0.00    -0.044 I 
ENDBRANCH  17  19
ENDBRANCH  10  17
TORSDOF 3
