REMARK  Name = ZINC03655748
REMARK  8 active torsions:
REMARK  status: ('A' for Active; 'I' for Inactive)
REMARK    1  A    between atoms: C_1  and  C_2
REMARK    2  A    between atoms: C_7  and  C_8
REMARK    3  A    between atoms: C_14  and  C_26
REMARK    4  A    between atoms: C_21  and  C_25
REMARK    5  A    between atoms: C_22  and  C_24
REMARK    6  A    between atoms: C_29  and  C_32
REMARK    7  A    between atoms: C_32  and  C_33
REMARK    8  A    between atoms: C_32  and  C_34
REMARK                            x       y       z     vdW  Elec       q    Type
REMARK                         _______ _______ _______ _____ _____    ______ ____
ROOT
ATOM      1  C   UNL     1      -3.590  -0.489  11.162  0.00  0.00    +0.044 C 
ATOM      2  C   UNL     1      -2.478  -1.094  10.345  0.00  0.00    -0.047 A 
ATOM      3  C   UNL     1      -1.780  -0.312   9.450  0.00  0.00    +0.019 A 
ATOM      4  C   UNL     1      -0.753  -0.879   8.698  0.00  0.00    +0.065 A 
ATOM      5  C   UNL     1      -0.427  -2.239   8.849  0.00  0.00    +0.140 A 
ATOM      6  C   UNL     1      -1.145  -3.008   9.758  0.00  0.00    +0.050 A 
ATOM      7  C   UNL     1      -2.159  -2.436  10.496  0.00  0.00    -0.044 A 
ATOM      8  C   UNL     1      -2.931  -3.278  11.479  0.00  0.00    +0.044 C 
ATOM      9  O   UNL     1       0.566  -2.786   8.124  0.00  0.00    -0.450 OA
ATOM     10  C   UNL     1       1.302  -2.101   7.227  0.00  0.00    +0.199 A 
ATOM     11  C   UNL     1       1.080  -0.781   6.996  0.00  0.00    +0.072 A 
ATOM     12  C   UNL     1       0.022  -0.082   7.728  0.00  0.00    +0.199 A 
ATOM     13  O   UNL     1      -0.205   1.101   7.546  0.00  0.00    -0.287 OA
ATOM     14  C   UNL     1       2.066  -0.335   5.948  0.00  0.00    +0.151 C 
ATOM     15  N   UNL     1       2.864  -1.520   5.611  0.00  0.00    -0.232 N 
ATOM     16  C   UNL     1       2.417  -2.546   6.356  0.00  0.00    +0.289 C 
ATOM     17  O   UNL     1       2.863  -3.676   6.322  0.00  0.00    -0.266 OA
ATOM     18  C   UNL     1       3.897  -1.573   4.686  0.00  0.00    +0.169 A 
ATOM     19  N   UNL     1       4.377  -0.609   3.924  0.00  0.00    -0.229 NA
ATOM     20  C   UNL     1       5.376  -0.829   3.093  0.00  0.00    +0.050 A 
ATOM     21  C   UNL     1       5.899  -2.078   3.027  0.00  0.00    +0.011 A 
ATOM     22  S   UNL     1       4.886  -2.926   4.230  0.00  0.00    -0.057 S 
ATOM     23  C   UNL     1       7.024  -2.606   2.175  0.00  0.00    +0.053 C 
ATOM     24  C   UNL     1       5.921   0.281   2.231  0.00  0.00    +0.066 C 
ENDROOT
BRANCH  14  25
ATOM     25  C   UNL     1       1.337   0.164   4.728  0.00  0.00    -0.022 A 
ATOM     26  C   UNL     1       1.190   1.523   4.518  0.00  0.00    +0.006 A 
ATOM     27  C   UNL     1       0.522   1.980   3.397  0.00  0.00    +0.004 A 
ATOM     28  C   UNL     1       0.000   1.080   2.488  0.00  0.00    -0.045 A 
ATOM     29  C   UNL     1       0.142  -0.278   2.701  0.00  0.00    +0.004 A 
ATOM     30  C   UNL     1       0.815  -0.736   3.818  0.00  0.00    +0.006 A 
BRANCH  28  31
ATOM     31  C   UNL     1      -0.729   1.579   1.267  0.00  0.00    +0.013 C 
ATOM     32  C   UNL     1      -0.013   1.086   0.008  0.00  0.00    +0.012 C 
ATOM     33  C   UNL     1      -2.164   1.050   1.278  0.00  0.00    +0.012 C 
ENDBRANCH  28  31
ENDBRANCH  14  25
TORSDOF 2
