REMARK  Name = ZINC24510066
REMARK  4 active torsions:
REMARK  status: ('A' for Active; 'I' for Inactive)
REMARK    1  A    between atoms: C_3  and  N_8
REMARK    2  A    between atoms: C_12  and  S_14
REMARK    3  A    between atoms: S_14  and  C_15
REMARK    4  A    between atoms: C_15  and  C_16
REMARK                            x       y       z     vdW  Elec       q    Type
REMARK                         _______ _______ _______ _____ _____    ______ ____
ROOT
ATOM      1  N   UNL     1       3.612   1.867  -0.022  0.00  0.00    -0.292 N 
ATOM      2  C   UNL     1       2.325   1.377   0.172  0.00  0.00    +0.187 A 
ATOM      3  N   UNL     1       1.177   2.026   0.180  0.00  0.00    -0.125 NA
ATOM      4  N   UNL     1       0.004   1.339   0.394  0.00  0.00    -0.133 NA
ATOM      5  C   UNL     1       0.034   0.034   0.589  0.00  0.00    +0.160 A 
ATOM      6  S   UNL     1       1.786  -0.298   0.476  0.00  0.00    -0.024 S 
ATOM      7  H   UNL     1       4.460   1.170  -0.097  0.00  0.00    +0.154 HD
ENDROOT
BRANCH   1  10
ATOM      8  C   UNL     1       3.163   5.492   0.382  0.00  0.00    +0.005 A 
ATOM      9  C   UNL     1       2.948   4.132   0.482  0.00  0.00    +0.023 A 
ATOM     10  C   UNL     1       3.828   3.243  -0.122  0.00  0.00    +0.036 A 
ATOM     11  C   UNL     1       4.927   3.726  -0.822  0.00  0.00    +0.061 A 
ATOM     12  C   UNL     1       5.135   5.090  -0.923  0.00  0.00    +0.125 A 
ATOM     13  C   UNL     1       4.254   5.972  -0.319  0.00  0.00    +0.038 A 
ATOM     14  F   UNL     1       6.200   5.561  -1.608  0.00  0.00    -0.205 F 
ENDBRANCH   1  10
BRANCH   5  15
ATOM     15  S   UNL     1      -1.298  -1.082   0.882  0.00  0.00    -0.092 S 
BRANCH  15  16
ATOM     16  C   UNL     1      -2.770  -0.023   0.859  0.00  0.00    +0.114 C 
BRANCH  16  17
ATOM     17  C   UNL     1      -3.997  -0.864   1.101  0.00  0.00    +0.001 A 
ATOM     18  C   UNL     1      -4.450  -1.071   2.390  0.00  0.00    +0.007 A 
ATOM     19  C   UNL     1      -5.575  -1.843   2.614  0.00  0.00    +0.003 A 
ATOM     20  C   UNL     1      -6.250  -2.408   1.548  0.00  0.00    +0.041 A 
ATOM     21  C   UNL     1      -5.800  -2.202   0.256  0.00  0.00    +0.159 A 
ATOM     22  C   UNL     1      -4.674  -1.424   0.031  0.00  0.00    +0.162 A 
ATOM     23  F   UNL     1      -4.235  -1.217  -1.230  0.00  0.00    -0.202 F 
ATOM     24  F   UNL     1      -6.459  -2.754  -0.786  0.00  0.00    -0.202 F 
ENDBRANCH  16  17
ENDBRANCH  15  16
ENDBRANCH   5  15
TORSDOF 4
