REMARK  Name = ZINC21257426
REMARK  13 active torsions:
REMARK  status: ('A' for Active; 'I' for Inactive)
REMARK    1  A    between atoms: C_1  and  C_2
REMARK    2  A    between atoms: C_2  and  C_3
REMARK    3  A    between atoms: C_3  and  C_4
REMARK    4  A    between atoms: C_4  and  O_5
REMARK    5  A    between atoms: O_5  and  C_6
REMARK    6  A    between atoms: C_11  and  C_12
REMARK    7  A    between atoms: C_17  and  C_22
REMARK    8  A    between atoms: C_24  and  O_32
REMARK    9  A    between atoms: C_25  and  O_30
REMARK   10  A    between atoms: C_26  and  O_28
REMARK   11  A    between atoms: O_28  and  C_29
REMARK   12  A    between atoms: O_30  and  C_31
REMARK   13  A    between atoms: O_32  and  C_33
REMARK                            x       y       z     vdW  Elec       q    Type
REMARK                         _______ _______ _______ _____ _____    ______ ____
ROOT
ATOM      1  C   UNL     1       2.449   3.948  -0.001  0.00  0.00    +0.139 C 
ATOM      2  C   UNL     1       3.004   3.939  -1.406  0.00  0.00    +0.037 C 
ATOM      3  C   UNL     1       3.065   4.987  -2.240  0.00  0.00    +0.017 C 
ATOM      4  C   UNL     1       3.618   4.823  -3.646  0.00  0.00    +0.059 C 
ATOM      5  C   UNL     1       4.722   3.767  -3.650  0.00  0.00    +0.032 C 
ATOM      6  C   UNL     1       4.108   2.448  -3.164  0.00  0.00    +0.088 C 
ATOM      7  C   UNL     1       3.496   2.674  -1.814  0.00  0.00    +0.163 C 
ATOM      8  O   UNL     1       3.419   1.738  -1.043  0.00  0.00    -0.292 OA
ATOM      9  N   UNL     1       2.645   6.242  -1.939  0.00  0.00    -0.316 N 
ATOM     10  C   UNL     1       1.429   6.548  -1.337  0.00  0.00    +0.052 A 
ATOM     11  C   UNL     1       0.469   7.322  -1.966  0.00  0.00    +0.025 A 
ATOM     12  C   UNL     1      -0.674   7.681  -1.271  0.00  0.00    +0.002 A 
ATOM     13  C   UNL     1      -0.854   7.270   0.037  0.00  0.00    +0.002 A 
ATOM     14  C   UNL     1       0.096   6.479   0.659  0.00  0.00    +0.025 A 
ATOM     15  C   UNL     1       1.233   6.103  -0.039  0.00  0.00    +0.049 A 
ATOM     16  N   UNL     1       2.195   5.271   0.530  0.00  0.00    -0.331 N 
ATOM     17  H   UNL     1       3.284   7.107  -2.172  0.00  0.00    +0.152 HD
ATOM     18  H   UNL     1       2.766   5.634   1.397  0.00  0.00    +0.147 HD
ENDROOT
BRANCH   1  24
ATOM     19  C   UNL     1       0.673   2.644   1.195  0.00  0.00    +0.126 A 
ATOM     20  C   UNL     1      -0.517   1.931   1.200  0.00  0.00    +0.046 A 
ATOM     21  C   UNL     1      -1.214   1.745   0.021  0.00  0.00    +0.004 A 
ATOM     22  C   UNL     1      -0.732   2.277  -1.160  0.00  0.00    +0.001 A 
ATOM     23  C   UNL     1       0.454   2.989  -1.167  0.00  0.00    +0.009 A 
ATOM     24  C   UNL     1       1.157   3.173   0.008  0.00  0.00    +0.019 A 
BRANCH  19  25
ATOM     25  O   UNL     1       1.363   2.824   2.352  0.00  0.00    -0.492 OA
BRANCH  25  26
ATOM     26  C   UNL     1       0.805   2.252   3.536  0.00  0.00    +0.229 C 
BRANCH  26  27
ATOM     27  C   UNL     1       1.715   2.556   4.728  0.00  0.00    +0.041 C 
BRANCH  27  29
ATOM     28  C   UNL     1       2.027   2.247   7.187  0.00  0.00    +0.004 C 
ATOM     29  C   UNL     1       1.117   1.943   5.995  0.00  0.00    -0.000 C 
ENDBRANCH  27  29
ENDBRANCH  26  27
ENDBRANCH  25  26
ENDBRANCH  19  25
ENDBRANCH   1  24
BRANCH   5  30
ATOM     30  C   UNL     1       5.260   3.596  -5.047  0.00  0.00    -0.036 A 
ATOM     31  C   UNL     1       4.417   3.190  -6.065  0.00  0.00    +0.053 A 
ATOM     32  C   UNL     1       4.907   3.037  -7.354  0.00  0.00    +0.165 A 
ATOM     33  C   UNL     1       6.249   3.281  -7.618  0.00  0.00    +0.204 A 
ATOM     34  C   UNL     1       7.094   3.684  -6.591  0.00  0.00    +0.165 A 
ATOM     35  C   UNL     1       6.595   3.840  -5.306  0.00  0.00    +0.053 A 
BRANCH  34  36
ATOM     36  O   UNL     1       8.408   3.925  -6.845  0.00  0.00    -0.491 OA
ATOM     37  C   UNL     1       9.217   4.336  -5.741  0.00  0.00    +0.277 C 
ENDBRANCH  34  36
BRANCH  33  38
ATOM     38  O   UNL     1       6.735   3.128  -8.880  0.00  0.00    -0.488 OA
ATOM     39  C   UNL     1       7.239   1.837  -9.229  0.00  0.00    +0.277 C 
ENDBRANCH  33  38
BRANCH  32  40
ATOM     40  O   UNL     1       4.076   2.643  -8.356  0.00  0.00    -0.491 OA
ATOM     41  C   UNL     1       2.709   2.409  -8.011  0.00  0.00    +0.277 C 
ENDBRANCH  32  40
ENDBRANCH   5  30
TORSDOF 9
