REMARK  Name = ZINC30785435
REMARK  7 active torsions:
REMARK  status: ('A' for Active; 'I' for Inactive)
REMARK    1  A    between atoms: C_1  and  C_2
REMARK    2  A    between atoms: N_4  and  C_5
REMARK    3  A    between atoms: C_5  and  C_7
REMARK    4  A    between atoms: C_5  and  C_18
REMARK    5  A    between atoms: C_7  and  C_8
REMARK    6  A    between atoms: C_18  and  N_20
REMARK    7  A    between atoms: N_22  and  C_30
REMARK                            x       y       z     vdW  Elec       q    Type
REMARK                         _______ _______ _______ _____ _____    ______ ____
ROOT
ATOM      1  C   UNL     1      -1.136  -2.159   0.001  0.00  0.00    +0.165 C 
ENDROOT
BRANCH   1   5
ATOM      2  C   UNL     1      -0.018   1.503   0.010  0.00  0.00    +0.109 C 
ATOM      3  C   UNL     1       0.002  -0.004   0.002  0.00  0.00    +0.211 C 
ATOM      4  O   UNL     1       1.060  -0.596  -0.011  0.00  0.00    -0.276 OA
ATOM      5  N   UNL     1      -1.156  -0.694   0.009  0.00  0.00    -0.304 N 
ATOM      6  H   UNL     1      -2.002  -0.220   0.020  0.00  0.00    +0.149 HD
ENDBRANCH   1   5
BRANCH   1   7
ATOM      7  C   UNL     1      -0.431  -2.645  -1.239  0.00  0.00    +0.259 C 
ATOM      8  O   UNL     1       0.317  -1.901  -1.844  0.00  0.00    -0.272 OA
BRANCH   7   9
ATOM      9  N   UNL     1      -0.626  -3.886  -1.671  0.00  0.00    -0.155 NA
ATOM     10  C   UNL     1      -0.003  -4.315  -2.766  0.00  0.00    +0.166 A 
ATOM     11  N   UNL     1      -0.089  -5.539  -3.347  0.00  0.00    -0.324 N 
ATOM     12  C   UNL     1       0.637  -5.809  -4.492  0.00  0.00    +0.057 A 
ATOM     13  C   UNL     1       0.695  -6.989  -5.245  0.00  0.00    +0.027 A 
ATOM     14  C   UNL     1       1.486  -7.065  -6.368  0.00  0.00    +0.002 A 
ATOM     15  C   UNL     1       2.244  -5.984  -6.785  0.00  0.00    +0.001 A 
ATOM     16  C   UNL     1       2.204  -4.807  -6.059  0.00  0.00    +0.017 A 
ATOM     17  C   UNL     1       1.414  -4.730  -4.937  0.00  0.00    +0.039 A 
ATOM     18  S   UNL     1       1.063  -3.462  -3.747  0.00  0.00    -0.052 S 
ATOM     19  C   UNL     1      -0.948  -6.571  -2.761  0.00  0.00    +0.151 C 
ENDBRANCH   7   9
ENDBRANCH   1   7
BRANCH   1  20
ATOM     20  C   UNL     1      -0.396  -2.665   1.241  0.00  0.00    +0.069 C 
BRANCH  20  21
ATOM     21  C   UNL     1      -1.168  -2.284   2.478  0.00  0.00    -0.020 A 
ATOM     22  C   UNL     1      -0.972  -1.195   3.237  0.00  0.00    +0.087 A 
ATOM     23  N   UNL     1      -1.862  -1.183   4.276  0.00  0.00    -0.360 N 
ATOM     24  H   UNL     1      -1.914  -0.496   4.958  0.00  0.00    +0.165 HD
ATOM     25  C   UNL     1      -2.674  -2.293   4.209  0.00  0.00    +0.047 A 
ATOM     26  C   UNL     1      -2.279  -3.028   3.076  0.00  0.00    +0.003 A 
ATOM     27  C   UNL     1      -2.938  -4.215   2.750  0.00  0.00    +0.010 A 
ATOM     28  C   UNL     1      -3.968  -4.655   3.533  0.00  0.00    +0.001 A 
ATOM     29  C   UNL     1      -4.364  -3.932   4.650  0.00  0.00    +0.002 A 
ATOM     30  C   UNL     1      -3.721  -2.763   4.994  0.00  0.00    +0.026 A 
ENDBRANCH  20  21
ENDBRANCH   1  20
TORSDOF 5
