REMARK  Name = ZINC06130868
REMARK  7 active torsions:
REMARK  status: ('A' for Active; 'I' for Inactive)
REMARK    1  A    between atoms: C_9  and  O_31
REMARK    2  A    between atoms: C_10  and  C_11
REMARK    3  A    between atoms: N_12  and  N_13
REMARK    4  A    between atoms: C_14  and  C_16
REMARK    5  A    between atoms: C_21  and  N_22
REMARK    6  A    between atoms: N_22  and  S_23
REMARK    7  A    between atoms: S_23  and  C_26
REMARK                            x       y       z     vdW  Elec       q    Type
REMARK                         _______ _______ _______ _____ _____    ______ ____
ROOT
ATOM      1  N   UNL     1      -2.224   8.085   0.356  0.00  0.00    -0.203 N 
ATOM      2  C   UNL     1      -2.328   9.426   0.269  0.00  0.00    +0.265 C 
ATOM      3  O   UNL     1      -1.330  10.104   0.114  0.00  0.00    -0.268 OA
ATOM      4  H   UNL     1      -3.020   7.544   0.480  0.00  0.00    +0.178 HD
ENDROOT
BRANCH   2   5
ATOM      5  C   UNL     1      -3.650  10.071   0.362  0.00  0.00    +0.061 A 
ATOM      6  C   UNL     1      -4.800   9.295   0.535  0.00  0.00    +0.015 A 
ATOM      7  C   UNL     1      -6.032   9.905   0.625  0.00  0.00    +0.001 A 
ATOM      8  C   UNL     1      -6.140  11.284   0.536  0.00  0.00    +0.002 A 
ATOM      9  C   UNL     1      -5.015  12.062   0.360  0.00  0.00    +0.025 A 
ATOM     10  C   UNL     1      -3.763  11.467   0.272  0.00  0.00    +0.060 A 
BRANCH  10  11
ATOM     11  N   UNL     1      -2.628  12.249   0.095  0.00  0.00    -0.215 N 
ATOM     12  H   UNL     1      -1.897  11.925  -0.453  0.00  0.00    +0.174 HD
BRANCH  11  13
ATOM     13  S   UNL     1      -2.526  13.735   0.820  0.00  0.00    +0.079 S 
ATOM     14  O   UNL     1      -1.215  14.220   0.567  0.00  0.00    -0.149 OA
ATOM     15  O   UNL     1      -3.691  14.454   0.439  0.00  0.00    -0.149 OA
BRANCH  13  16
ATOM     16  C   UNL     1      -2.640  13.475   2.559  0.00  0.00    +0.146 A 
ATOM     17  C   UNL     1      -1.649  13.250   3.455  0.00  0.00    +0.036 A 
ATOM     18  C   UNL     1      -1.977  13.073   4.787  0.00  0.00    +0.010 A 
ATOM     19  C   UNL     1      -3.280  13.129   5.156  0.00  0.00    +0.047 A 
ATOM     20  S   UNL     1      -4.092  13.447   3.598  0.00  0.00    -0.077 S 
ENDBRANCH  13  16
ENDBRANCH  11  13
ENDBRANCH  10  11
ENDBRANCH   2   5
BRANCH   1  22
ATOM     21  C   UNL     1      -0.868   6.179   0.352  0.00  0.00    +0.142 C 
ATOM     22  N   UNL     1      -0.968   7.472   0.268  0.00  0.00    -0.187 NA
BRANCH  21  32
ATOM     23  C   UNL     1       0.894   1.335   0.520  0.00  0.00    +0.001 A 
ATOM     24  C   UNL     1      -0.373   1.908   0.606  0.00  0.00    +0.001 A 
ATOM     25  C   UNL     1      -0.537   3.259   0.531  0.00  0.00    +0.009 A 
ATOM     26  C   UNL     1       0.581   4.083   0.352  0.00  0.00    -0.006 A 
ATOM     27  C   UNL     1       1.870   3.504   0.258  0.00  0.00    -0.017 A 
ATOM     28  C   UNL     1       2.002   2.107   0.346  0.00  0.00    +0.008 A 
ATOM     29  C   UNL     1       2.991   4.333   0.079  0.00  0.00    +0.012 A 
ATOM     30  C   UNL     1       2.852   5.683  -0.005  0.00  0.00    +0.046 A 
ATOM     31  C   UNL     1       1.605   6.299   0.081  0.00  0.00    +0.126 A 
ATOM     32  C   UNL     1       0.450   5.536   0.259  0.00  0.00    +0.044 A 
BRANCH  31  33
ATOM     33  O   UNL     1       1.512   7.651  -0.007  0.00  0.00    -0.506 OA
ATOM     34  H   UNL     1       1.579   8.106   0.843  0.00  0.00    +0.292 HD
ENDBRANCH  31  33
ENDBRANCH  21  32
ENDBRANCH   1  22
TORSDOF 7
