REMARK  Name = ZINC51129570
REMARK  4 active torsions:
REMARK  status: ('A' for Active; 'I' for Inactive)
REMARK    1  A    between atoms: C_1  and  C_2
REMARK    2  A    between atoms: C_5  and  N_8
REMARK    3  A    between atoms: C_17  and  C_18
REMARK    4  A    between atoms: C_17  and  O_24
REMARK                            x       y       z     vdW  Elec       q    Type
REMARK                         _______ _______ _______ _____ _____    ______ ____
ROOT
ATOM      1  N   UNL     1      -1.159  -2.358   2.415  0.00  0.00    -0.259 N 
ATOM      2  C   UNL     1      -1.179  -1.021   2.549  0.00  0.00    +0.250 C 
ATOM      3  O   UNL     1      -0.564  -0.243   1.846  0.00  0.00    -0.270 OA
ATOM      4  C   UNL     1      -2.053  -0.632   3.672  0.00  0.00    +0.045 A 
ATOM      5  C   UNL     1      -2.400   0.610   4.208  0.00  0.00    +0.013 A 
ATOM      6  C   UNL     1      -3.259   0.677   5.285  0.00  0.00    +0.001 A 
ATOM      7  C   UNL     1      -3.778  -0.481   5.838  0.00  0.00    +0.000 A 
ATOM      8  C   UNL     1      -3.439  -1.716   5.312  0.00  0.00    +0.009 A 
ATOM      9  C   UNL     1      -2.583  -1.794   4.238  0.00  0.00    +0.019 A 
ATOM     10  C   UNL     1      -2.028  -2.948   3.440  0.00  0.00    +0.189 C 
ENDROOT
BRANCH   1  15
ATOM     11  C   UNL     1       1.128   0.615  -0.193  0.00  0.00    +0.007 C 
ATOM     12  C   UNL     1       0.882  -0.884  -0.010  0.00  0.00    -0.014 C 
ATOM     13  C   UNL     1      -0.610  -1.180  -0.173  0.00  0.00    +0.005 C 
ATOM     14  C   UNL     1      -0.856  -2.679   0.010  0.00  0.00    +0.023 C 
ATOM     15  C   UNL     1      -0.401  -3.104   1.408  0.00  0.00    +0.080 C 
ATOM     16  C   UNL     1       1.091  -2.808   1.571  0.00  0.00    +0.023 C 
ATOM     17  C   UNL     1       1.337  -1.309   1.388  0.00  0.00    +0.005 C 
ENDBRANCH   1  15
BRANCH  10  18
ATOM     18  C   UNL     1      -3.148  -3.717   2.789  0.00  0.00    +0.007 A 
ATOM     19  C   UNL     1      -3.677  -3.285   1.587  0.00  0.00    +0.008 A 
ATOM     20  C   UNL     1      -4.704  -3.991   0.990  0.00  0.00    +0.000 A 
ATOM     21  C   UNL     1      -5.203  -5.130   1.595  0.00  0.00    +0.000 A 
ATOM     22  C   UNL     1      -4.674  -5.563   2.796  0.00  0.00    +0.000 A 
ATOM     23  C   UNL     1      -3.644  -4.859   3.391  0.00  0.00    +0.008 A 
ENDBRANCH  10  18
BRANCH  10  24
ATOM     24  O   UNL     1      -1.270  -3.809   4.291  0.00  0.00    -0.364 OA
ATOM     25  H   UNL     1      -1.789  -4.229   4.990  0.00  0.00    +0.213 HD
ENDBRANCH  10  24
TORSDOF 3
