REMARK  Name = ZINC45089323
REMARK  7 active torsions:
REMARK  status: ('A' for Active; 'I' for Inactive)
REMARK    1  A    between atoms: C_1  and  C_2
REMARK    2  A    between atoms: C_2  and  C_3
REMARK    3  A    between atoms: C_2  and  C_4
REMARK    4  A    between atoms: C_2  and  C_5
REMARK    5  A    between atoms: C_5  and  N_6
REMARK    6  A    between atoms: N_6  and  C_7
REMARK    7  A    between atoms: C_8  and  C_10
REMARK                            x       y       z     vdW  Elec       q    Type
REMARK                         _______ _______ _______ _____ _____    ______ ____
ROOT
ATOM      1  N   UNL     1       2.170   0.144  -1.283  0.00  0.00    -0.298 N 
ATOM      2  C   UNL     1       3.423  -0.363  -0.719  0.00  0.00    +0.132 C 
ATOM      3  C   UNL     1       2.186   1.208  -2.110  0.00  0.00    +0.282 C 
ATOM      4  O   UNL     1       1.139   1.687  -2.505  0.00  0.00    -0.267 OA
ENDROOT
BRANCH   3   5
ATOM      5  C   UNL     1       3.463   1.788  -2.534  0.00  0.00    +0.191 A 
ATOM      6  C   UNL     1       3.623   2.932  -3.263  0.00  0.00    +0.056 A 
ATOM      7  C   UNL     1       5.003   3.110  -3.438  0.00  0.00    +0.058 A 
ATOM      8  C   UNL     1       5.620   2.079  -2.816  0.00  0.00    +0.171 A 
ATOM      9  O   UNL     1       4.688   1.288  -2.268  0.00  0.00    -0.444 OA
ATOM     10 BR   UNL     1       7.489   1.805  -2.728  0.00  0.00    -0.008 Br
ENDBRANCH   3   5
BRANCH   1  11
ATOM     11  C   UNL     1       0.900  -0.505  -0.949  0.00  0.00    +0.114 C 
BRANCH  11  13
ATOM     12  C   UNL     1       0.062   1.636   0.028  0.00  0.00    +0.012 C 
ATOM     13  C   UNL     1       0.305   0.150   0.299  0.00  0.00    -0.022 C 
ATOM     14  C   UNL     1       1.280  -0.002   1.469  0.00  0.00    +0.012 C 
ATOM     15  C   UNL     1      -1.021  -0.528   0.648  0.00  0.00    +0.012 C 
ENDBRANCH  11  13
ENDBRANCH   1  11
TORSDOF 3
