REMARK  Name = ZINC39658716
REMARK  10 active torsions:
REMARK  status: ('A' for Active; 'I' for Inactive)
REMARK    1  A    between atoms: C_1  and  C_2
REMARK    2  A    between atoms: C_2  and  O_3
REMARK    3  A    between atoms: O_3  and  C_4
REMARK    4  A    between atoms: C_8  and  C_10
REMARK    5  A    between atoms: C_14  and  C_23
REMARK    6  A    between atoms: N_25  and  C_26
REMARK    7  A    between atoms: C_26  and  C_27
REMARK    8  A    between atoms: C_27  and  S_28
REMARK    9  A    between atoms: S_28  and  C_29
REMARK   10  A    between atoms: C_29  and  C_30
REMARK                            x       y       z     vdW  Elec       q    Type
REMARK                         _______ _______ _______ _____ _____    ______ ____
ROOT
ATOM      1  C   UNL     1       2.264  -4.303   3.734  0.00  0.00    +0.247 C 
ATOM      2  O   UNL     1       2.836  -3.572   4.518  0.00  0.00    -0.270 OA
ATOM      3  N   UNL     1       2.278  -5.638   3.923  0.00  0.00    -0.296 N 
ATOM      4  C   UNL     1       1.755  -6.689   3.020  0.00  0.00    +0.121 C 
ATOM      5  C   UNL     1       2.793  -7.830   3.107  0.00  0.00    +0.100 C 
ATOM      6  C   UNL     1       3.487  -7.627   4.463  0.00  0.00    -0.004 C 
ATOM      7  C   UNL     1       2.827  -6.385   5.080  0.00  0.00    +0.115 C 
ATOM      8  C   UNL     1       3.268  -8.843   5.358  0.00  0.00    -0.010 C 
ATOM      9  C   UNL     1       4.016  -8.641   6.678  0.00  0.00    -0.082 C 
ATOM     10  N   UNL     1       5.448  -8.459   6.409  0.00  0.00    +0.379 N 
ATOM     11  C   UNL     1       5.658  -7.236   5.626  0.00  0.00    -0.082 C 
ATOM     12  C   UNL     1       4.979  -7.378   4.261  0.00  0.00    -0.010 C 
ATOM     13  H   UNL     1       5.947  -8.388   7.283  0.00  0.00    -0.086 HD
ATOM     14  H   UNL     1       5.795  -9.252   5.891  0.00  0.00    -0.086 HD
ENDROOT
BRANCH   1  19
ATOM     15  C   UNL     1      -0.156  -3.889   0.886  0.00  0.00    +0.121 A 
ATOM     16  C   UNL     1       0.223  -2.648   0.392  0.00  0.00    +0.046 A 
ATOM     17  C   UNL     1       1.259  -1.950   0.983  0.00  0.00    +0.004 A 
ATOM     18  C   UNL     1       1.925  -2.482   2.068  0.00  0.00    +0.013 A 
ATOM     19  C   UNL     1       1.552  -3.729   2.572  0.00  0.00    +0.040 A 
ATOM     20  C   UNL     1       0.502  -4.430   1.978  0.00  0.00    +0.058 A 
BRANCH  15  21
ATOM     21  O   UNL     1      -1.175  -4.571   0.301  0.00  0.00    -0.492 OA
BRANCH  21  23
ATOM     22  C   UNL     1      -2.924  -4.864  -1.341  0.00  0.00    +0.048 C 
ATOM     23  C   UNL     1      -1.809  -3.954  -0.821  0.00  0.00    +0.225 C 
ENDBRANCH  21  23
ENDBRANCH  15  21
ENDBRANCH   1  19
BRANCH   5  24
ATOM     24  C   UNL     1       3.790  -7.720   1.982  0.00  0.00    +0.218 C 
ATOM     25  O   UNL     1       4.136  -6.628   1.584  0.00  0.00    -0.275 OA
ATOM     26  N   UNL     1       4.297  -8.834   1.419  0.00  0.00    -0.314 N 
ATOM     27  H   UNL     1       4.020  -9.708   1.738  0.00  0.00    +0.149 HD
BRANCH  26  28
ATOM     28  C   UNL     1       5.266  -8.727   0.326  0.00  0.00    +0.115 C 
BRANCH  28  29
ATOM     29  C   UNL     1       5.679 -10.128  -0.129  0.00  0.00    +0.088 C 
BRANCH  29  30
ATOM     30  S   UNL     1       6.880  -9.995  -1.483  0.00  0.00    -0.155 S 
BRANCH  30  31
ATOM     31  C   UNL     1       7.262 -11.718  -1.901  0.00  0.00    +0.104 C 
BRANCH  31  32
ATOM     32  C   UNL     1       8.262 -11.751  -3.028  0.00  0.00    -0.038 A 
ATOM     33  C   UNL     1       7.826 -11.767  -4.339  0.00  0.00    +0.004 A 
ATOM     34  C   UNL     1       8.743 -11.797  -5.373  0.00  0.00    +0.000 A 
ATOM     35  C   UNL     1      10.097 -11.811  -5.095  0.00  0.00    +0.000 A 
ATOM     36  C   UNL     1      10.534 -11.795  -3.784  0.00  0.00    +0.000 A 
ATOM     37  C   UNL     1       9.617 -11.760  -2.750  0.00  0.00    +0.004 A 
ENDBRANCH  31  32
ENDBRANCH  30  31
ENDBRANCH  29  30
ENDBRANCH  28  29
ENDBRANCH  26  28
ENDBRANCH   5  24
TORSDOF 9
