REMARK  Name = ZINC04909093
REMARK  7 active torsions:
REMARK  status: ('A' for Active; 'I' for Inactive)
REMARK    1  A    between atoms: C_1  and  C_2
REMARK    2  A    between atoms: C_4  and  C_14
REMARK    3  A    between atoms: N_6  and  C_13
REMARK    4  A    between atoms: C_17  and  C_20
REMARK    5  A    between atoms: C_20  and  C_21
REMARK    6  A    between atoms: C_20  and  C_22
REMARK    7  A    between atoms: C_20  and  C_23
REMARK                            x       y       z     vdW  Elec       q    Type
REMARK                         _______ _______ _______ _____ _____    ______ ____
ROOT
ATOM      1  C   UNL     1      -0.018   1.503   0.010  0.00  0.00    +0.067 C 
ATOM      2  C   UNL     1       0.002  -0.004   0.002  0.00  0.00    +0.064 C 
ATOM      3  C   UNL     1      -1.065  -0.759   0.003  0.00  0.00    +0.012 C 
ATOM      4  C   UNL     1      -2.515  -1.112  -0.230  0.00  0.00    +0.137 C 
ATOM      5  N   UNL     1      -2.429  -2.319  -1.089  0.00  0.00    -0.292 N 
ATOM      6  C   UNL     1      -1.228  -2.932  -0.898  0.00  0.00    +0.247 C 
ATOM      7  O   UNL     1      -0.819  -3.908  -1.490  0.00  0.00    -0.273 OA
ATOM      8  C   UNL     1      -0.503  -2.180   0.177  0.00  0.00    +0.243 C 
ATOM      9  N   UNL     1       0.925  -1.982   0.025  0.00  0.00    -0.170 NA
ATOM     10  N   UNL     1       1.131  -0.758  -0.013  0.00  0.00    -0.158 NA
ATOM     11  C   UNL     1      -3.477  -2.781  -2.002  0.00  0.00    +0.133 C 
ENDROOT
BRANCH   4  12
ATOM     12  C   UNL     1      -3.228   0.007  -0.944  0.00  0.00    -0.023 A 
ATOM     13  C   UNL     1      -3.100   0.144  -2.314  0.00  0.00    +0.006 A 
ATOM     14  C   UNL     1      -3.754   1.170  -2.970  0.00  0.00    +0.004 A 
ATOM     15  C   UNL     1      -4.537   2.058  -2.256  0.00  0.00    -0.042 A 
ATOM     16  C   UNL     1      -4.666   1.920  -0.887  0.00  0.00    +0.004 A 
ATOM     17  C   UNL     1      -4.015   0.892  -0.232  0.00  0.00    +0.006 A 
BRANCH  15  18
ATOM     18  C   UNL     1      -5.249   3.178  -2.971  0.00  0.00    -0.013 C 
ATOM     19  C   UNL     1      -6.208   2.591  -4.009  0.00  0.00    +0.015 C 
ATOM     20  C   UNL     1      -6.040   4.008  -1.958  0.00  0.00    +0.015 C 
ATOM     21  C   UNL     1      -4.223   4.070  -3.671  0.00  0.00    +0.015 C 
ENDBRANCH  15  18
ENDBRANCH   4  12
TORSDOF 2
