REMARK  Name = ZINC39404327
REMARK  15 active torsions:
REMARK  status: ('A' for Active; 'I' for Inactive)
REMARK    1  A    between atoms: C_1  and  C_2
REMARK    2  A    between atoms: C_2  and  O_3
REMARK    3  A    between atoms: O_3  and  C_4
REMARK    4  A    between atoms: C_7  and  C_10
REMARK    5  A    between atoms: N_11  and  N_12
REMARK    6  A    between atoms: C_15  and  S_19
REMARK    7  A    between atoms: S_19  and  C_20
REMARK    8  A    between atoms: C_20  and  C_21
REMARK    9  A    between atoms: N_23  and  C_24
REMARK   10  A    between atoms: C_26  and  C_39
REMARK   11  A    between atoms: C_28  and  C_38
REMARK   12  A    between atoms: C_30  and  C_33
REMARK   13  A    between atoms: C_33  and  O_35
REMARK   14  A    between atoms: O_35  and  C_36
REMARK   15  A    between atoms: C_36  and  C_37
REMARK                            x       y       z     vdW  Elec       q    Type
REMARK                         _______ _______ _______ _____ _____    ______ ____
ROOT
ATOM      1  N   UNL     1       1.123  -7.492  -2.817  0.00  0.00    -0.206 N 
ATOM      2  C   UNL     1       1.859  -7.998  -3.867  0.00  0.00    +0.231 C 
ATOM      3  N   UNL     1       2.079  -9.267  -4.070  0.00  0.00    -0.324 N 
ATOM      4  C   UNL     1       2.900  -9.324  -5.293  0.00  0.00    +0.283 C 
ATOM      5  N   UNL     1       3.059  -7.910  -5.672  0.00  0.00    -0.148 NA
ATOM      6  N   UNL     1       2.448  -7.237  -4.835  0.00  0.00    -0.116 NA
ATOM      7  H   UNL     1       0.732  -8.093  -2.165  0.00  0.00    +0.177 HD
ATOM      8  H   UNL     1       1.769 -10.012  -3.532  0.00  0.00    +0.165 HD
ENDROOT
BRANCH   1  10
ATOM      9  C   UNL     1       0.247  -5.631  -1.704  0.00  0.00    +0.138 C 
ATOM     10  N   UNL     1       0.941  -6.108  -2.693  0.00  0.00    -0.188 NA
BRANCH   9  14
ATOM     11  C   UNL     1      -0.305  -1.439  -1.325  0.00  0.00    +0.121 A 
ATOM     12  C   UNL     1      -0.867  -2.299  -0.390  0.00  0.00    +0.046 A 
ATOM     13  C   UNL     1      -0.690  -3.660  -0.509  0.00  0.00    +0.013 A 
ATOM     14  C   UNL     1       0.055  -4.176  -1.573  0.00  0.00    -0.005 A 
ATOM     15  C   UNL     1       0.619  -3.307  -2.511  0.00  0.00    +0.013 A 
ATOM     16  C   UNL     1       0.432  -1.947  -2.387  0.00  0.00    +0.046 A 
BRANCH  11  17
ATOM     17  O   UNL     1      -0.481  -0.098  -1.204  0.00  0.00    -0.492 OA
BRANCH  17  19
ATOM     18  C   UNL     1      -1.339   1.885  -0.120  0.00  0.00    +0.048 C 
ATOM     19  C   UNL     1      -1.250   0.357  -0.089  0.00  0.00    +0.225 C 
ENDBRANCH  17  19
ENDBRANCH  11  17
ENDBRANCH   9  14
ENDBRANCH   1  10
BRANCH   4  20
ATOM     20  S   UNL     1       2.038 -10.245  -6.596  0.00  0.00    -0.102 S 
BRANCH  20  21
ATOM     21  C   UNL     1       0.509  -9.306  -6.860  0.00  0.00    +0.168 C 
BRANCH  21  22
ATOM     22  C   UNL     1      -0.311  -9.972  -7.934  0.00  0.00    +0.224 C 
ATOM     23  O   UNL     1       0.096 -10.982  -8.469  0.00  0.00    -0.275 OA
ATOM     24  N   UNL     1      -1.497  -9.447  -8.300  0.00  0.00    -0.302 N 
ATOM     25  H   UNL     1      -1.823  -8.639  -7.872  0.00  0.00    +0.150 HD
BRANCH  24  26
ATOM     26  C   UNL     1      -2.295 -10.095  -9.344  0.00  0.00    +0.149 C 
ATOM     27  C   UNL     1      -3.771 -10.284  -8.895  0.00  0.00    +0.126 C 
ATOM     28  C   UNL     1      -4.426 -11.412  -9.690  0.00  0.00    +0.029 C 
ATOM     29  C   UNL     1      -3.440 -12.517 -10.116  0.00  0.00    +0.161 C 
ATOM     30  S   UNL     1      -1.809 -11.863  -9.562  0.00  0.00    -0.122 S 
ATOM     31  C   UNL     1      -5.523 -12.044  -8.830  0.00  0.00    +0.010 C 
BRANCH  29  32
ATOM     32  C   UNL     1      -3.761 -13.815  -9.421  0.00  0.00    +0.321 C 
ATOM     33  O   UNL     1      -4.518 -14.604  -9.935  0.00  0.00    -0.250 OA
BRANCH  32  34
ATOM     34  O   UNL     1      -3.207 -14.094  -8.230  0.00  0.00    -0.464 OA
BRANCH  34  35
ATOM     35  C   UNL     1      -3.557 -15.342  -7.629  0.00  0.00    +0.229 C 
ATOM     36  C   UNL     1      -2.833 -15.482  -6.288  0.00  0.00    +0.048 C 
ENDBRANCH  34  35
ENDBRANCH  32  34
ENDBRANCH  29  32
BRANCH  27  37
ATOM     37  C   UNL     1      -3.804 -10.617  -7.461  0.00  0.00    +0.069 C 
ATOM     38  N   UNL     1      -3.830 -10.873  -6.355  0.00  0.00    -0.196 NA
ENDBRANCH  27  37
ENDBRANCH  24  26
ENDBRANCH  21  22
ENDBRANCH  20  21
ENDBRANCH   4  20
TORSDOF 12
