REMARK  Name = ZINC36541962
REMARK  11 active torsions:
REMARK  status: ('A' for Active; 'I' for Inactive)
REMARK    1  A    between atoms: C_1  and  O_2
REMARK    2  A    between atoms: O_2  and  C_3
REMARK    3  A    between atoms: C_5  and  C_10
REMARK    4  A    between atoms: C_8  and  O_9
REMARK    5  A    between atoms: C_10  and  C_12
REMARK    6  A    between atoms: C_10  and  N_21
REMARK    7  A    between atoms: N_14  and  C_15
REMARK    8  A    between atoms: N_21  and  C_22
REMARK    9  A    between atoms: C_29  and  C_31
REMARK   10  A    between atoms: C_31  and  C_32
REMARK   11  A    between atoms: C_32  and  C_33
REMARK                            x       y       z     vdW  Elec       q    Type
REMARK                         _______ _______ _______ _____ _____    ______ ____
ROOT
ATOM      1  C   UNL     1       2.422   0.301  -4.076  0.00  0.00    +0.197 C 
ENDROOT
BRANCH   1   4
ATOM      2  C   UNL     1       1.894  -2.009  -1.134  0.00  0.00    +0.162 A 
ATOM      3  C   UNL     1       2.438  -1.044  -1.966  0.00  0.00    +0.055 A 
ATOM      4  C   UNL     1       1.829  -0.748  -3.172  0.00  0.00    -0.014 A 
ATOM      5  C   UNL     1       0.677  -1.413  -3.550  0.00  0.00    +0.010 A 
ATOM      6  C   UNL     1       0.129  -2.377  -2.723  0.00  0.00    +0.049 A 
ATOM      7  C   UNL     1       0.738  -2.682  -1.516  0.00  0.00    +0.158 A 
BRANCH   2   9
ATOM      8  C   UNL     1       3.675  -1.570   0.380  0.00  0.00    +0.277 C 
ATOM      9  O   UNL     1       2.492  -2.301   0.052  0.00  0.00    -0.491 OA
ENDBRANCH   2   9
BRANCH   7  10
ATOM     10  O   UNL     1       0.203  -3.634  -0.705  0.00  0.00    -0.503 OA
ATOM     11  H   UNL     1      -0.443  -3.293  -0.071  0.00  0.00    +0.292 HD
ENDBRANCH   7  10
ENDBRANCH   1   4
BRANCH   1  12
ATOM     12  C   UNL     1       1.498   0.540  -5.242  0.00  0.00    +0.239 C 
ATOM     13  O   UNL     1       1.887   0.346  -6.374  0.00  0.00    -0.273 OA
ATOM     14  N   UNL     1       0.238   0.970  -5.027  0.00  0.00    -0.311 N 
ATOM     15  H   UNL     1      -0.073   1.125  -4.121  0.00  0.00    +0.149 HD
BRANCH  14  16
ATOM     16  C   UNL     1      -0.660   1.202  -6.160  0.00  0.00    +0.073 C 
ATOM     17  C   UNL     1      -0.431   2.611  -6.712  0.00  0.00    +0.022 C 
ATOM     18  C   UNL     1      -1.369   2.853  -7.896  0.00  0.00    +0.002 C 
ATOM     19  C   UNL     1      -2.821   2.718  -7.432  0.00  0.00    +0.000 C 
ATOM     20  C   UNL     1      -3.051   1.310  -6.879  0.00  0.00    +0.002 C 
ATOM     21  C   UNL     1      -2.112   1.067  -5.696  0.00  0.00    +0.022 C 
ENDBRANCH  14  16
ENDBRANCH   1  12
BRANCH   1  22
ATOM     22  N   UNL     1       3.723  -0.158  -4.570  0.00  0.00    -0.254 N 
ATOM     23  C   UNL     1       3.812  -1.314  -5.258  0.00  0.00    +0.221 C 
ATOM     24  O   UNL     1       2.816  -1.974  -5.467  0.00  0.00    -0.275 OA
BRANCH  22  25
ATOM     25  C   UNL     1       4.872   0.603  -4.329  0.00  0.00    +0.056 A 
ATOM     26  C   UNL     1       5.593   0.422  -3.156  0.00  0.00    +0.025 A 
ATOM     27  C   UNL     1       6.726   1.175  -2.920  0.00  0.00    +0.002 A 
ATOM     28  C   UNL     1       7.144   2.109  -3.850  0.00  0.00    +0.002 A 
ATOM     29  C   UNL     1       6.429   2.293  -5.019  0.00  0.00    +0.022 A 
ATOM     30  C   UNL     1       5.297   1.539  -5.264  0.00  0.00    +0.062 A 
ATOM     31 CL   UNL     1       4.404   1.764  -6.736  0.00  0.00    -0.082 Cl
ENDBRANCH  22  25
BRANCH  23  32
ATOM     32  C   UNL     1       5.150  -1.786  -5.766  0.00  0.00    +0.096 C 
BRANCH  32  33
ATOM     33  C   UNL     1       4.974  -3.114  -6.507  0.00  0.00    +0.013 C 
BRANCH  33  34
ATOM     34  C   UNL     1       6.332  -3.593  -7.023  0.00  0.00    -0.011 C 
ATOM     35  C   UNL     1       6.855  -2.610  -8.072  0.00  0.00    +0.003 C 
ATOM     36  C   UNL     1       8.213  -3.090  -8.589  0.00  0.00    +0.000 C 
ATOM     37  C   UNL     1       8.059  -4.475  -9.220  0.00  0.00    +0.000 C 
ATOM     38  C   UNL     1       7.536  -5.458  -8.170  0.00  0.00    +0.000 C 
ATOM     39  C   UNL     1       6.178  -4.978  -7.654  0.00  0.00    +0.003 C 
ENDBRANCH  33  34
ENDBRANCH  32  33
ENDBRANCH  23  32
ENDBRANCH   1  22
TORSDOF 10
