REMARK  Name = ZINC55386847
REMARK  9 active torsions:
REMARK  status: ('A' for Active; 'I' for Inactive)
REMARK    1  A    between atoms: C_1  and  C_2
REMARK    2  A    between atoms: C_2  and  C_3
REMARK    3  A    between atoms: C_3  and  C_4
REMARK    4  A    between atoms: C_10  and  C_12
REMARK    5  A    between atoms: N_14  and  C_15
REMARK    6  A    between atoms: C_15  and  C_16
REMARK    7  A    between atoms: C_21  and  C_22
REMARK    8  A    between atoms: C_22  and  N_23
REMARK    9  A    between atoms: C_28  and  C_30
REMARK                            x       y       z     vdW  Elec       q    Type
REMARK                         _______ _______ _______ _____ _____    ______ ____
ROOT
ATOM      1  C   UNL     1      -1.436  -6.661   2.649  0.00  0.00    +0.139 C 
ENDROOT
BRANCH   1   2
ATOM      2  C   UNL     1      -1.569  -8.162   2.633  0.00  0.00    -0.029 A 
ATOM      3  C   UNL     1      -2.562  -8.775   3.372  0.00  0.00    +0.005 A 
ATOM      4  C   UNL     1      -2.684 -10.152   3.357  0.00  0.00    +0.000 A 
ATOM      5  C   UNL     1      -1.813 -10.915   2.602  0.00  0.00    +0.000 A 
ATOM      6  C   UNL     1      -0.821 -10.302   1.862  0.00  0.00    +0.002 A 
ATOM      7  C   UNL     1      -0.701  -8.924   1.874  0.00  0.00    -0.059 A 
BRANCH   7   8
ATOM      8  C   UNL     1       0.378  -8.255   1.062  0.00  0.00    -0.042 C 
BRANCH   8   9
ATOM      9  N   UNL     1       1.506  -7.909   1.938  0.00  0.00    +0.384 N 
ATOM     10  C   UNL     1       2.110  -9.139   2.463  0.00  0.00    -0.078 C 
ATOM     11  C   UNL     1       3.234  -8.784   3.439  0.00  0.00    -0.019 C 
ATOM     12  C   UNL     1       4.298  -7.963   2.706  0.00  0.00    -0.003 C 
ATOM     13  C   UNL     1       3.642  -6.720   2.099  0.00  0.00    -0.016 C 
ATOM     14  C   UNL     1       2.503  -7.152   1.173  0.00  0.00    -0.071 C 
ATOM     15  C   UNL     1       1.844  -5.912   0.563  0.00  0.00    -0.013 C 
ATOM     16  H   UNL     1       1.173  -7.345   2.706  0.00  0.00    -0.081 HD
ENDBRANCH   8   9
ENDBRANCH   7   8
ENDBRANCH   1   2
BRANCH   1  19
ATOM     17  C   UNL     1      -2.057  -4.769   1.244  0.00  0.00    +0.234 C 
ATOM     18  O   UNL     1      -1.545  -4.033   2.059  0.00  0.00    -0.274 OA
ATOM     19  N   UNL     1      -2.056  -6.102   1.445  0.00  0.00    -0.310 N 
ATOM     20  H   UNL     1      -2.466  -6.691   0.793  0.00  0.00    +0.149 HD
BRANCH  17  27
ATOM     21  C   UNL     1      -1.413  -2.041   0.005  0.00  0.00    +0.216 C 
ATOM     22  O   UNL     1      -0.354  -2.632  -0.009  0.00  0.00    -0.276 OA
ATOM     23  N   UNL     1      -2.571  -2.730   0.012  0.00  0.00    -0.290 N 
ATOM     24  C   UNL     1      -3.922  -2.141   0.022  0.00  0.00    +0.108 C 
ATOM     25  C   UNL     1      -4.836  -3.234  -0.586  0.00  0.00    +0.021 C 
ATOM     26  C   UNL     1      -4.203  -4.527  -0.007  0.00  0.00    +0.033 C 
ATOM     27  C   UNL     1      -2.696  -4.195   0.005  0.00  0.00    +0.162 C 
BRANCH  21  28
ATOM     28  C   UNL     1      -1.433  -0.534   0.013  0.00  0.00    +0.096 C 
BRANCH  28  30
ATOM     29  C   UNL     1      -0.019   1.526   0.010  0.00  0.00    +0.004 C 
ATOM     30  C   UNL     1       0.002  -0.004   0.002  0.00  0.00    +0.006 C 
ENDBRANCH  28  30
ENDBRANCH  21  28
ENDBRANCH  17  27
ENDBRANCH   1  19
TORSDOF 7
