REMARK  Name = ZINC11996154
REMARK  7 active torsions:
REMARK  status: ('A' for Active; 'I' for Inactive)
REMARK    1  A    between atoms: C_1  and  C_2
REMARK    2  A    between atoms: C_2  and  N_3
REMARK    3  A    between atoms: C_14  and  C_16
REMARK    4  A    between atoms: C_16  and  N_64
REMARK    5  A    between atoms: C_23  and  C_27
REMARK    6  A    between atoms: C_27  and  C_29
REMARK    7  A    between atoms: C_27  and  O_35
REMARK                            x       y       z     vdW  Elec       q    Type
REMARK                         _______ _______ _______ _____ _____    ______ ____
ROOT
ATOM      1  C   UNL     1      -3.624   0.911   5.711  0.00  0.00    -0.036 C 
ATOM      2  C   UNL     1      -3.916   2.159   4.906  0.00  0.00    +0.210 C 
ATOM      3  O   UNL     1      -2.707   2.873   4.621  0.00  0.00    -0.494 OA
ATOM      4  C   UNL     1      -2.032   2.457   3.515  0.00  0.00    +0.122 A 
ATOM      5  C   UNL     1      -1.974   3.266   2.388  0.00  0.00    +0.046 A 
ATOM      6  C   UNL     1      -1.313   2.820   1.259  0.00  0.00    +0.010 A 
ATOM      7  C   UNL     1      -0.718   1.572   1.248  0.00  0.00    -0.014 A 
ATOM      8  C   UNL     1      -0.764   0.771   2.375  0.00  0.00    +0.011 A 
ATOM      9  C   UNL     1      -1.418   1.219   3.505  0.00  0.00    -0.022 A 
ATOM     10  C   UNL     1      -1.452   0.363   4.756  0.00  0.00    -0.039 C 
ATOM     11  N   UNL     1      -2.849  -0.095   4.955  0.00  0.00    +0.387 N 
ATOM     12  H   UNL     1      -3.286  -0.226   4.036  0.00  0.00    -0.081 HD
ENDROOT
BRANCH  11  13
ATOM     13  C   UNL     1      -2.859  -1.379   5.675  0.00  0.00    -0.042 C 
BRANCH  13  25
ATOM     14  N   UNL     1      -8.089  -2.409   7.542  0.00  0.00    -0.340 N 
ATOM     15  C   UNL     1      -8.049  -1.826   8.796  0.00  0.00    +0.050 A 
ATOM     16  C   UNL     1      -8.999  -1.710   9.805  0.00  0.00    +0.026 A 
ATOM     17  C   UNL     1      -8.683  -1.063  10.980  0.00  0.00    +0.002 A 
ATOM     18  C   UNL     1      -7.420  -0.524  11.170  0.00  0.00    +0.001 A 
ATOM     19  C   UNL     1      -6.465  -0.629  10.182  0.00  0.00    +0.010 A 
ATOM     20  C   UNL     1      -6.771  -1.280   8.989  0.00  0.00    +0.008 A 
ATOM     21  C   UNL     1      -6.005  -1.561   7.761  0.00  0.00    +0.008 A 
ATOM     22  C   UNL     1      -6.870  -2.260   6.904  0.00  0.00    +0.050 A 
ATOM     23  C   UNL     1      -6.411  -2.663   5.654  0.00  0.00    +0.026 A 
ATOM     24  C   UNL     1      -5.120  -2.375   5.267  0.00  0.00    +0.004 A 
ATOM     25  C   UNL     1      -4.267  -1.685   6.114  0.00  0.00    -0.063 A 
ATOM     26  C   UNL     1      -4.701  -1.283   7.359  0.00  0.00    +0.012 A 
BRANCH  14  28
ATOM     27  C   UNL     1      -9.213  -4.571   7.337  0.00  0.00    +0.027 C 
ATOM     28  C   UNL     1      -9.255  -3.086   6.970  0.00  0.00    +0.119 C 
ENDBRANCH  14  28
ENDBRANCH  13  25
ENDBRANCH  11  13
BRANCH   7  29
ATOM     29  C   UNL     1      -0.013   1.086   0.008  0.00  0.00    +0.176 C 
BRANCH  29  30
ATOM     30  C   UNL     1       1.401   1.607  -0.003  0.00  0.00    +0.003 A 
ATOM     31  C   UNL     1       2.452   0.796   0.397  0.00  0.00    +0.009 A 
ATOM     32  C   UNL     1       3.736   1.317   0.367  0.00  0.00    +0.020 A 
ATOM     33  C   UNL     1       3.924   2.622  -0.048  0.00  0.00    +0.111 A 
ATOM     34  N   UNL     1       2.901   3.366  -0.417  0.00  0.00    -0.263 NA
ATOM     35  C   UNL     1       1.666   2.902  -0.406  0.00  0.00    +0.117 A 
ENDBRANCH  29  30
BRANCH  29  36
ATOM     36  O   UNL     1      -0.704   1.559  -1.150  0.00  0.00    -0.382 OA
ATOM     37  H   UNL     1      -0.756   2.523  -1.210  0.00  0.00    +0.211 HD
ENDBRANCH  29  36
ENDBRANCH   7  29
TORSDOF 6
