REMARK  Name = ZINC58209205
REMARK  8 active torsions:
REMARK  status: ('A' for Active; 'I' for Inactive)
REMARK    1  A    between atoms: C_1  and  C_2
REMARK    2  A    between atoms: C_2  and  C_3
REMARK    3  A    between atoms: C_2  and  C_4
REMARK    4  A    between atoms: C_2  and  N_5
REMARK    5  A    between atoms: C_6  and  C_8
REMARK    6  A    between atoms: C_14  and  C_16
REMARK    7  A    between atoms: C_22  and  C_24
REMARK    8  A    between atoms: C_25  and  C_26
REMARK                            x       y       z     vdW  Elec       q    Type
REMARK                         _______ _______ _______ _____ _____    ______ ____
ROOT
ATOM      1  C   UNL     1       6.296  -0.006  -1.589  0.00  0.00    +0.078 C 
ATOM      2  C   UNL     1       7.026  -0.531  -2.827  0.00  0.00    +0.032 C 
ATOM      3  C   UNL     1       8.461   0.004  -2.833  0.00  0.00    +0.109 C 
ATOM      4  N   UNL     1       9.103  -0.350  -1.559  0.00  0.00    -0.298 N 
ATOM      5  C   UNL     1       8.438   0.028  -0.305  0.00  0.00    +0.109 C 
ATOM      6  C   UNL     1       7.003  -0.507  -0.327  0.00  0.00    +0.032 C 
ATOM      7  C   UNL     1      10.279  -1.008  -1.542  0.00  0.00    +0.239 C 
ATOM      8  O   UNL     1      10.846  -1.213  -0.485  0.00  0.00    -0.271 OA
ENDROOT
BRANCH   1  14
ATOM      9  C   UNL     1       2.675  -0.641  -2.666  0.00  0.00    +0.172 C 
ATOM     10  C   UNL     1       1.884  -0.153  -3.904  0.00  0.00    +0.102 C 
ATOM     11  S   UNL     1       2.912   1.305  -4.386  0.00  0.00    -0.139 S 
ATOM     12  C   UNL     1       4.516   0.648  -3.748  0.00  0.00    +0.178 C 
ATOM     13  N   UNL     1       4.054  -0.183  -2.619  0.00  0.00    -0.280 N 
ATOM     14  C   UNL     1       4.873  -0.502  -1.597  0.00  0.00    +0.220 C 
ATOM     15  O   UNL     1       4.464  -1.189  -0.685  0.00  0.00    -0.275 OA
BRANCH   9  17
ATOM     16  N   UNL     1       0.686  -0.506  -1.202  0.00  0.00    -0.309 N 
ATOM     17  C   UNL     1       1.969  -0.158  -1.425  0.00  0.00    +0.235 C 
ATOM     18  O   UNL     1       2.554   0.544  -0.629  0.00  0.00    -0.274 OA
ATOM     19  H   UNL     1       0.218  -1.068  -1.839  0.00  0.00    +0.149 HD
BRANCH  16  21
ATOM     20  C   UNL     1      -0.026   1.494   0.013  0.00  0.00    +0.031 C 
ATOM     21  C   UNL     1      -0.001  -0.036   0.004  0.00  0.00    +0.026 C 
ATOM     22  C   UNL     1       0.741  -0.541   1.243  0.00  0.00    +0.031 C 
ATOM     23  C   UNL     1      -1.435  -0.570   0.015  0.00  0.00    +0.031 C 
ENDBRANCH  16  21
ENDBRANCH   9  17
ENDBRANCH   1  14
BRANCH   7  24
ATOM     24  C   UNL     1      10.874  -1.477  -2.795  0.00  0.00    +0.068 C 
ATOM     25  C   UNL     1      11.995  -2.225  -2.771  0.00  0.00    +0.013 C 
BRANCH  25  26
ATOM     26  C   UNL     1      12.593  -2.696  -4.031  0.00  0.00    -0.025 A 
ATOM     27  C   UNL     1      12.005  -2.364  -5.255  0.00  0.00    +0.008 A 
ATOM     28  C   UNL     1      12.571  -2.809  -6.431  0.00  0.00    +0.001 A 
ATOM     29  C   UNL     1      13.719  -3.583  -6.401  0.00  0.00    +0.000 A 
ATOM     30  C   UNL     1      14.307  -3.915  -5.194  0.00  0.00    +0.001 A 
ATOM     31  C   UNL     1      13.756  -3.473  -4.009  0.00  0.00    +0.008 A 
ENDBRANCH  25  26
ENDBRANCH   7  24
TORSDOF 5
