REMARK  Name = ZINC10300581
REMARK  4 active torsions:
REMARK  status: ('A' for Active; 'I' for Inactive)
REMARK    1  A    between atoms: C_5  and  C_6
REMARK    2  A    between atoms: N_10  and  C_18
REMARK    3  A    between atoms: C_12  and  C_13
REMARK    4  A    between atoms: C_12  and  C_15
REMARK                            x       y       z     vdW  Elec       q    Type
REMARK                         _______ _______ _______ _____ _____    ______ ____
ROOT
ATOM      1  C   UNL     1       2.792   3.528  -0.325  0.00  0.00    +0.035 C 
ATOM      2  C   UNL     1       1.929   4.572  -0.155  0.00  0.00    +0.080 A 
ATOM      3  C   UNL     1       2.211   5.940   0.129  0.00  0.00    +0.266 A 
ATOM      4  O   UNL     1       3.358   6.328   0.256  0.00  0.00    -0.266 OA
ATOM      5  N   UNL     1       1.195   6.778   0.246  0.00  0.00    -0.297 N 
ATOM      6  C   UNL     1      -0.095   6.327   0.109  0.00  0.00    +0.112 A 
ATOM      7  C   UNL     1      -1.291   7.046   0.202  0.00  0.00    +0.158 C 
ATOM      8  S   UNL     1       0.143   4.587  -0.221  0.00  0.00    -0.064 S 
ENDROOT
BRANCH   1  13
ATOM      9  C   UNL     1       2.991   1.049  -0.801  0.00  0.00    +0.017 A 
ATOM     10  C   UNL     1       2.248  -0.076  -1.050  0.00  0.00    +0.023 A 
ATOM     11  C   UNL     1       0.890   0.018  -1.085  0.00  0.00    +0.055 A 
ATOM     12  S   UNL     1       0.600   1.697  -0.768  0.00  0.00    -0.082 S 
ATOM     13  C   UNL     1       2.292   2.235  -0.597  0.00  0.00    +0.014 A 
ATOM     14 BR   UNL     1      -0.373  -1.353  -1.401  0.00  0.00    -0.043 Br
ENDBRANCH   1  13
BRANCH   5  15
ATOM     15  C   UNL     1       1.446   8.193   0.532  0.00  0.00    +0.091 C 
ATOM     16  C   UNL     1       2.483   8.523   1.607  0.00  0.00    +0.027 C 
ATOM     17  C   UNL     1       0.993   8.731   1.890  0.00  0.00    +0.027 C 
ENDBRANCH   5  15
BRANCH   7  18
ATOM     18  C   UNL     1      -2.546   6.356   0.170  0.00  0.00    +0.113 C 
ATOM     19  N   UNL     1      -3.541   5.809   0.145  0.00  0.00    -0.190 NA
ENDBRANCH   7  18
BRANCH   7  20
ATOM     20  C   UNL     1      -1.260   8.472   0.330  0.00  0.00    +0.113 C 
ATOM     21  N   UNL     1      -1.236   9.603   0.431  0.00  0.00    -0.190 NA
ENDBRANCH   7  20
TORSDOF 4
