REMARK  Name = ZINC64074662
REMARK  9 active torsions:
REMARK  status: ('A' for Active; 'I' for Inactive)
REMARK    1  A    between atoms: C_1  and  C_2
REMARK    2  A    between atoms: C_2  and  C_3
REMARK    3  A    between atoms: C_3  and  C_18
REMARK    4  A    between atoms: N_6  and  C_10
REMARK    5  A    between atoms: C_10  and  C_11
REMARK    6  A    between atoms: C_11  and  C_12
REMARK    7  A    between atoms: C_13  and  C_17
REMARK    8  A    between atoms: N_21  and  C_24
REMARK    9  A    between atoms: C_24  and  C_25
REMARK                            x       y       z     vdW  Elec       q    Type
REMARK                         _______ _______ _______ _____ _____    ______ ____
ROOT
ATOM      1  C   UNL     1       0.718  -0.497  -1.257  0.00  0.00    +0.115 C 
ATOM      2  C   UNL     1       0.081   0.093  -2.499  0.00  0.00    +0.247 C 
ATOM      3  O   UNL     1      -1.061  -0.057  -2.878  0.00  0.00    -0.273 OA
ATOM      4  N   UNL     1       1.047   0.819  -3.095  0.00  0.00    -0.224 N 
ATOM      5  C   UNL     1       2.195   0.770  -2.408  0.00  0.00    +0.309 C 
ATOM      6  O   UNL     1       3.210   1.345  -2.748  0.00  0.00    -0.252 OA
ATOM      7  N   UNL     1       2.099   0.013  -1.301  0.00  0.00    -0.285 N 
ATOM      8  H   UNL     1       2.803  -0.163  -0.657  0.00  0.00    +0.151 HD
ENDROOT
BRANCH   1   9
ATOM      9  C   UNL     1       0.707  -2.026  -1.316  0.00  0.00    +0.018 C 
ATOM     10  C   UNL     1       1.429  -2.592  -0.090  0.00  0.00    -0.013 C 
ATOM     11  C   UNL     1       1.484  -4.118  -0.196  0.00  0.00    -0.078 C 
ATOM     12  N   UNL     1       2.208  -4.502  -1.413  0.00  0.00    +0.381 N 
ATOM     13  C   UNL     1       1.483  -4.024  -2.597  0.00  0.00    -0.078 C 
ATOM     14  C   UNL     1       1.428  -2.495  -2.583  0.00  0.00    -0.013 C 
ATOM     15  H   UNL     1       3.131  -4.093  -1.398  0.00  0.00    -0.082 HD
BRANCH  12  16
ATOM     16  C   UNL     1       2.326  -5.965  -1.471  0.00  0.00    -0.050 C 
BRANCH  16  17
ATOM     17  C   UNL     1       3.187  -6.361  -2.672  0.00  0.00    +0.086 C 
ATOM     18  C   UNL     1       3.470  -7.846  -2.643  0.00  0.00    +0.005 C 
ATOM     19  C   UNL     1       4.814  -7.971  -2.559  0.00  0.00    -0.004 A 
ATOM     20  C   UNL     1       5.702  -9.137  -2.495  0.00  0.00    +0.010 A 
ATOM     21  C   UNL     1       7.038  -8.940  -2.413  0.00  0.00    +0.001 A 
ATOM     22  C   UNL     1       7.593  -7.654  -2.388  0.00  0.00    +0.002 A 
ATOM     23  C   UNL     1       6.842  -6.534  -2.443  0.00  0.00    +0.026 A 
ATOM     24  C   UNL     1       5.425  -6.623  -2.531  0.00  0.00    +0.043 A 
ATOM     25  N   UNL     1       4.494  -5.700  -2.596  0.00  0.00    -0.380 N 
ATOM     26  H   UNL     1       4.645  -4.741  -2.595  0.00  0.00    +0.160 HD
ENDBRANCH  16  17
ENDBRANCH  12  16
ENDBRANCH   1   9
BRANCH   1  28
ATOM     27  C   UNL     1      -0.019   1.526   0.010  0.00  0.00    +0.006 C 
ATOM     28  C   UNL     1       0.002  -0.004   0.002  0.00  0.00    +0.032 C 
ENDBRANCH   1  28
BRANCH   4  29
ATOM     29  C   UNL     1       0.864   1.569  -4.340  0.00  0.00    +0.123 C 
BRANCH  29  30
ATOM     30  C   UNL     1       0.396   2.989  -4.016  0.00  0.00    +0.064 C 
BRANCH  30  31
ATOM     31  C   UNL     1       0.208   3.760  -5.297  0.00  0.00    +0.014 A 
ATOM     32  C   UNL     1      -0.896   3.890  -6.076  0.00  0.00    +0.049 A 
ATOM     33  N   UNL     1      -0.780   4.635  -7.157  0.00  0.00    -0.252 NA
ATOM     34  C   UNL     1       0.351   5.221  -7.463  0.00  0.00    +0.156 A 
ATOM     35  S   UNL     1       1.373   4.761  -6.207  0.00  0.00    -0.080 S 
ATOM     36  C   UNL     1      -2.196   3.214  -5.721  0.00  0.00    +0.066 C 
ENDBRANCH  30  31
ENDBRANCH  29  30
ENDBRANCH   4  29
TORSDOF 7
