REMARK  Name = ZINC64794671
REMARK  7 active torsions:
REMARK  status: ('A' for Active; 'I' for Inactive)
REMARK    1  A    between atoms: C_2  and  C_3
REMARK    2  A    between atoms: C_3  and  N_4
REMARK    3  A    between atoms: C_5  and  C_25
REMARK    4  A    between atoms: C_8  and  S_9
REMARK    5  A    between atoms: S_9  and  C_10
REMARK    6  A    between atoms: C_10  and  C_11
REMARK    7  A    between atoms: C_26  and  N_34
REMARK                            x       y       z     vdW  Elec       q    Type
REMARK                         _______ _______ _______ _____ _____    ______ ____
ROOT
ATOM      1  N   UNL     1      -1.318  -1.700  -1.126  0.00  0.00    -0.298 N 
ATOM      2  C   UNL     1      -1.793  -1.448  -2.395  0.00  0.00    +0.174 A 
ATOM      3  N   UNL     1      -1.623  -2.550  -3.094  0.00  0.00    -0.128 NA
ATOM      4  N   UNL     1      -1.083  -3.456  -2.361  0.00  0.00    -0.122 NA
ATOM      5  C   UNL     1      -0.869  -2.992  -1.151  0.00  0.00    +0.193 A 
ENDROOT
BRANCH   2   6
ATOM      6  C   UNL     1      -2.378  -0.189  -2.875  0.00  0.00    +0.080 A 
ATOM      7  C   UNL     1      -2.862   0.097  -4.115  0.00  0.00    +0.052 A 
ATOM      8  C   UNL     1      -3.401   1.424  -4.367  0.00  0.00    +0.029 A 
ATOM      9  C   UNL     1      -3.953   1.946  -5.562  0.00  0.00    +0.014 A 
ATOM     10  C   UNL     1      -4.407   3.244  -5.575  0.00  0.00    +0.020 A 
ATOM     11  C   UNL     1      -4.325   4.028  -4.434  0.00  0.00    +0.112 A 
ATOM     12  N   UNL     1      -3.810   3.538  -3.323  0.00  0.00    -0.248 NA
ATOM     13  C   UNL     1      -3.363   2.304  -3.260  0.00  0.00    +0.111 A 
ATOM     14  S   UNL     1      -2.631   1.326  -1.971  0.00  0.00    -0.064 S 
BRANCH   7  15
ATOM     15  N   UNL     1      -2.842  -0.869  -5.129  0.00  0.00    -0.356 N 
ATOM     16  H   UNL     1      -2.480  -1.751  -4.952  0.00  0.00    +0.142 HD
ATOM     17  H   UNL     1      -3.189  -0.656  -6.010  0.00  0.00    +0.142 HD
ENDBRANCH   7  15
ENDBRANCH   2   6
BRANCH   1  18
ATOM     18  C   UNL     1      -1.293  -0.775   0.010  0.00  0.00    +0.152 C 
BRANCH  18  20
ATOM     19  C   UNL     1      -0.016   1.306   0.009  0.00  0.00    +0.005 C 
ATOM     20  C   UNL     1       0.002  -0.004   0.002  0.00  0.00    -0.013 C 
ENDBRANCH  18  20
ENDBRANCH   1  18
BRANCH   5  21
ATOM     21  S   UNL     1      -0.142  -3.872   0.192  0.00  0.00    -0.077 S 
BRANCH  21  22
ATOM     22  C   UNL     1       0.222  -5.508  -0.502  0.00  0.00    +0.173 C 
BRANCH  22  23
ATOM     23  C   UNL     1       0.856  -6.372   0.558  0.00  0.00    +0.226 C 
ATOM     24  O   UNL     1       1.043  -5.928   1.671  0.00  0.00    -0.275 OA
ATOM     25  N   UNL     1       1.214  -7.639   0.268  0.00  0.00    -0.298 N 
ATOM     26  C   UNL     1       0.998  -8.188  -1.078  0.00  0.00    +0.127 C 
ATOM     27  C   UNL     1       2.337  -8.712  -1.614  0.00  0.00    +0.127 C 
ATOM     28  N   UNL     1       2.950  -9.568  -0.589  0.00  0.00    -0.297 N 
ATOM     29  C   UNL     1       3.166  -9.019   0.757  0.00  0.00    +0.127 C 
ATOM     30  C   UNL     1       1.833  -8.494   1.291  0.00  0.00    +0.127 C 
ATOM     31  C   UNL     1       3.318 -10.869  -0.886  0.00  0.00    +0.218 A 
ATOM     32  N   UNL     1       3.116 -11.335  -2.110  0.00  0.00    -0.223 NA
ATOM     33  C   UNL     1       3.456 -12.573  -2.427  0.00  0.00    +0.116 A 
ATOM     34  C   UNL     1       4.031 -13.384  -1.462  0.00  0.00    +0.039 A 
ATOM     35  C   UNL     1       4.228 -12.865  -0.192  0.00  0.00    +0.116 A 
ATOM     36  N   UNL     1       3.869 -11.617   0.058  0.00  0.00    -0.223 NA
ENDBRANCH  22  23
ENDBRANCH  21  22
ENDBRANCH   5  21
TORSDOF 7
