REMARK  Name = ZINC16827687
REMARK  6 active torsions:
REMARK  status: ('A' for Active; 'I' for Inactive)
REMARK    1  A    between atoms: C_1  and  C_2
REMARK    2  A    between atoms: C_2  and  C_4
REMARK    3  A    between atoms: C_2  and  S_15
REMARK    4  A    between atoms: N_6  and  C_7
REMARK    5  A    between atoms: C_7  and  C_8
REMARK    6  A    between atoms: S_15  and  C_16
REMARK                            x       y       z     vdW  Elec       q    Type
REMARK                         _______ _______ _______ _____ _____    ______ ____
ROOT
ATOM      1  C   UNL     1       1.410   6.081  -1.286  0.00  0.00    +0.029 C 
ATOM      2  C   UNL     1       2.201   6.237   0.014  0.00  0.00    +0.137 C 
ENDROOT
BRANCH   2   3
ATOM      3  C   UNL     1       2.684   7.659   0.140  0.00  0.00    +0.226 C 
ATOM      4  O   UNL     1       3.798   7.957  -0.234  0.00  0.00    -0.275 OA
ATOM      5  N   UNL     1       1.877   8.600   0.669  0.00  0.00    -0.310 N 
ATOM      6  H   UNL     1       0.986   8.362   0.969  0.00  0.00    +0.149 HD
BRANCH   5   7
ATOM      7  C   UNL     1       2.346   9.983   0.792  0.00  0.00    +0.141 C 
BRANCH   7   8
ATOM      8  C   UNL     1       1.263  10.828   1.410  0.00  0.00    -0.012 A 
ATOM      9  C   UNL     1       0.468  11.627   0.609  0.00  0.00    +0.006 A 
ATOM     10  C   UNL     1      -0.529  12.399   1.174  0.00  0.00    +0.000 A 
ATOM     11  C   UNL     1      -0.726  12.381   2.543  0.00  0.00    +0.001 A 
ATOM     12  C   UNL     1       0.071  11.587   3.345  0.00  0.00    +0.020 A 
ATOM     13  C   UNL     1       1.066  10.810   2.779  0.00  0.00    +0.046 A 
ATOM     14 CL   UNL     1       2.068   9.812   3.787  0.00  0.00    -0.083 Cl
ENDBRANCH   7   8
ENDBRANCH   5   7
ENDBRANCH   2   3
BRANCH   2  15
ATOM     15  S   UNL     1       3.622   5.117  -0.006  0.00  0.00    -0.075 S 
BRANCH  15  16
ATOM     16  C   UNL     1       2.788   3.565  -0.006  0.00  0.00    +0.168 A 
ATOM     17  N   UNL     1       3.401   2.344  -0.019  0.00  0.00    -0.333 N 
ATOM     18  H   UNL     1       4.387   2.175  -0.030  0.00  0.00    +0.168 HD
ATOM     19  C   UNL     1       2.404   1.383  -0.013  0.00  0.00    +0.068 A 
ATOM     20  C   UNL     1       2.405  -0.004  -0.021  0.00  0.00    +0.047 A 
ATOM     21  C   UNL     1       1.208  -0.692  -0.013  0.00  0.00    +0.043 A 
ATOM     22  C   UNL     1       0.002  -0.004   0.002  0.00  0.00    +0.022 A 
ATOM     23  C   UNL     1      -0.017   1.373   0.010  0.00  0.00    +0.031 A 
ATOM     24  C   UNL     1       1.186   2.083   0.002  0.00  0.00    +0.090 A 
ATOM     25  N   UNL     1       1.487   3.409   0.006  0.00  0.00    -0.222 NA
ATOM     26 CL   UNL     1       1.210  -2.428  -0.022  0.00  0.00    -0.083 Cl
ENDBRANCH  15  16
ENDBRANCH   2  15
TORSDOF 5
