REMARK  Name = ZINC09520651
REMARK  4 active torsions:
REMARK  status: ('A' for Active; 'I' for Inactive)
REMARK    1  A    between atoms: C_6  and  N_7
REMARK    2  A    between atoms: C_8  and  C_10
REMARK    3  A    between atoms: C_10  and  S_11
REMARK    4  A    between atoms: S_11  and  C_12
REMARK                            x       y       z     vdW  Elec       q    Type
REMARK                         _______ _______ _______ _____ _____    ______ ____
ROOT
ATOM      1  C   UNL     1       0.038   1.032  -2.809  0.00  0.00    +0.198 A 
ATOM      2  N   UNL     1       1.111   0.284  -2.716  0.00  0.00    -0.120 NA
ATOM      3  N   UNL     1       1.542  -0.023  -4.013  0.00  0.00    -0.109 NA
ATOM      4  C   UNL     1       0.719   0.547  -4.859  0.00  0.00    +0.237 A 
ATOM      5  N   UNL     1      -0.236   1.212  -4.139  0.00  0.00    -0.260 N 
ATOM      6  C   UNL     1      -1.248   1.909  -4.776  0.00  0.00    +0.037 A 
ATOM      7  C   UNL     1      -1.296   1.935  -6.113  0.00  0.00    +0.037 A 
ATOM      8  C   UNL     1      -0.308   1.238  -6.867  0.00  0.00    +0.256 A 
ATOM      9  O   UNL     1      -0.352   1.255  -8.084  0.00  0.00    -0.267 OA
ATOM     10  N   UNL     1       0.677   0.568  -6.243  0.00  0.00    -0.291 N 
ATOM     11  H   UNL     1       1.348   0.094  -6.759  0.00  0.00    +0.172 HD
ATOM     12  C   UNL     1      -2.358   2.679  -6.881  0.00  0.00    +0.042 C 
ATOM     13  C   UNL     1      -3.554   2.992  -5.985  0.00  0.00    +0.005 C 
ATOM     14  C   UNL     1      -3.032   3.654  -4.704  0.00  0.00    +0.006 C 
ATOM     15  C   UNL     1      -2.262   2.604  -3.905  0.00  0.00    +0.054 C 
ENDROOT
BRANCH   1  16
ATOM     16  S   UNL     1      -0.891   1.685  -1.462  0.00  0.00    -0.076 S 
BRANCH  16  17
ATOM     17  C   UNL     1      -0.016   1.080   0.008  0.00  0.00    +0.173 C 
BRANCH  17  19
ATOM     18  N   UNL     1      -0.242   1.246   2.466  0.00  0.00    -0.285 N 
ATOM     19  C   UNL     1      -0.717   1.573   1.248  0.00  0.00    +0.227 C 
ATOM     20  O   UNL     1      -1.709   2.265   1.150  0.00  0.00    -0.275 OA
ATOM     21  H   UNL     1       0.511   0.639   2.546  0.00  0.00    +0.155 HD
BRANCH  18  27
ATOM     22  C   UNL     1      -0.052   2.086   4.723  0.00  0.00    +0.025 A 
ATOM     23  C   UNL     1      -0.638   2.620   5.854  0.00  0.00    +0.022 A 
ATOM     24  C   UNL     1      -2.004   2.842   5.888  0.00  0.00    +0.041 A 
ATOM     25  C   UNL     1      -2.785   2.534   4.788  0.00  0.00    +0.022 A 
ATOM     26  C   UNL     1      -2.204   2.006   3.652  0.00  0.00    +0.025 A 
ATOM     27  C   UNL     1      -0.834   1.782   3.615  0.00  0.00    +0.033 A 
ATOM     28 CL   UNL     1      -2.738   3.506   7.314  0.00  0.00    -0.084 Cl
ENDBRANCH  18  27
ENDBRANCH  17  19
ENDBRANCH  16  17
ENDBRANCH   1  16
TORSDOF 4
