REMARK  Name = ZINC04574634
REMARK  4 active torsions:
REMARK  status: ('A' for Active; 'I' for Inactive)
REMARK    1  A    between atoms: C_4  and  N_7
REMARK    2  A    between atoms: C_8  and  S_23
REMARK    3  A    between atoms: C_12  and  C_15
REMARK    4  A    between atoms: C_12  and  N_50
REMARK                            x       y       z     vdW  Elec       q    Type
REMARK                         _______ _______ _______ _____ _____    ______ ____
ROOT
ATOM      1  N   UNL     1      -4.877  -2.403   2.601  0.00  0.00    -0.226 NA
ATOM      2  C   UNL     1      -4.512  -2.987   1.482  0.00  0.00    +0.154 C 
ATOM      3  N   UNL     1      -3.909  -2.255   0.489  0.00  0.00    -0.310 N 
ATOM      4  C   UNL     1      -3.496  -2.894  -0.768  0.00  0.00    +0.106 C 
ATOM      5  C   UNL     1      -2.015  -2.588  -1.014  0.00  0.00    +0.016 C 
ATOM      6  C   UNL     1      -1.800  -1.073  -0.979  0.00  0.00    +0.015 C 
ATOM      7  C   UNL     1      -2.182  -0.533   0.401  0.00  0.00    +0.016 C 
ATOM      8  C   UNL     1      -3.665  -0.817   0.663  0.00  0.00    +0.106 C 
ENDROOT
BRANCH   6  14
ATOM      9  C   UNL     1      -0.156   0.676  -1.294  0.00  0.00    -0.077 C 
ATOM     10  C   UNL     1       1.289   0.950  -1.718  0.00  0.00    -0.019 C 
ATOM     11  C   UNL     1       2.243   0.294  -0.715  0.00  0.00    -0.004 C 
ATOM     12  C   UNL     1       1.949  -1.207  -0.650  0.00  0.00    -0.019 C 
ATOM     13  C   UNL     1       0.485  -1.419  -0.257  0.00  0.00    -0.077 C 
ATOM     14  N   UNL     1      -0.381  -0.785  -1.274  0.00  0.00    +0.389 N 
ATOM     15  H   UNL     1      -0.148  -1.171  -2.197  0.00  0.00    -0.080 HD
ENDBRANCH   6  14
BRANCH   1  19
ATOM     16  C   UNL     1      -6.366  -4.666   5.729  0.00  0.00    +0.000 A 
ATOM     17  C   UNL     1      -5.092  -4.910   5.249  0.00  0.00    +0.002 A 
ATOM     18  C   UNL     1      -4.589  -4.160   4.206  0.00  0.00    +0.028 A 
ATOM     19  C   UNL     1      -5.370  -3.152   3.635  0.00  0.00    +0.066 A 
ATOM     20  C   UNL     1      -6.653  -2.908   4.129  0.00  0.00    +0.028 A 
ATOM     21  C   UNL     1      -7.145  -3.669   5.169  0.00  0.00    +0.002 A 
ENDBRANCH   1  19
BRANCH   6  22
ATOM     22  C   UNL     1      -2.660  -0.419  -2.029  0.00  0.00    +0.200 C 
ATOM     23  O   UNL     1      -3.717   0.087  -1.718  0.00  0.00    -0.278 OA
ATOM     24  N   UNL     1      -2.254  -0.397  -3.314  0.00  0.00    -0.330 N 
ATOM     25  H   UNL     1      -1.446  -0.865  -3.576  0.00  0.00    +0.145 HD
ATOM     26  H   UNL     1      -2.771   0.086  -3.978  0.00  0.00    +0.145 HD
ENDBRANCH   6  22
BRANCH   2  27
ATOM     27  S   UNL     1      -4.797  -4.712   1.255  0.00  0.00    -0.108 S 
ATOM     28  H   UNL     1      -5.528  -4.995   2.427  0.00  0.00    +0.110 HD
ENDBRANCH   2  27
TORSDOF 4
