REMARK  Name = ZINC13846790
REMARK  5 active torsions:
REMARK  status: ('A' for Active; 'I' for Inactive)
REMARK    1  A    between atoms: C_1  and  C_2
REMARK    2  A    between atoms: C_2  and  C_4
REMARK    3  A    between atoms: C_2  and  N_15
REMARK    4  A    between atoms: N_6  and  C_7
REMARK    5  A    between atoms: C_12  and  O_13
REMARK                            x       y       z     vdW  Elec       q    Type
REMARK                         _______ _______ _______ _____ _____    ______ ____
ROOT
ATOM      1  C   UNL     1      -0.034   1.509   0.021  0.00  0.00    +0.038 C 
ATOM      2  C   UNL     1      -0.008  -0.021   0.002  0.00  0.00    +0.167 C 
ENDROOT
BRANCH   2   3
ATOM      3  N   UNL     1       0.697  -0.512   1.188  0.00  0.00    -0.230 N 
ATOM      4  C   UNL     1       1.972  -0.200   1.455  0.00  0.00    +0.227 C 
ATOM      5  O   UNL     1       2.681   0.505   0.769  0.00  0.00    -0.275 OA
ATOM      6  C   UNL     1       2.386  -0.867   2.749  0.00  0.00    +0.095 C 
ATOM      7  C   UNL     1       2.772   0.211   3.770  0.00  0.00    +0.027 C 
ATOM      8  C   UNL     1       1.545   1.093   3.970  0.00  0.00    -0.026 C 
ATOM      9  C   UNL     1       0.444   0.456   4.348  0.00  0.00    -0.026 C 
ATOM     10  C   UNL     1       0.587  -1.052   4.519  0.00  0.00    +0.027 C 
ATOM     11  C   UNL     1       1.122  -1.626   3.186  0.00  0.00    +0.095 C 
ATOM     12  C   UNL     1       0.119  -1.305   2.099  0.00  0.00    +0.227 C 
ATOM     13  O   UNL     1      -1.025  -1.704   2.059  0.00  0.00    -0.275 OA
ATOM     14  C   UNL     1       1.715  -1.258   5.565  0.00  0.00    +0.001 C 
ATOM     15  C   UNL     1       3.021  -0.514   5.120  0.00  0.00    +0.001 C 
ATOM     16  C   UNL     1       2.929  -2.064   5.099  0.00  0.00    +0.009 C 
ENDBRANCH   2   3
BRANCH   2  17
ATOM     17  C   UNL     1       0.704  -0.497  -1.238  0.00  0.00    +0.238 C 
ATOM     18  O   UNL     1       1.702  -1.178  -1.141  0.00  0.00    -0.273 OA
ATOM     19  N   UNL     1       0.231  -0.164  -2.456  0.00  0.00    -0.281 N 
ATOM     20  H   UNL     1      -0.602   0.326  -2.535  0.00  0.00    +0.155 HD
BRANCH  19  21
ATOM     21  C   UNL     1       0.944  -0.527  -3.607  0.00  0.00    +0.075 A 
ATOM     22  C   UNL     1       1.643  -1.724  -3.643  0.00  0.00    +0.028 A 
ATOM     23  C   UNL     1       2.345  -2.080  -4.779  0.00  0.00    +0.022 A 
ATOM     24  C   UNL     1       2.352  -1.244  -5.882  0.00  0.00    +0.045 A 
ATOM     25  C   UNL     1       1.657  -0.048  -5.853  0.00  0.00    +0.067 A 
ATOM     26  C   UNL     1       0.946   0.312  -4.719  0.00  0.00    +0.139 A 
ATOM     27 CL   UNL     1       3.236  -1.696  -7.306  0.00  0.00    -0.083 Cl
BRANCH  26  28
ATOM     28  O   UNL     1       0.257   1.484  -4.691  0.00  0.00    -0.505 OA
ATOM     29  H   UNL     1       0.773   2.236  -4.370  0.00  0.00    +0.292 HD
ENDBRANCH  26  28
ENDBRANCH  19  21
ENDBRANCH   2  17
TORSDOF 4
