REMARK  Name = ZINC57840061
REMARK  6 active torsions:
REMARK  status: ('A' for Active; 'I' for Inactive)
REMARK    1  A    between atoms: C_1  and  C_2
REMARK    2  A    between atoms: C_2  and  C_3
REMARK    3  A    between atoms: C_3  and  C_13
REMARK    4  A    between atoms: N_6  and  C_10
REMARK    5  A    between atoms: C_10  and  C_11
REMARK    6  A    between atoms: C_11  and  N_12
REMARK                            x       y       z     vdW  Elec       q    Type
REMARK                         _______ _______ _______ _____ _____    ______ ____
ROOT
ATOM      1  C   UNL     1       0.718  -0.497  -1.257  0.00  0.00    +0.138 C 
ATOM      2  C   UNL     1       2.144   0.016  -1.295  0.00  0.00    +0.251 C 
ATOM      3  O   UNL     1       3.025  -0.210  -0.494  0.00  0.00    -0.272 OA
ATOM      4  N   UNL     1       2.228   0.775  -2.405  0.00  0.00    -0.226 N 
ATOM      5  C   UNL     1       1.066   0.812  -3.067  0.00  0.00    +0.310 C 
ATOM      6  O   UNL     1       0.895   1.432  -4.099  0.00  0.00    -0.252 OA
ATOM      7  N   UNL     1       0.107   0.087  -2.463  0.00  0.00    -0.281 N 
ATOM      8  H   UNL     1      -0.807  -0.029  -2.764  0.00  0.00    +0.152 HD
ENDROOT
BRANCH   1   9
ATOM      9  C   UNL     1       0.691  -2.003  -1.325  0.00  0.00    -0.015 A 
ATOM     10  C   UNL     1       0.664  -2.747  -0.160  0.00  0.00    +0.007 A 
ATOM     11  C   UNL     1       0.638  -4.127  -0.222  0.00  0.00    +0.015 A 
ATOM     12  C   UNL     1       0.640  -4.764  -1.449  0.00  0.00    +0.018 A 
ATOM     13  C   UNL     1       0.668  -4.020  -2.615  0.00  0.00    +0.015 A 
ATOM     14  C   UNL     1       0.688  -2.639  -2.552  0.00  0.00    +0.007 A 
ATOM     15 BR   UNL     1       0.607  -6.653  -1.534  0.00  0.00    -0.050 Br
ENDBRANCH   1   9
BRANCH   1  17
ATOM     16  C   UNL     1      -0.019   1.526   0.010  0.00  0.00    +0.007 C 
ATOM     17  C   UNL     1       0.002  -0.004   0.002  0.00  0.00    +0.037 C 
ENDBRANCH   1  17
BRANCH   4  18
ATOM     18  C   UNL     1       3.442   1.474  -2.834  0.00  0.00    +0.098 C 
BRANCH  18  19
ATOM     19  C   UNL     1       4.263   0.558  -3.746  0.00  0.00    -0.067 C 
BRANCH  19  20
ATOM     20  N   UNL     1       5.480   1.259  -4.176  0.00  0.00    +0.379 N 
ATOM     21  H   UNL     1       5.226   2.095  -4.680  0.00  0.00    -0.090 HD
ATOM     22  H   UNL     1       6.029   1.507  -3.366  0.00  0.00    -0.090 HD
ATOM     23  H   UNL     1       6.021   0.655  -4.777  0.00  0.00    -0.090 HD
ENDBRANCH  19  20
ENDBRANCH  18  19
ENDBRANCH   4  18
TORSDOF 5
