REMARK  Name = ZINC48445151
REMARK  6 active torsions:
REMARK  status: ('A' for Active; 'I' for Inactive)
REMARK    1  A    between atoms: C_1  and  C_2
REMARK    2  A    between atoms: C_2  and  O_3
REMARK    3  A    between atoms: O_3  and  C_4
REMARK    4  A    between atoms: N_6  and  C_7
REMARK    5  A    between atoms: N_12  and  S_14
REMARK    6  A    between atoms: S_14  and  C_17
REMARK                            x       y       z     vdW  Elec       q    Type
REMARK                         _______ _______ _______ _____ _____    ______ ____
ROOT
ATOM      1  C   UNL     1       1.509  -3.748  -2.597  0.00  0.00    +0.092 C 
ATOM      2  C   UNL     1       2.740  -4.258  -1.844  0.00  0.00    +0.025 C 
ATOM      3  C   UNL     1       2.842  -5.778  -1.999  0.00  0.00    +0.019 C 
ATOM      4  C   UNL     1       3.003  -6.126  -3.482  0.00  0.00    +0.109 C 
ATOM      5  N   UNL     1       1.899  -5.515  -4.235  0.00  0.00    -0.174 NA
ATOM      6  C   UNL     1       1.655  -4.074  -4.087  0.00  0.00    +0.131 C 
ENDROOT
BRANCH   1   9
ATOM      7  C   UNL     1       0.776  -1.798  -1.335  0.00  0.00    +0.401 C 
ATOM      8  O   UNL     1       0.312  -2.549  -0.500  0.00  0.00    -0.226 OA
ATOM      9  N   UNL     1       1.395  -2.298  -2.422  0.00  0.00    -0.277 N 
ATOM     10  H   UNL     1       1.765  -1.699  -3.088  0.00  0.00    +0.152 HD
BRANCH   7  11
ATOM     11  O   UNL     1       0.671  -0.465  -1.174  0.00  0.00    -0.451 OA
BRANCH  11  13
ATOM     12  C   UNL     1      -0.019   1.526   0.010  0.00  0.00    +0.048 C 
ATOM     13  C   UNL     1       0.002  -0.004   0.002  0.00  0.00    +0.230 C 
ENDBRANCH  11  13
ENDBRANCH   7  11
ENDBRANCH   1   9
BRANCH   5  14
ATOM     14  S   UNL     1       0.947  -6.434  -5.230  0.00  0.00    +0.067 S 
ATOM     15  O   UNL     1       0.391  -5.547  -6.192  0.00  0.00    -0.152 OA
ATOM     16  O   UNL     1       1.719  -7.569  -5.597  0.00  0.00    -0.152 OA
BRANCH  14  17
ATOM     17  C   UNL     1      -0.398  -7.031  -4.260  0.00  0.00    +0.144 A 
ATOM     18  C   UNL     1      -1.612  -6.468  -4.047  0.00  0.00    +0.037 A 
ATOM     19  C   UNL     1      -2.522  -7.124  -3.239  0.00  0.00    +0.025 A 
ATOM     20  C   UNL     1      -2.172  -8.311  -2.684  0.00  0.00    +0.057 A 
ATOM     21  S   UNL     1      -0.516  -8.538  -3.311  0.00  0.00    -0.062 S 
ATOM     22 BR   UNL     1      -3.180  -9.438  -1.548  0.00  0.00    -0.043 Br
ENDBRANCH  14  17
ENDBRANCH   5  14
TORSDOF 5
