REMARK  Name = ZINC03624828
REMARK  12 active torsions:
REMARK  status: ('A' for Active; 'I' for Inactive)
REMARK    1  A    between atoms: C_1  and  C_2
REMARK    2  A    between atoms: C_2  and  C_3
REMARK    3  A    between atoms: C_3  and  C_4
REMARK    4  A    between atoms: C_4  and  N_5
REMARK    5  A    between atoms: C_11  and  C_25
REMARK    6  A    between atoms: C_13  and  O_24
REMARK    7  A    between atoms: C_15  and  O_22
REMARK    8  A    between atoms: C_15  and  O_23
REMARK    9  A    between atoms: C_28  and  O_33
REMARK   10  A    between atoms: C_29  and  O_31
REMARK   11  A    between atoms: O_31  and  C_32
REMARK   12  A    between atoms: O_33  and  C_34
REMARK                            x       y       z     vdW  Elec       q    Type
REMARK                         _______ _______ _______ _____ _____    ______ ____
ROOT
ATOM      1  N   UNL     1       2.880   1.262  -7.062  0.00  0.00    -0.274 N 
ATOM      2  C   UNL     1       2.850  -0.004  -7.623  0.00  0.00    +0.288 C 
ATOM      3  O   UNL     1       2.524  -0.289  -8.757  0.00  0.00    -0.266 OA
ATOM      4  C   UNL     1       3.306  -0.965  -6.538  0.00  0.00    +0.249 C 
ATOM      5  O   UNL     1       3.890  -2.030  -6.632  0.00  0.00    -0.282 OA
ATOM      6  C   UNL     1       2.867  -0.279  -5.397  0.00  0.00    +0.082 C 
ATOM      7  C   UNL     1       2.082   0.153  -4.364  0.00  0.00    +0.141 C 
ATOM      8  O   UNL     1       1.999   1.536  -4.313  0.00  0.00    -0.453 OA
ATOM      9  C   UNL     1       3.354   1.891  -4.554  0.00  0.00    +0.269 C 
ATOM     10  C   UNL     1       3.565   0.987  -5.803  0.00  0.00    +0.198 C 
ATOM     11  C   UNL     1       5.033   1.282  -5.985  0.00  0.00    +0.226 C 
ATOM     12  C   UNL     1       4.966   2.818  -5.905  0.00  0.00    +0.023 A 
ATOM     13  C   UNL     1       3.841   3.179  -5.139  0.00  0.00    +0.034 A 
ATOM     14  C   UNL     1       3.505   4.504  -5.009  0.00  0.00    +0.010 A 
ATOM     15  C   UNL     1       4.302   5.484  -5.572  0.00  0.00    +0.000 A 
ATOM     16  C   UNL     1       5.443   5.132  -6.269  0.00  0.00    +0.000 A 
ATOM     17  C   UNL     1       5.771   3.798  -6.433  0.00  0.00    +0.009 A 
ENDROOT
BRANCH   7  18
ATOM     18  C   UNL     1       1.400  -0.745  -3.420  0.00  0.00    +0.021 A 
ATOM     19  C   UNL     1       1.535  -2.133  -3.549  0.00  0.00    +0.015 A 
ATOM     20  C   UNL     1       0.895  -2.971  -2.664  0.00  0.00    +0.050 A 
ATOM     21  C   UNL     1       0.116  -2.445  -1.642  0.00  0.00    +0.162 A 
ATOM     22  C   UNL     1      -0.023  -1.063  -1.507  0.00  0.00    +0.162 A 
ATOM     23  C   UNL     1       0.610  -0.215  -2.393  0.00  0.00    +0.061 A 
BRANCH  22  24
ATOM     24  O   UNL     1      -0.787  -0.552  -0.504  0.00  0.00    -0.491 OA
ATOM     25  C   UNL     1      -0.886   0.871  -0.425  0.00  0.00    +0.277 C 
ENDBRANCH  22  24
BRANCH  21  26
ATOM     26  O   UNL     1      -0.513  -3.277  -0.773  0.00  0.00    -0.491 OA
ATOM     27  C   UNL     1      -0.327  -4.680  -0.969  0.00  0.00    +0.277 C 
ENDBRANCH  21  26
ENDBRANCH   7  18
BRANCH  11  28
ATOM     28  O   UNL     1       5.816   0.734  -4.923  0.00  0.00    -0.359 OA
ATOM     29  H   UNL     1       6.764   0.904  -5.005  0.00  0.00    +0.213 HD
ENDBRANCH  11  28
BRANCH  11  30
ATOM     30  O   UNL     1       5.504   0.841  -7.260  0.00  0.00    -0.359 OA
ATOM     31  H   UNL     1       6.443   1.014  -7.414  0.00  0.00    +0.213 HD
ENDBRANCH  11  30
BRANCH   9  32
ATOM     32  O   UNL     1       4.197   1.477  -3.477  0.00  0.00    -0.350 OA
ATOM     33  H   UNL     1       4.101   2.010  -2.676  0.00  0.00    +0.214 HD
ENDBRANCH   9  32
BRANCH   1  34
ATOM     34  C   UNL     1       2.364   2.528  -7.587  0.00  0.00    +0.109 C 
BRANCH  34  35
ATOM     35  C   UNL     1       0.944   2.757  -7.064  0.00  0.00    +0.019 C 
BRANCH  35  37
ATOM     36  C   UNL     1      -1.062   4.241  -7.192  0.00  0.00    +0.004 C 
ATOM     37  C   UNL     1       0.358   4.012  -7.714  0.00  0.00    -0.002 C 
ENDBRANCH  35  37
ENDBRANCH  34  35
ENDBRANCH   1  34
TORSDOF 9
