REMARK  Name = ZINC08938934
REMARK  7 active torsions:
REMARK  status: ('A' for Active; 'I' for Inactive)
REMARK    1  A    between atoms: C_1  and  C_2
REMARK    2  A    between atoms: C_7  and  N_8
REMARK    3  A    between atoms: C_9  and  C_11
REMARK    4  A    between atoms: C_11  and  C_12
REMARK    5  A    between atoms: C_12  and  C_13
REMARK    6  A    between atoms: C_13  and  C_14
REMARK    7  A    between atoms: C_14  and  C_15
REMARK                            x       y       z     vdW  Elec       q    Type
REMARK                         _______ _______ _______ _____ _____    ______ ____
ROOT
ATOM      1  C   UNL     1      -0.738   1.565   1.267  0.00  0.00    +0.009 C 
ENDROOT
BRANCH   1   2
ATOM      2  C   UNL     1      -0.021   1.073   0.008  0.00  0.00    +0.096 C 
BRANCH   2   4
ATOM      3  N   UNL     1      -0.288   1.272  -2.443  0.00  0.00    -0.285 N 
ATOM      4  C   UNL     1      -0.743   1.582  -1.213  0.00  0.00    +0.217 C 
ATOM      5  O   UNL     1      -1.734   2.271  -1.088  0.00  0.00    -0.275 OA
ATOM      6  H   UNL     1       0.547   0.790  -2.544  0.00  0.00    +0.155 HD
BRANCH   3  13
ATOM      7  C   UNL     1       1.108   1.601  -4.901  0.00  0.00    +0.045 C 
ATOM      8  C   UNL     1      -0.380   1.818  -4.794  0.00  0.00    -0.029 A 
ATOM      9  C   UNL     1      -1.107   2.182  -5.910  0.00  0.00    +0.005 A 
ATOM     10  C   UNL     1      -2.471   2.386  -5.812  0.00  0.00    +0.000 A 
ATOM     11  C   UNL     1      -3.112   2.222  -4.598  0.00  0.00    +0.002 A 
ATOM     12  C   UNL     1      -2.392   1.853  -3.479  0.00  0.00    +0.023 A 
ATOM     13  C   UNL     1      -1.022   1.646  -3.575  0.00  0.00    +0.036 A 
ENDBRANCH   3  13
ENDBRANCH   2   4
ENDBRANCH   1   2
BRANCH   1  14
ATOM     14  C   UNL     1      -0.004   1.048   2.506  0.00  0.00    +0.002 C 
BRANCH  14  15
ATOM     15  C   UNL     1      -0.721   1.540   3.765  0.00  0.00    +0.016 C 
BRANCH  15  16
ATOM     16  C   UNL     1       0.012   1.023   5.005  0.00  0.00    +0.069 C 
ATOM     17  C   UNL     1      -0.732   1.384   6.288  0.00  0.00    +0.108 C 
ATOM     18  C   UNL     1       0.305   1.192   7.437  0.00  0.00    +0.105 C 
ATOM     19  C   UNL     1       1.495   2.075   7.162  0.00  0.00    +0.093 C 
ATOM     20  S   UNL     1       1.579   1.969   5.313  0.00  0.00    -0.154 S 
ATOM     21  N   UNL     1      -0.552   1.243   8.584  0.00  0.00    -0.294 N 
ATOM     22  C   UNL     1      -1.735   0.696   8.167  0.00  0.00    +0.300 C 
ATOM     23  O   UNL     1      -2.625   0.358   8.924  0.00  0.00    -0.253 OA
ATOM     24  N   UNL     1      -1.793   0.559   6.822  0.00  0.00    -0.294 N 
ATOM     25  H   UNL     1      -0.340   1.590   9.464  0.00  0.00    +0.151 HD
ATOM     26  H   UNL     1      -2.427   0.022   6.322  0.00  0.00    +0.151 HD
ENDBRANCH  15  16
ENDBRANCH  14  15
ENDBRANCH   1  14
TORSDOF 6
