REMARK  Name = ZINC36499688
REMARK  16 active torsions:
REMARK  status: ('A' for Active; 'I' for Inactive)
REMARK    1  A    between atoms: C_1  and  C_2
REMARK    2  A    between atoms: C_2  and  C_3
REMARK    3  A    between atoms: C_2  and  C_4
REMARK    4  A    between atoms: C_2  and  C_5
REMARK    5  A    between atoms: C_5  and  C_6
REMARK    6  A    between atoms: C_6  and  C_7
REMARK    7  A    between atoms: C_6  and  C_8
REMARK    8  A    between atoms: C_6  and  N_9
REMARK    9  A    between atoms: C_10  and  C_12
REMARK   10  A    between atoms: C_12  and  C_14
REMARK   11  A    between atoms: C_12  and  N_21
REMARK   12  A    between atoms: C_19  and  O_20
REMARK   13  A    between atoms: N_21  and  C_22
REMARK   14  A    between atoms: C_22  and  C_23
REMARK   15  A    between atoms: C_28  and  C_30
REMARK   16  A    between atoms: C_32  and  N_37
REMARK                            x       y       z     vdW  Elec       q    Type
REMARK                         _______ _______ _______ _____ _____    ______ ____
ROOT
ATOM      1  C   UNL     1       4.487  -2.103  -7.828  0.00  0.00    +0.196 C 
ENDROOT
BRANCH   1   2
ATOM      2  C   UNL     1       4.657  -1.943  -9.317  0.00  0.00    +0.023 A 
ATOM      3  C   UNL     1       5.323  -0.843  -9.822  0.00  0.00    +0.009 A 
ATOM      4  C   UNL     1       5.478  -0.695 -11.188  0.00  0.00    +0.001 A 
ATOM      5  C   UNL     1       4.968  -1.647 -12.052  0.00  0.00    +0.004 A 
ATOM      6  C   UNL     1       4.302  -2.749 -11.551  0.00  0.00    +0.046 A 
ATOM      7  C   UNL     1       4.149  -2.902 -10.180  0.00  0.00    +0.122 A 
BRANCH   7   8
ATOM      8  O   UNL     1       3.499  -3.988  -9.685  0.00  0.00    -0.506 OA
ATOM      9  H   UNL     1       2.560  -3.838  -9.510  0.00  0.00    +0.292 HD
ENDBRANCH   7   8
ENDBRANCH   1   2
BRANCH   1  11
ATOM     10  N   UNL     1       3.840   0.226  -7.304  0.00  0.00    -0.308 N 
ATOM     11  C   UNL     1       4.725  -0.778  -7.150  0.00  0.00    +0.239 C 
ATOM     12  O   UNL     1       5.713  -0.616  -6.465  0.00  0.00    -0.273 OA
ATOM     13  H   UNL     1       3.021   0.079  -7.802  0.00  0.00    +0.149 HD
BRANCH  10  14
ATOM     14  C   UNL     1       4.114   1.541  -6.719  0.00  0.00    +0.030 C 
ATOM     15  C   UNL     1       5.454   2.063  -7.244  0.00  0.00    +0.031 C 
ATOM     16  C   UNL     1       4.176   1.419  -5.196  0.00  0.00    +0.031 C 
BRANCH  14  17
ATOM     17  C   UNL     1       3.000   2.515  -7.108  0.00  0.00    +0.031 C 
BRANCH  17  19
ATOM     18  C   UNL     1       1.302   1.198  -8.382  0.00  0.00    +0.010 C 
ATOM     19  C   UNL     1       2.481   2.165  -8.504  0.00  0.00    -0.036 C 
ATOM     20  C   UNL     1       3.599   1.506  -9.314  0.00  0.00    +0.010 C 
ATOM     21  C   UNL     1       2.022   3.441  -9.213  0.00  0.00    +0.010 C 
ENDBRANCH  17  19
ENDBRANCH  14  17
ENDBRANCH  10  14
ENDBRANCH   1  11
BRANCH   1  22
ATOM     22  N   UNL     1       5.452  -3.086  -7.330  0.00  0.00    -0.274 N 
ATOM     23  C   UNL     1       5.017  -4.229  -6.763  0.00  0.00    +0.252 C 
ATOM     24  O   UNL     1       3.830  -4.493  -6.759  0.00  0.00    -0.270 OA
BRANCH  23  25
ATOM     25  C   UNL     1       5.982  -5.160  -6.147  0.00  0.00    +0.086 A 
ATOM     26  C   UNL     1       6.872  -4.706  -5.171  0.00  0.00    +0.049 A 
ATOM     27  C   UNL     1       7.770  -5.581  -4.599  0.00  0.00    +0.127 A 
ATOM     28  C   UNL     1       7.795  -6.910  -4.988  0.00  0.00    +0.036 A 
ATOM     29  C   UNL     1       6.921  -7.372  -5.952  0.00  0.00    +0.054 A 
ATOM     30  C   UNL     1       6.006  -6.507  -6.534  0.00  0.00    +0.191 A 
ATOM     31  O   UNL     1       5.143  -6.961  -7.476  0.00  0.00    -0.287 OA
BRANCH  27  32
ATOM     32  N   UNL     1       8.713  -5.098  -3.566  0.00  0.00    +0.056 N 
ATOM     33  O   UNL     1       8.694  -3.938  -3.224  0.00  0.00    -0.126 OA
ATOM     34  O   UNL     1       9.502  -5.863  -3.062  0.00  0.00    -0.126 OA
ENDBRANCH  27  32
ENDBRANCH  23  25
BRANCH  22  35
ATOM     35  C   UNL     1       6.889  -2.828  -7.447  0.00  0.00    +0.183 C 
BRANCH  35  36
ATOM     36  C   UNL     1       7.376  -3.300  -8.793  0.00  0.00    +0.122 A 
ATOM     37  C   UNL     1       7.417  -2.564  -9.918  0.00  0.00    +0.046 A 
ATOM     38  C   UNL     1       7.939  -3.397 -10.934  0.00  0.00    +0.041 A 
ATOM     39  C   UNL     1       8.185  -4.593 -10.370  0.00  0.00    +0.195 A 
ATOM     40  O   UNL     1       7.848  -4.527  -9.071  0.00  0.00    -0.466 OA
ENDBRANCH  35  36
ENDBRANCH  22  35
ENDBRANCH   1  22
TORSDOF 11
