REMARK  Name = ZINC67205567
REMARK  7 active torsions:
REMARK  status: ('A' for Active; 'I' for Inactive)
REMARK    1  A    between atoms: C_1  and  C_2
REMARK    2  A    between atoms: C_2  and  C_4
REMARK    3  A    between atoms: C_2  and  C_21
REMARK    4  A    between atoms: C_4  and  C_5
REMARK    5  A    between atoms: C_9  and  N_18
REMARK    6  A    between atoms: N_18  and  C_19
REMARK    7  A    between atoms: N_18  and  C_20
REMARK                            x       y       z     vdW  Elec       q    Type
REMARK                         _______ _______ _______ _____ _____    ______ ____
ROOT
ATOM      1  C   UNL     1      -0.077  -0.103  -2.474  0.00  0.00    +0.220 C 
ATOM      2  O   UNL     1       0.596  -0.363  -1.500  0.00  0.00    -0.275 OA
ATOM      3  N   UNL     1       0.314  -0.521  -3.695  0.00  0.00    -0.273 N 
ATOM      4  C   UNL     1      -0.446  -0.141  -4.893  0.00  0.00    +0.099 C 
ATOM      5  C   UNL     1      -0.602  -1.394  -5.766  0.00  0.00    -0.047 C 
ATOM      6  C   UNL     1       0.783  -1.857  -6.216  0.00  0.00    +0.023 C 
ATOM      7  C   UNL     1       1.707  -1.984  -5.034  0.00  0.00    -0.027 A 
ATOM      8  C   UNL     1       1.455  -1.322  -3.842  0.00  0.00    +0.039 A 
ATOM      9  C   UNL     1       2.333  -1.452  -2.772  0.00  0.00    +0.024 A 
ATOM     10  C   UNL     1       3.461  -2.239  -2.896  0.00  0.00    +0.002 A 
ATOM     11  C   UNL     1       3.715  -2.897  -4.085  0.00  0.00    +0.000 A 
ATOM     12  C   UNL     1       2.837  -2.777  -5.149  0.00  0.00    +0.005 A 
ENDROOT
BRANCH   5  13
ATOM     13  N   UNL     1      -1.423  -1.075  -6.941  0.00  0.00    +0.379 N 
ATOM     14  C   UNL     1      -1.571  -2.276  -7.775  0.00  0.00    -0.096 C 
ATOM     15  C   UNL     1      -2.749  -0.618  -6.503  0.00  0.00    -0.096 C 
ATOM     16  H   UNL     1      -0.976  -0.347  -7.477  0.00  0.00    -0.082 HD
ENDBRANCH   5  13
BRANCH   1  17
ATOM     17  C   UNL     1      -1.350   0.689  -2.321  0.00  0.00    +0.100 C 
BRANCH  17  19
ATOM     18  C   UNL     1      -1.902  -0.417  -0.150  0.00  0.00    +0.008 C 
ATOM     19  C   UNL     1      -1.630   0.923  -0.836  0.00  0.00    -0.002 C 
BRANCH  19  20
ATOM     20  C   UNL     1      -2.852   1.831  -0.683  0.00  0.00    -0.008 C 
ATOM     21  C   UNL     1      -2.620   3.242  -0.139  0.00  0.00    +0.004 C 
ATOM     22  C   UNL     1      -3.296   2.186   0.737  0.00  0.00    +0.004 C 
ENDBRANCH  19  20
ENDBRANCH  17  19
ENDBRANCH   1  17
TORSDOF 4
