REMARK  Name = ZINC38971360
REMARK  8 active torsions:
REMARK  status: ('A' for Active; 'I' for Inactive)
REMARK    1  A    between atoms: C_1  and  C_2
REMARK    2  A    between atoms: C_2  and  C_3
REMARK    3  A    between atoms: C_3  and  C_4
REMARK    4  A    between atoms: C_4  and  C_5
REMARK    5  A    between atoms: C_5  and  N_6
REMARK    6  A    between atoms: N_6  and  C_7
REMARK    7  A    between atoms: N_10  and  S_11
REMARK    8  A    between atoms: S_11  and  C_14
REMARK                            x       y       z     vdW  Elec       q    Type
REMARK                         _______ _______ _______ _____ _____    ______ ____
ROOT
ATOM      1  C   UNL     1       2.156  -4.500  -3.729  0.00  0.00    +0.217 C 
ATOM      2  C   UNL     1       1.269  -5.555  -4.350  0.00  0.00    +0.167 C 
ATOM      3  N   UNL     1       0.056  -5.265  -4.716  0.00  0.00    -0.111 NA
ATOM      4  N   UNL     1       1.753  -6.796  -4.519  0.00  0.00    -0.338 N 
ATOM      5  C   UNL     1       2.978  -7.115  -4.157  0.00  0.00    +0.064 A 
ATOM      6  C   UNL     1       3.456  -8.436  -4.349  0.00  0.00    +0.028 A 
ATOM      7  C   UNL     1       4.712  -8.769  -3.979  0.00  0.00    +0.002 A 
ATOM      8  C   UNL     1       5.600  -7.851  -3.395  0.00  0.00    +0.002 A 
ATOM      9  C   UNL     1       5.247  -6.566  -3.167  0.00  0.00    +0.027 A 
ATOM     10  C   UNL     1       3.895  -6.124  -3.542  0.00  0.00    +0.060 A 
ATOM     11  N   UNL     1       3.519  -4.893  -3.337  0.00  0.00    -0.362 N 
ATOM     12  H   UNL     1       4.124  -4.251  -2.935  0.00  0.00    +0.162 HD
ATOM     13  H   UNL     1       1.186  -7.475  -4.917  0.00  0.00    +0.167 HD
ENDROOT
BRANCH   3  14
ATOM     14  S   UNL     1      -0.905  -6.430  -5.396  0.00  0.00    +0.107 S 
ATOM     15  O   UNL     1      -0.316  -6.766  -6.644  0.00  0.00    -0.146 OA
ATOM     16  O   UNL     1      -1.149  -7.397  -4.383  0.00  0.00    -0.146 OA
BRANCH  14  17
ATOM     17  C   UNL     1      -2.458  -5.679  -5.758  0.00  0.00    +0.150 A 
ATOM     18  C   UNL     1      -2.859  -5.053  -6.891  0.00  0.00    +0.037 A 
ATOM     19  C   UNL     1      -4.139  -4.533  -6.952  0.00  0.00    +0.010 A 
ATOM     20  C   UNL     1      -4.954  -4.665  -5.877  0.00  0.00    +0.047 A 
ATOM     21  S   UNL     1      -3.912  -5.551  -4.730  0.00  0.00    -0.076 S 
ENDBRANCH  14  17
ENDBRANCH   3  14
BRANCH   1  22
ATOM     22  N   UNL     1       1.475  -3.990  -2.532  0.00  0.00    -0.291 NA
ATOM     23  H   UNL     1       1.902  -4.350  -1.692  0.00  0.00    +0.124 HD
BRANCH  22  24
ATOM     24  C   UNL     1       1.455  -2.521  -2.524  0.00  0.00    +0.083 C 
BRANCH  24  25
ATOM     25  C   UNL     1       0.739  -2.027  -1.265  0.00  0.00    +0.015 C 
BRANCH  25  26
ATOM     26  C   UNL     1       0.718  -0.497  -1.257  0.00  0.00    +0.001 C 
BRANCH  26  28
ATOM     27  C   UNL     1      -0.019   1.526   0.010  0.00  0.00    +0.004 C 
ATOM     28  C   UNL     1       0.002  -0.004   0.002  0.00  0.00    -0.003 C 
ENDBRANCH  26  28
ENDBRANCH  25  26
ENDBRANCH  24  25
ENDBRANCH  22  24
ENDBRANCH   1  22
TORSDOF 7
