REMARK  Name = ZINC09355303
REMARK  10 active torsions:
REMARK  status: ('A' for Active; 'I' for Inactive)
REMARK    1  A    between atoms: C_1  and  C_2
REMARK    2  A    between atoms: C_5  and  O_11
REMARK    3  A    between atoms: C_6  and  N_8
REMARK    4  A    between atoms: O_11  and  C_12
REMARK    5  A    between atoms: C_12  and  C_13
REMARK    6  A    between atoms: N_15  and  N_16
REMARK    7  A    between atoms: C_17  and  C_18
REMARK    8  A    between atoms: C_20  and  N_25
REMARK    9  A    between atoms: C_23  and  O_24
REMARK   10  A    between atoms: N_26  and  C_27
REMARK                            x       y       z     vdW  Elec       q    Type
REMARK                         _______ _______ _______ _____ _____    ______ ____
ROOT
ATOM      1  C   UNL     1       0.131 -10.718  -2.854  0.00  0.00    +0.038 A 
ATOM      2  C   UNL     1       0.142 -11.562  -3.962  0.00  0.00    +0.042 A 
ATOM      3  C   UNL     1       0.161 -12.946  -3.777  0.00  0.00    +0.087 A 
ATOM      4  C   UNL     1       0.169 -13.478  -2.482  0.00  0.00    +0.033 A 
ATOM      5  C   UNL     1       0.158 -12.641  -1.388  0.00  0.00    +0.048 A 
ATOM      6  C   UNL     1       0.145 -11.264  -1.561  0.00  0.00    +0.126 A 
ENDROOT
BRANCH   1   8
ATOM      7  N   UNL     1       0.105  -8.471  -2.006  0.00  0.00    -0.188 NA
ATOM      8  C   UNL     1       0.110  -9.256  -3.039  0.00  0.00    +0.142 C 
BRANCH   7  11
ATOM      9  C   UNL     1       0.081  -6.266  -1.108  0.00  0.00    +0.270 C 
ATOM     10  O   UNL     1       0.093  -6.736   0.010  0.00  0.00    -0.270 OA
ATOM     11  N   UNL     1       0.086  -7.081  -2.182  0.00  0.00    -0.204 N 
ATOM     12  H   UNL     1       0.076  -6.705  -3.076  0.00  0.00    +0.177 HD
BRANCH   9  13
ATOM     13  C   UNL     1       0.060  -4.771  -1.298  0.00  0.00    +0.326 C 
BRANCH  13  14
ATOM     14  O   UNL     1       0.058  -4.129  -0.021  0.00  0.00    -0.480 OA
BRANCH  14  19
ATOM     15  C   UNL     1      -0.018   1.503   0.010  0.00  0.00    +0.044 C 
ATOM     16  C   UNL     1       0.002  -0.004   0.002  0.00  0.00    -0.048 A 
ATOM     17  C   UNL     1       0.006  -0.688  -1.200  0.00  0.00    +0.007 A 
ATOM     18  C   UNL     1       0.025  -2.069  -1.210  0.00  0.00    +0.048 A 
ATOM     19  C   UNL     1       0.040  -2.770  -0.013  0.00  0.00    +0.151 A 
ATOM     20  C   UNL     1       0.037  -2.082   1.191  0.00  0.00    +0.168 A 
ATOM     21  C   UNL     1       0.023  -0.701   1.196  0.00  0.00    +0.039 A 
BRANCH  20  22
ATOM     22  N   UNL     1       0.053  -2.827   2.470  0.00  0.00    +0.060 N 
ATOM     23  O   UNL     1       0.050  -2.227   3.519  0.00  0.00    -0.126 OA
ATOM     24  O   UNL     1       0.069  -4.036   2.465  0.00  0.00    -0.126 OA
ENDBRANCH  20  22
ENDBRANCH  14  19
ENDBRANCH  13  14
ENDBRANCH   9  13
ENDBRANCH   7  11
ENDBRANCH   1   8
BRANCH   6  25
ATOM     25  O   UNL     1       0.140 -10.445  -0.479  0.00  0.00    -0.506 OA
ATOM     26  H   UNL     1      -0.745 -10.219  -0.161  0.00  0.00    +0.292 HD
ENDBRANCH   6  25
BRANCH   3  27
ATOM     27  N   UNL     1       0.172 -13.779  -4.858  0.00  0.00    -0.149 NA
ATOM     28  N   UNL     1       0.189 -15.057  -4.687  0.00  0.00    -0.149 NA
BRANCH  28  29
ATOM     29  C   UNL     1       0.200 -15.889  -5.766  0.00  0.00    +0.094 A 
ATOM     30  C   UNL     1       0.197 -15.375  -7.059  0.00  0.00    +0.030 A 
ATOM     31  C   UNL     1       0.208 -16.225  -8.155  0.00  0.00    +0.003 A 
ATOM     32  C   UNL     1       0.221 -17.579  -8.015  0.00  0.00    +0.008 A 
ATOM     33  C   UNL     1       0.224 -18.168  -6.739  0.00  0.00    -0.016 A 
ATOM     34  C   UNL     1       0.220 -17.340  -5.590  0.00  0.00    +0.009 A 
ATOM     35  C   UNL     1       0.229 -17.923  -4.317  0.00  0.00    +0.010 A 
ATOM     36  C   UNL     1       0.247 -19.281  -4.198  0.00  0.00    +0.001 A 
ATOM     37  C   UNL     1       0.258 -20.098  -5.326  0.00  0.00    +0.001 A 
ATOM     38  C   UNL     1       0.237 -19.564  -6.579  0.00  0.00    +0.008 A 
ENDBRANCH  28  29
ENDBRANCH   3  27
TORSDOF 9
