REMARK  Name = ZINC06042752
REMARK  9 active torsions:
REMARK  status: ('A' for Active; 'I' for Inactive)
REMARK    1  A    between atoms: C_1  and  C_2
REMARK    2  A    between atoms: C_2  and  C_3
REMARK    3  A    between atoms: C_3  and  C_4
REMARK    4  A    between atoms: C_4  and  O_5
REMARK    5  A    between atoms: O_5  and  C_6
REMARK    6  A    between atoms: C_10  and  C_12
REMARK    7  A    between atoms: C_14  and  C_24
REMARK    8  A    between atoms: C_19  and  C_22
REMARK    9  A    between atoms: N_26  and  N_27
REMARK                            x       y       z     vdW  Elec       q    Type
REMARK                         _______ _______ _______ _____ _____    ______ ____
ROOT
ATOM      1  C   UNL     1      -0.076   5.330   0.048  0.00  0.00    +0.073 A 
ATOM      2  C   UNL     1      -1.312   5.995   0.064  0.00  0.00    +0.042 A 
ATOM      3  C   UNL     1      -1.343   7.380   0.054  0.00  0.00    +0.049 A 
ATOM      4  C   UNL     1      -0.104   8.072   0.028  0.00  0.00    +0.013 A 
ATOM      5  C   UNL     1      -0.054   9.472   0.017  0.00  0.00    +0.012 A 
ATOM      6  C   UNL     1       1.153  10.104  -0.008  0.00  0.00    +0.021 A 
ATOM      7  C   UNL     1       2.341   9.375  -0.023  0.00  0.00    +0.046 A 
ATOM      8  C   UNL     1       2.329   8.013  -0.012  0.00  0.00    -0.006 A 
ATOM      9  C   UNL     1       1.101   7.326   0.013  0.00  0.00    +0.077 A 
ATOM     10  N   UNL     1       1.064   5.992   0.029  0.00  0.00    -0.246 NA
ATOM     11  C   UNL     1       3.626   7.245  -0.028  0.00  0.00    +0.047 C 
ATOM     12 CL   UNL     1       3.860  10.216  -0.054  0.00  0.00    -0.083 Cl
ENDROOT
BRANCH   1  17
ATOM     13  C   UNL     1       1.182   1.784   0.056  0.00  0.00    +0.121 A 
ATOM     14  C   UNL     1      -0.012   1.076   0.082  0.00  0.00    +0.045 A 
ATOM     15  C   UNL     1      -1.219   1.748   0.091  0.00  0.00    +0.004 A 
ATOM     16  C   UNL     1      -1.245   3.129   0.086  0.00  0.00    +0.010 A 
ATOM     17  C   UNL     1      -0.051   3.848   0.059  0.00  0.00    +0.004 A 
ATOM     18  C   UNL     1       1.166   3.169   0.044  0.00  0.00    +0.055 A 
BRANCH  13  19
ATOM     19  O   UNL     1       2.367   1.119   0.041  0.00  0.00    -0.492 OA
BRANCH  19  20
ATOM     20  C   UNL     1       2.309  -0.309   0.055  0.00  0.00    +0.229 C 
BRANCH  20  21
ATOM     21  C   UNL     1       3.730  -0.877   0.036  0.00  0.00    +0.041 C 
BRANCH  21  23
ATOM     22  C   UNL     1       5.088  -2.974   0.031  0.00  0.00    +0.004 C 
ATOM     23  C   UNL     1       3.668  -2.406   0.050  0.00  0.00    -0.000 C 
ENDBRANCH  21  23
ENDBRANCH  20  21
ENDBRANCH  19  20
ENDBRANCH  13  19
ENDBRANCH   1  17
BRANCH   3  24
ATOM     24  C   UNL     1      -2.627   8.115   0.070  0.00  0.00    +0.258 C 
ATOM     25  O   UNL     1      -2.632   9.326   0.169  0.00  0.00    -0.269 OA
ATOM     26  N   UNL     1      -3.790   7.441  -0.025  0.00  0.00    -0.250 N 
ATOM     27  H   UNL     1      -3.785   6.474  -0.104  0.00  0.00    +0.169 HD
BRANCH  26  28
ATOM     28  N   UNL     1      -4.975   8.120  -0.010  0.00  0.00    -0.254 NA
ATOM     29  H   UNL     1      -5.002   8.817  -0.738  0.00  0.00    +0.140 HD
ATOM     30  H   UNL     1      -5.756   7.485  -0.088  0.00  0.00    +0.140 HD
ENDBRANCH  26  28
ENDBRANCH   3  24
TORSDOF 7
