REMARK  Name = ZINC03770069
REMARK  11 active torsions:
REMARK  status: ('A' for Active; 'I' for Inactive)
REMARK    1  A    between atoms: C_1  and  C_2
REMARK    2  A    between atoms: C_5  and  N_9
REMARK    3  A    between atoms: C_6  and  C_8
REMARK    4  A    between atoms: C_10  and  C_12
REMARK    5  A    between atoms: C_17  and  C_20
REMARK    6  A    between atoms: C_20  and  C_21
REMARK    7  A    between atoms: C_21  and  O_23
REMARK    8  A    between atoms: O_23  and  C_24
REMARK    9  A    between atoms: C_25  and  N_38
REMARK   10  A    between atoms: C_26  and  C_36
REMARK   11  A    between atoms: C_27  and  C_29
REMARK                            x       y       z     vdW  Elec       q    Type
REMARK                         _______ _______ _______ _____ _____    ______ ____
ROOT
ATOM      1  C   UNL     1       0.881   4.382   3.925  0.00  0.00    +0.055 C 
ATOM      2  C   UNL     1       0.445   3.303   3.224  0.00  0.00    +0.086 C 
ATOM      3  N   UNL     1       0.596   1.992   3.635  0.00  0.00    -0.220 N 
ATOM      4  C   UNL     1       0.120   0.999   2.853  0.00  0.00    +0.239 C 
ATOM      5  O   UNL     1       0.230  -0.165   3.175  0.00  0.00    -0.274 OA
ATOM      6  C   UNL     1      -0.555   1.394   1.560  0.00  0.00    +0.150 C 
ATOM      7  S   UNL     1      -0.405   3.220   1.657  0.00  0.00    -0.096 S 
ATOM      8  C   UNL     1       1.240   1.736   4.855  0.00  0.00    +0.110 C 
ATOM      9  C   UNL     1       1.729   2.699   5.665  0.00  0.00    +0.077 C 
ATOM     10  C   UNL     1       1.582   4.148   5.247  0.00  0.00    +0.100 C 
ENDROOT
BRANCH  10  11
ATOM     11  C   UNL     1       0.815   4.873   6.322  0.00  0.00    -0.034 A 
ATOM     12  C   UNL     1      -0.510   4.556   6.559  0.00  0.00    +0.007 A 
ATOM     13  C   UNL     1      -1.213   5.217   7.548  0.00  0.00    +0.038 A 
ATOM     14  C   UNL     1      -0.593   6.205   8.295  0.00  0.00    +0.123 A 
ATOM     15  C   UNL     1       0.732   6.526   8.053  0.00  0.00    +0.038 A 
ATOM     16  C   UNL     1       1.435   5.859   7.067  0.00  0.00    +0.007 A 
ATOM     17  F   UNL     1      -1.281   6.855   9.259  0.00  0.00    -0.205 F 
ENDBRANCH  10  11
BRANCH   1  19
ATOM     18  N   UNL     1       1.127   6.743   4.143  0.00  0.00    -0.281 N 
ATOM     19  C   UNL     1       0.687   5.684   3.434  0.00  0.00    +0.248 C 
ATOM     20  O   UNL     1       0.122   5.856   2.368  0.00  0.00    -0.270 OA
ATOM     21  H   UNL     1       1.522   6.610   5.018  0.00  0.00    +0.155 HD
BRANCH  18  26
ATOM     22  C   UNL     1       0.663  11.976   2.003  0.00  0.00    +0.044 C 
ATOM     23  C   UNL     1       0.786  10.585   2.571  0.00  0.00    -0.050 A 
ATOM     24  C   UNL     1      -0.194   9.645   2.313  0.00  0.00    +0.005 A 
ATOM     25  C   UNL     1      -0.082   8.368   2.827  0.00  0.00    +0.024 A 
ATOM     26  C   UNL     1       1.012   8.033   3.615  0.00  0.00    +0.037 A 
ATOM     27  C   UNL     1       1.995   8.979   3.872  0.00  0.00    -0.029 A 
ATOM     28  C   UNL     1       1.879  10.253   3.350  0.00  0.00    +0.008 A 
ATOM     29  C   UNL     1       3.187   8.618   4.721  0.00  0.00    +0.045 C 
ENDBRANCH  18  26
ENDBRANCH   1  19
BRANCH   8  30
ATOM     30  N   UNL     1       1.382   0.428   5.249  0.00  0.00    -0.345 N 
ATOM     31  H   UNL     1       1.334   0.196   6.190  0.00  0.00    +0.144 HD
ATOM     32  H   UNL     1       1.530  -0.265   4.586  0.00  0.00    +0.144 HD
ENDBRANCH   8  30
BRANCH   9  33
ATOM     33  C   UNL     1       2.375   2.357   6.897  0.00  0.00    +0.099 C 
ATOM     34  N   UNL     1       2.887   2.086   7.874  0.00  0.00    -0.191 NA
ENDBRANCH   9  33
BRANCH   6  35
ATOM     35  C   UNL     1       0.197   0.839   0.349  0.00  0.00    +0.144 C 
BRANCH  35  36
ATOM     36  C   UNL     1      -0.524   1.233  -0.914  0.00  0.00    +0.308 C 
ATOM     37  O   UNL     1      -1.536   1.889  -0.852  0.00  0.00    -0.251 OA
BRANCH  36  38
ATOM     38  O   UNL     1      -0.043   0.853  -2.108  0.00  0.00    -0.468 OA
ATOM     39  C   UNL     1      -0.789   1.268  -3.282  0.00  0.00    +0.280 C 
ENDBRANCH  36  38
ENDBRANCH  35  36
ENDBRANCH   6  35
TORSDOF 8
