REMARK  Name = ZINC39949009
REMARK  6 active torsions:
REMARK  status: ('A' for Active; 'I' for Inactive)
REMARK    1  A    between atoms: C_1  and  C_2
REMARK    2  A    between atoms: C_2  and  O_3
REMARK    3  A    between atoms: O_3  and  C_4
REMARK    4  A    between atoms: C_4  and  C_6
REMARK    5  A    between atoms: C_8  and  N_17
REMARK    6  A    between atoms: N_17  and  C_18
REMARK                            x       y       z     vdW  Elec       q    Type
REMARK                         _______ _______ _______ _____ _____    ______ ____
ROOT
ATOM      1  N   UNL     1       1.307  -4.479  -3.846  0.00  0.00    -0.276 NA
ATOM      2  H   UNL     1       1.053  -3.791  -4.539  0.00  0.00    +0.125 HD
ENDROOT
BRANCH   1   3
ATOM      3  C   UNL     1       0.375  -5.614  -3.864  0.00  0.00    +0.237 C 
ATOM      4  C   UNL     1       1.106  -6.802  -4.446  0.00  0.00    +0.255 C 
ATOM      5  O   UNL     1       2.130  -7.207  -3.932  0.00  0.00    -0.272 OA
ATOM      6  N   UNL     1       0.612  -7.400  -5.532  0.00  0.00    -0.281 N 
ATOM      7  C   UNL     1      -0.500  -6.979  -6.110  0.00  0.00    +0.057 A 
ATOM      8  C   UNL     1      -0.996  -7.635  -7.259  0.00  0.00    +0.025 A 
ATOM      9  C   UNL     1      -2.133  -7.207  -7.856  0.00  0.00    +0.002 A 
ATOM     10  C   UNL     1      -2.874  -6.113  -7.382  0.00  0.00    +0.002 A 
ATOM     11  C   UNL     1      -2.490  -5.415  -6.290  0.00  0.00    +0.027 A 
ATOM     12  C   UNL     1      -1.262  -5.817  -5.585  0.00  0.00    +0.058 A 
ATOM     13  N   UNL     1      -0.859  -5.170  -4.531  0.00  0.00    -0.361 N 
ATOM     14  H   UNL     1      -1.361  -4.413  -4.193  0.00  0.00    +0.162 HD
ATOM     15  H   UNL     1       1.081  -8.162  -5.907  0.00  0.00    +0.155 HD
ENDBRANCH   1   3
BRANCH   1  17
ATOM     16  C   UNL     1       1.336  -2.331  -2.578  0.00  0.00    +0.152 C 
ATOM     17  C   UNL     1       1.378  -3.876  -2.508  0.00  0.00    +0.136 C 
ATOM     18  S   UNL     1       3.051  -4.077  -1.763  0.00  0.00    -0.110 S 
ATOM     19  C   UNL     1       3.732  -2.502  -2.229  0.00  0.00    -0.013 C 
ATOM     20  C   UNL     1       2.722  -1.740  -2.625  0.00  0.00    -0.044 C 
ATOM     21  C   UNL     1       2.963  -0.314  -3.114  0.00  0.00    +0.032 C 
ATOM     22  C   UNL     1       4.327   0.163  -2.619  0.00  0.00    +0.005 C 
ATOM     23  C   UNL     1       5.399  -0.861  -3.007  0.00  0.00    +0.005 C 
ATOM     24  C   UNL     1       5.185  -2.123  -2.176  0.00  0.00    +0.042 C 
BRANCH  16  25
ATOM     25  C   UNL     1       0.618  -1.804  -1.362  0.00  0.00    +0.317 C 
ATOM     26  O   UNL     1       0.216  -2.569  -0.518  0.00  0.00    -0.250 OA
BRANCH  25  27
ATOM     27  O   UNL     1       0.425  -0.483  -1.217  0.00  0.00    -0.464 OA
BRANCH  27  29
ATOM     28  C   UNL     1      -0.387   1.472  -0.050  0.00  0.00    +0.048 C 
ATOM     29  C   UNL     1      -0.263  -0.053  -0.040  0.00  0.00    +0.229 C 
ENDBRANCH  27  29
ENDBRANCH  25  27
ENDBRANCH  16  25
ENDBRANCH   1  17
TORSDOF 5
