REMARK  Name = ZINC36567308
REMARK  16 active torsions:
REMARK  status: ('A' for Active; 'I' for Inactive)
REMARK    1  A    between atoms: C_1  and  C_2
REMARK    2  A    between atoms: C_2  and  C_3
REMARK    3  A    between atoms: C_3  and  N_4
REMARK    4  A    between atoms: N_4  and  C_5
REMARK    5  A    between atoms: C_5  and  C_7
REMARK    6  A    between atoms: C_5  and  C_13
REMARK    7  A    between atoms: N_15  and  C_16
REMARK    8  A    between atoms: C_16  and  C_17
REMARK    9  A    between atoms: C_16  and  C_18
REMARK   10  A    between atoms: C_16  and  C_19
REMARK   11  A    between atoms: C_19  and  C_20
REMARK   12  A    between atoms: C_20  and  C_21
REMARK   13  A    between atoms: C_20  and  C_22
REMARK   14  A    between atoms: C_20  and  C_23
REMARK   15  A    between atoms: C_24  and  C_26
REMARK   16  A    between atoms: C_26  and  C_27
REMARK                            x       y       z     vdW  Elec       q    Type
REMARK                         _______ _______ _______ _____ _____    ______ ____
ROOT
ATOM      1  C   UNL     1      -0.075  -2.166   1.738  0.00  0.00    +0.192 C 
ENDROOT
BRANCH   1   2
ATOM      2  C   UNL     1      -1.227  -1.397   2.332  0.00  0.00    -0.018 A 
ATOM      3  C   UNL     1      -1.083  -0.055   2.628  0.00  0.00    +0.006 A 
ATOM      4  C   UNL     1      -2.139   0.650   3.174  0.00  0.00    +0.000 A 
ATOM      5  C   UNL     1      -3.341   0.013   3.422  0.00  0.00    +0.000 A 
ATOM      6  C   UNL     1      -3.485  -1.329   3.125  0.00  0.00    +0.000 A 
ATOM      7  C   UNL     1      -2.430  -2.033   2.575  0.00  0.00    +0.006 A 
ENDBRANCH   1   2
BRANCH   1   8
ATOM      8  C   UNL     1       0.949  -2.443   2.808  0.00  0.00    +0.238 C 
ATOM      9  O   UNL     1       2.063  -1.971   2.718  0.00  0.00    -0.273 OA
ATOM     10  N   UNL     1       0.628  -3.216   3.864  0.00  0.00    -0.308 N 
ATOM     11  H   UNL     1      -0.263  -3.594   3.935  0.00  0.00    +0.149 HD
BRANCH  10  12
ATOM     12  C   UNL     1       1.623  -3.486   4.904  0.00  0.00    +0.030 C 
ATOM     13  C   UNL     1       2.759  -4.328   4.317  0.00  0.00    +0.031 C 
ATOM     14  C   UNL     1       2.186  -2.163   5.427  0.00  0.00    +0.031 C 
BRANCH  12  15
ATOM     15  C   UNL     1       0.965  -4.250   6.054  0.00  0.00    +0.031 C 
BRANCH  15  16
ATOM     16  C   UNL     1      -0.456  -3.723   6.269  0.00  0.00    -0.036 C 
ATOM     17  C   UNL     1      -1.417  -4.447   5.325  0.00  0.00    +0.010 C 
ATOM     18  C   UNL     1      -0.879  -3.974   7.718  0.00  0.00    +0.010 C 
ATOM     19  C   UNL     1      -0.491  -2.221   5.980  0.00  0.00    +0.010 C 
ENDBRANCH  15  16
ENDBRANCH  12  15
ENDBRANCH  10  12
ENDBRANCH   1   8
BRANCH   1  20
ATOM     20  N   UNL     1       0.539  -1.375   0.667  0.00  0.00    -0.286 N 
ATOM     21  C   UNL     1      -0.115  -1.195  -0.497  0.00  0.00    +0.221 C 
ATOM     22  O   UNL     1      -1.212  -1.687  -0.659  0.00  0.00    -0.275 OA
BRANCH  20  23
ATOM     23  C   UNL     1       1.863  -0.781   0.863  0.00  0.00    +0.108 C 
BRANCH  23  25
ATOM     24  C   UNL     1       4.320  -1.146   0.592  0.00  0.00    +0.005 C 
ATOM     25  C   UNL     1       2.940  -1.794   0.467  0.00  0.00    +0.016 C 
ENDBRANCH  23  25
ENDBRANCH  20  23
BRANCH  21  26
ATOM     26  C   UNL     1       0.516  -0.382  -1.598  0.00  0.00    +0.131 C 
BRANCH  26  27
ATOM     27  C   UNL     1      -0.413  -0.334  -2.783  0.00  0.00    -0.039 A 
ATOM     28  C   UNL     1      -0.334  -1.306  -3.763  0.00  0.00    +0.005 A 
ATOM     29  C   UNL     1      -1.187  -1.262  -4.850  0.00  0.00    +0.015 A 
ATOM     30  C   UNL     1      -2.119  -0.246  -4.957  0.00  0.00    +0.018 A 
ATOM     31  C   UNL     1      -2.198   0.726  -3.976  0.00  0.00    +0.015 A 
ATOM     32  C   UNL     1      -1.349   0.679  -2.887  0.00  0.00    +0.005 A 
ATOM     33 BR   UNL     1      -3.286  -0.185  -6.445  0.00  0.00    -0.050 Br
ENDBRANCH  26  27
ENDBRANCH  21  26
ENDBRANCH   1  20
TORSDOF 10
