REMARK  Name = ZINC25052880
REMARK  7 active torsions:
REMARK  status: ('A' for Active; 'I' for Inactive)
REMARK    1  A    between atoms: C_1  and  C_2
REMARK    2  A    between atoms: C_2  and  C_4
REMARK    3  A    between atoms: C_7  and  S_10
REMARK    4  A    between atoms: S_10  and  N_13
REMARK    5  A    between atoms: C_19  and  C_21
REMARK    6  A    between atoms: C_21  and  N_22
REMARK    7  A    between atoms: C_30  and  C_32
REMARK                            x       y       z     vdW  Elec       q    Type
REMARK                         _______ _______ _______ _____ _____    ______ ____
ROOT
ATOM      1  N   UNL     1      -0.645   2.220  -1.599  0.00  0.00    -0.174 NA
ATOM      2  C   UNL     1      -1.639   1.264  -2.108  0.00  0.00    +0.128 C 
ATOM      3  C   UNL     1      -3.015   1.951  -2.112  0.00  0.00    +0.125 C 
ATOM      4  N   UNL     1      -2.885   3.257  -2.773  0.00  0.00    -0.300 N 
ATOM      5  C   UNL     1      -1.888   4.211  -2.267  0.00  0.00    +0.125 C 
ATOM      6  C   UNL     1      -0.515   3.526  -2.260  0.00  0.00    +0.128 C 
ATOM      7  C   UNL     1      -3.667   3.575  -3.824  0.00  0.00    +0.199 C 
ATOM      8  O   UNL     1      -3.551   4.656  -4.361  0.00  0.00    -0.278 OA
ENDROOT
BRANCH   1   9
ATOM      9  S   UNL     1       0.316   1.830  -0.308  0.00  0.00    +0.061 S 
ATOM     10  O   UNL     1       0.372   0.411  -0.258  0.00  0.00    -0.153 OA
ATOM     11  O   UNL     1       1.482   2.635  -0.411  0.00  0.00    -0.153 OA
BRANCH   9  15
ATOM     12  C   UNL     1      -1.858   3.173   3.435  0.00  0.00    +0.017 A 
ATOM     13  C   UNL     1      -2.060   1.885   2.929  0.00  0.00    +0.013 A 
ATOM     14  C   UNL     1      -1.395   1.484   1.790  0.00  0.00    +0.029 A 
ATOM     15  C   UNL     1      -0.529   2.352   1.147  0.00  0.00    +0.106 A 
ATOM     16  C   UNL     1      -0.320   3.626   1.645  0.00  0.00    +0.029 A 
ATOM     17  C   UNL     1      -0.982   4.044   2.780  0.00  0.00    +0.013 A 
BRANCH  12  19
ATOM     18  C   UNL     1      -2.344   4.998   5.192  0.00  0.00    +0.091 C 
ATOM     19  C   UNL     1      -2.564   3.609   4.650  0.00  0.00    +0.160 C 
ATOM     20  O   UNL     1      -3.324   2.851   5.215  0.00  0.00    -0.292 OA
ENDBRANCH  12  19
ENDBRANCH   9  15
ENDBRANCH   1   9
BRANCH   7  21
ATOM     21  C   UNL     1      -4.686   2.587  -4.331  0.00  0.00    +0.020 C 
BRANCH  21  22
ATOM     22  N   UNL     1      -5.404   3.167  -5.474  0.00  0.00    +0.390 N 
ATOM     23  C   UNL     1      -6.187   4.340  -5.062  0.00  0.00    -0.072 C 
ATOM     24  C   UNL     1      -6.575   5.142  -6.316  0.00  0.00    +0.024 C 
ATOM     25  C   UNL     1      -7.095   4.177  -7.331  0.00  0.00    -0.010 A 
ATOM     26  C   UNL     1      -6.971   2.820  -7.301  0.00  0.00    -0.051 A 
ATOM     27  C   UNL     1      -7.541   2.120  -8.362  0.00  0.00    +0.010 A 
ATOM     28  C   UNL     1      -8.177   2.790  -9.351  0.00  0.00    +0.045 A 
ATOM     29  S   UNL     1      -7.997   4.487  -8.822  0.00  0.00    -0.101 S 
ATOM     30  C   UNL     1      -6.233   2.156  -6.142  0.00  0.00    -0.033 C 
ATOM     31  H   UNL     1      -4.662   3.514  -6.208  0.00  0.00    -0.080 HD
BRANCH  30  32
ATOM     32  C   UNL     1      -5.343   1.030  -6.672  0.00  0.00    -0.020 C 
ATOM     33  C   UNL     1      -5.218   0.884  -8.190  0.00  0.00    +0.002 C 
ATOM     34  C   UNL     1      -6.029  -0.135  -7.388  0.00  0.00    +0.002 C 
ENDBRANCH  30  32
ENDBRANCH  21  22
ENDBRANCH   7  21
TORSDOF 6
