REMARK  Name = ZINC01114395
REMARK  7 active torsions:
REMARK  status: ('A' for Active; 'I' for Inactive)
REMARK    1  A    between atoms: C_1  and  C_2
REMARK    2  A    between atoms: C_9  and  N_14
REMARK    3  A    between atoms: C_10  and  C_11
REMARK    4  A    between atoms: C_15  and  C_17
REMARK    5  A    between atoms: C_17  and  C_19
REMARK    6  A    between atoms: C_17  and  O_20
REMARK    7  A    between atoms: O_20  and  C_21
REMARK                            x       y       z     vdW  Elec       q    Type
REMARK                         _______ _______ _______ _____ _____    ______ ____
ROOT
ATOM      1  C   UNL     1      -5.041  -1.187  -4.499  0.00  0.00    +0.008 C 
ATOM      2  C   UNL     1      -3.971  -1.199  -3.405  0.00  0.00    -0.009 C 
ATOM      3  C   UNL     1      -3.154   0.094  -3.468  0.00  0.00    +0.008 C 
ATOM      4  C   UNL     1      -1.935  -0.016  -2.551  0.00  0.00    +0.037 C 
ATOM      5  C   UNL     1      -2.404  -0.434  -1.162  0.00  0.00    -0.023 A 
ATOM      6  C   UNL     1      -3.615  -1.003  -0.980  0.00  0.00    -0.004 A 
ATOM      7  S   UNL     1      -3.711  -1.315   0.760  0.00  0.00    -0.077 S 
ATOM      8  C   UNL     1      -2.160  -0.707   1.239  0.00  0.00    +0.084 A 
ATOM      9  C   UNL     1      -1.606  -0.277   0.042  0.00  0.00    +0.068 A 
ATOM     10  C   UNL     1      -4.644  -1.293  -2.028  0.00  0.00    +0.046 C 
ENDROOT
BRANCH   9  11
ATOM     11  C   UNL     1      -0.268   0.320  -0.005  0.00  0.00    +0.244 C 
ATOM     12  O   UNL     1       0.709  -0.387  -0.174  0.00  0.00    -0.270 OA
ATOM     13  N   UNL     1      -0.118   1.652   0.137  0.00  0.00    -0.325 N 
ATOM     14  H   UNL     1       0.767   2.047   0.106  0.00  0.00    +0.145 HD
ATOM     15  H   UNL     1      -0.896   2.216   0.268  0.00  0.00    +0.145 HD
ENDBRANCH   9  11
BRANCH   8  16
ATOM     16  N   UNL     1      -1.608  -0.661   2.510  0.00  0.00    -0.276 N 
ATOM     17  C   UNL     1      -2.303  -1.131   3.565  0.00  0.00    +0.258 C 
ATOM     18  O   UNL     1      -3.412  -1.594   3.402  0.00  0.00    -0.271 OA
ATOM     19  H   UNL     1      -0.721  -0.291   2.640  0.00  0.00    +0.155 HD
BRANCH  17  20
ATOM     20  C   UNL     1      -1.702  -1.081   4.946  0.00  0.00    +0.256 C 
ATOM     21  C   UNL     1      -1.517   0.378   5.369  0.00  0.00    +0.062 C 
BRANCH  20  22
ATOM     22  O   UNL     1      -2.574  -1.737   5.868  0.00  0.00    -0.478 OA
BRANCH  22  23
ATOM     23  C   UNL     1      -2.010  -2.245   6.996  0.00  0.00    +0.140 A 
ATOM     24  C   UNL     1      -0.669  -2.016   7.265  0.00  0.00    +0.048 A 
ATOM     25  C   UNL     1      -0.097  -2.533   8.412  0.00  0.00    +0.023 A 
ATOM     26  C   UNL     1      -0.861  -3.277   9.293  0.00  0.00    +0.043 A 
ATOM     27  C   UNL     1      -2.199  -3.507   9.027  0.00  0.00    +0.043 A 
ATOM     28  C   UNL     1      -2.777  -2.987   7.884  0.00  0.00    +0.084 A 
ATOM     29 CL   UNL     1      -4.458  -3.268   7.554  0.00  0.00    -0.080 Cl
ATOM     30 CL   UNL     1      -0.140  -3.925  10.733  0.00  0.00    -0.083 Cl
ENDBRANCH  22  23
ENDBRANCH  20  22
ENDBRANCH  17  20
ENDBRANCH   8  16
TORSDOF 5
