REMARK  Name = ZINC04739682
REMARK  5 active torsions:
REMARK  status: ('A' for Active; 'I' for Inactive)
REMARK    1  A    between atoms: C_1  and  C_2
REMARK    2  A    between atoms: C_5  and  C_8
REMARK    3  A    between atoms: C_13  and  C_15
REMARK    4  A    between atoms: N_20  and  C_21
REMARK    5  A    between atoms: C_21  and  C_22
REMARK                            x       y       z     vdW  Elec       q    Type
REMARK                         _______ _______ _______ _____ _____    ______ ____
ROOT
ATOM      1  C   UNL     1      -0.884   7.330   0.051  0.00  0.00    +0.184 A 
ATOM      2  N   UNL     1      -2.202   7.583   0.065  0.00  0.00    -0.193 NA
ATOM      3  C   UNL     1      -2.871   6.452   0.059  0.00  0.00    +0.222 A 
ATOM      4  N   UNL     1      -1.966   5.432   0.051  0.00  0.00    -0.162 N 
ATOM      5  N   UNL     1      -0.696   6.030   0.042  0.00  0.00    -0.141 NA
ATOM      6  C   UNL     1      -2.238   4.112   0.046  0.00  0.00    +0.288 C 
ATOM      7  O   UNL     1      -3.392   3.728   0.054  0.00  0.00    -0.265 OA
ATOM      8  N   UNL     1      -4.245   6.321   0.064  0.00  0.00    -0.309 N 
ATOM      9  H   UNL     1      -4.647   5.438   0.061  0.00  0.00    +0.149 HD
ENDROOT
BRANCH   1  14
ATOM     10  C   UNL     1       3.280  11.308   0.029  0.00  0.00    +0.044 C 
ATOM     11  C   UNL     1       2.191  10.267   0.036  0.00  0.00    -0.050 A 
ATOM     12  C   UNL     1       2.521   8.924   0.026  0.00  0.00    +0.004 A 
ATOM     13  C   UNL     1       1.527   7.966   0.031  0.00  0.00    +0.012 A 
ATOM     14  C   UNL     1       0.189   8.355   0.046  0.00  0.00    +0.021 A 
ATOM     15  C   UNL     1      -0.138   9.709   0.051  0.00  0.00    +0.012 A 
ATOM     16  C   UNL     1       0.864  10.658   0.051  0.00  0.00    +0.004 A 
ENDBRANCH   1  14
BRANCH   6  17
ATOM     17  C   UNL     1      -1.144   3.140   0.030  0.00  0.00    +0.078 A 
ATOM     18  C   UNL     1      -1.205   1.754   0.017  0.00  0.00    +0.021 A 
ATOM     19  C   UNL     1      -0.013   1.076   0.008  0.00  0.00    +0.008 A 
ATOM     20  C   UNL     1       1.151   1.779   0.001  0.00  0.00    +0.046 A 
ATOM     21  S   UNL     1       0.617   3.429   0.015  0.00  0.00    -0.092 S 
ENDBRANCH   6  17
BRANCH   8  22
ATOM     22  C   UNL     1      -5.095   7.514   0.073  0.00  0.00    +0.141 C 
BRANCH  22  23
ATOM     23  C   UNL     1      -6.543   7.098   0.077  0.00  0.00    -0.012 A 
ATOM     24  C   UNL     1      -7.271   7.119  -1.098  0.00  0.00    +0.006 A 
ATOM     25  C   UNL     1      -8.599   6.734  -1.096  0.00  0.00    +0.000 A 
ATOM     26  C   UNL     1      -9.202   6.337   0.084  0.00  0.00    +0.001 A 
ATOM     27  C   UNL     1      -8.477   6.321   1.260  0.00  0.00    +0.020 A 
ATOM     28  C   UNL     1      -7.147   6.702   1.257  0.00  0.00    +0.046 A 
ATOM     29 CL   UNL     1      -6.235   6.682   2.734  0.00  0.00    -0.083 Cl
ENDBRANCH  22  23
ENDBRANCH   8  22
TORSDOF 4
