REMARK  Name = ZINC02696130
REMARK  8 active torsions:
REMARK  status: ('A' for Active; 'I' for Inactive)
REMARK    1  A    between atoms: C_4  and  C_7
REMARK    2  A    between atoms: C_7  and  C_8
REMARK    3  A    between atoms: C_13  and  C_14
REMARK    4  A    between atoms: C_13  and  N_51
REMARK    5  A    between atoms: C_14  and  C_16
REMARK    6  A    between atoms: C_14  and  O_25
REMARK    7  A    between atoms: C_16  and  O_17
REMARK    8  A    between atoms: O_17  and  C_18
REMARK                            x       y       z     vdW  Elec       q    Type
REMARK                         _______ _______ _______ _____ _____    ______ ____
ROOT
ATOM      1  C   UNL     1       9.539   0.499  -1.307  0.00  0.00    -0.010 C 
ATOM      2  C   UNL     1       9.656   1.643  -0.296  0.00  0.00    -0.015 C 
ATOM      3  C   UNL     1       8.439   2.562  -0.430  0.00  0.00    -0.078 C 
ATOM      4  C   UNL     1       7.055   0.716  -1.172  0.00  0.00    -0.078 C 
ATOM      5  C   UNL     1       8.231  -0.258  -1.060  0.00  0.00    -0.015 C 
ATOM      6  N   UNL     1       7.215   1.779  -0.157  0.00  0.00    +0.381 N 
ATOM      7  H   UNL     1       7.297   1.345   0.770  0.00  0.00    -0.082 HD
ENDROOT
BRANCH   1   8
ATOM      8  C   UNL     1      10.723  -0.456  -1.138  0.00  0.00    +0.038 C 
BRANCH   8  12
ATOM      9  C   UNL     1      10.583  -3.451  -4.180  0.00  0.00    +0.000 A 
ATOM     10  C   UNL     1      11.268  -2.271  -4.403  0.00  0.00    +0.000 A 
ATOM     11  C   UNL     1      11.313  -1.302  -3.418  0.00  0.00    +0.003 A 
ATOM     12  C   UNL     1      10.673  -1.512  -2.211  0.00  0.00    -0.047 A 
ATOM     13  C   UNL     1       9.993  -2.695  -1.986  0.00  0.00    +0.003 A 
ATOM     14  C   UNL     1       9.944  -3.662  -2.973  0.00  0.00    +0.000 A 
ENDBRANCH   8  12
ENDBRANCH   1   8
BRANCH   6  15
ATOM     15  C   UNL     1       6.035   2.668  -0.168  0.00  0.00    -0.044 C 
BRANCH  15  16
ATOM     16  C   UNL     1       4.771   1.821  -0.006  0.00  0.00    +0.135 C 
BRANCH  16  17
ATOM     17  O   UNL     1       4.853   1.071   1.208  0.00  0.00    -0.390 OA
ATOM     18  H   UNL     1       4.935   1.616   2.002  0.00  0.00    +0.210 HD
ENDBRANCH  16  17
BRANCH  16  19
ATOM     19  C   UNL     1       3.546   2.737   0.042  0.00  0.00    +0.258 C 
BRANCH  19  20
ATOM     20  O   UNL     1       2.359   1.943   0.076  0.00  0.00    -0.488 OA
BRANCH  20  21
ATOM     21  C   UNL     1       1.174   2.606   0.121  0.00  0.00    +0.135 A 
ATOM     22  C   UNL     1       1.154   3.993   0.131  0.00  0.00    +0.047 A 
ATOM     23  C   UNL     1      -0.052   4.666   0.176  0.00  0.00    +0.004 A 
ATOM     24  C   UNL     1      -1.239   3.958   0.211  0.00  0.00    +0.001 A 
ATOM     25  C   UNL     1      -1.223   2.575   0.195  0.00  0.00    +0.019 A 
ATOM     26  C   UNL     1      -0.019   1.897   0.156  0.00  0.00    +0.059 A 
ATOM     27 BR   UNL     1       0.003   0.007   0.142  0.00  0.00    -0.047 Br
ENDBRANCH  20  21
ENDBRANCH  19  20
ENDBRANCH  16  19
ENDBRANCH  15  16
ENDBRANCH   6  15
TORSDOF 8
