REMARK  Name = ZINC01900267
REMARK  14 active torsions:
REMARK  status: ('A' for Active; 'I' for Inactive)
REMARK    1  A    between atoms: C_1  and  C_2
REMARK    2  A    between atoms: C_2  and  C_4
REMARK    3  A    between atoms: C_2  and  N_12
REMARK    4  A    between atoms: C_4  and  C_5
REMARK    5  A    between atoms: C_5  and  C_6
REMARK    6  A    between atoms: C_13  and  C_15
REMARK    7  A    between atoms: C_15  and  S_16
REMARK    8  A    between atoms: S_16  and  C_17
REMARK    9  A    between atoms: C_26  and  C_29
REMARK   10  A    between atoms: C_29  and  C_30
REMARK   11  A    between atoms: C_29  and  C_31
REMARK   12  A    between atoms: N_34  and  C_35
REMARK   13  A    between atoms: C_35  and  C_36
REMARK   14  A    between atoms: C_36  and  C_37
REMARK                            x       y       z     vdW  Elec       q    Type
REMARK                         _______ _______ _______ _____ _____    ______ ____
ROOT
ATOM      1  C   UNL     1       5.198  -1.692  -3.678  0.00  0.00    +0.173 A 
ATOM      2  N   UNL     1       4.391  -1.971  -4.682  0.00  0.00    -0.216 NA
ATOM      3  C   UNL     1       4.871  -2.410  -5.839  0.00  0.00    +0.117 A 
ATOM      4  C   UNL     1       6.248  -2.599  -6.054  0.00  0.00    +0.076 A 
ATOM      5  C   UNL     1       6.622  -3.088  -7.380  0.00  0.00    -0.018 A 
ATOM      6  C   UNL     1       5.621  -3.307  -8.260  0.00  0.00    +0.021 A 
ATOM      7  S   UNL     1       4.141  -2.883  -7.387  0.00  0.00    -0.071 S 
ATOM      8  C   UNL     1       5.770  -3.804  -9.665  0.00  0.00    +0.203 C 
ATOM      9  O   UNL     1       7.158  -3.706 -10.023  0.00  0.00    -0.371 OA
ATOM     10  C   UNL     1       8.041  -4.252  -9.040  0.00  0.00    +0.126 C 
ATOM     11  C   UNL     1       8.066  -3.355  -7.798  0.00  0.00    +0.068 C 
ATOM     12  C   UNL     1       7.099  -2.289  -4.947  0.00  0.00    +0.263 A 
ATOM     13  O   UNL     1       8.307  -2.422  -5.041  0.00  0.00    -0.267 OA
ATOM     14  N   UNL     1       6.549  -1.843  -3.803  0.00  0.00    -0.287 N 
ENDROOT
BRANCH  10  15
ATOM     15  C   UNL     1       9.453  -4.346  -9.622  0.00  0.00    +0.012 C 
ATOM     16  C   UNL     1       9.436  -5.253 -10.855  0.00  0.00    +0.010 C 
ATOM     17  C   UNL     1       9.933  -2.950 -10.023  0.00  0.00    +0.010 C 
ENDBRANCH  10  15
BRANCH   1  18
ATOM     18  S   UNL     1       4.525  -1.111  -2.157  0.00  0.00    -0.078 S 
BRANCH  18  19
ATOM     19  C   UNL     1       2.736  -1.073  -2.455  0.00  0.00    +0.173 C 
BRANCH  19  21
ATOM     20  N   UNL     1       0.688  -0.476  -1.203  0.00  0.00    -0.312 N 
ATOM     21  C   UNL     1       2.031  -0.587  -1.215  0.00  0.00    +0.224 C 
ATOM     22  O   UNL     1       2.672  -0.295  -0.228  0.00  0.00    -0.275 OA
ATOM     23  H   UNL     1       0.175  -0.710  -1.993  0.00  0.00    +0.149 HD
BRANCH  20  25
ATOM     24  C   UNL     1      -0.019   1.526   0.010  0.00  0.00    +0.028 C 
ATOM     25  C   UNL     1       0.002  -0.004   0.002  0.00  0.00    +0.070 C 
BRANCH  25  26
ATOM     26  C   UNL     1      -1.433  -0.534   0.013  0.00  0.00    +0.026 C 
BRANCH  26  27
ATOM     27  C   UNL     1      -1.413  -2.059   0.130  0.00  0.00    +0.037 C 
BRANCH  27  28
ATOM     28  C   UNL     1      -2.827  -2.581   0.141  0.00  0.00    -0.047 A 
ATOM     29  C   UNL     1      -3.502  -2.723   1.339  0.00  0.00    +0.003 A 
ATOM     30  C   UNL     1      -4.799  -3.201   1.349  0.00  0.00    +0.000 A 
ATOM     31  C   UNL     1      -5.421  -3.537   0.161  0.00  0.00    +0.000 A 
ATOM     32  C   UNL     1      -4.746  -3.394  -1.037  0.00  0.00    +0.000 A 
ATOM     33  C   UNL     1      -3.451  -2.911  -1.048  0.00  0.00    +0.003 A 
ENDBRANCH  27  28
ENDBRANCH  26  27
ENDBRANCH  25  26
ENDBRANCH  20  25
ENDBRANCH  19  21
ENDBRANCH  18  19
ENDBRANCH   1  18
BRANCH  14  34
ATOM     34  C   UNL     1       7.416  -1.518  -2.668  0.00  0.00    +0.132 C 
BRANCH  34  35
ATOM     35  C   UNL     1       7.610  -2.763  -1.801  0.00  0.00    +0.057 C 
BRANCH  35  36
ATOM     36  C   UNL     1       8.502  -2.429  -0.633  0.00  0.00    -0.046 A 
ATOM     37  C   UNL     1       9.873  -2.571  -0.748  0.00  0.00    +0.004 A 
ATOM     38  C   UNL     1      10.691  -2.264   0.324  0.00  0.00    +0.000 A 
ATOM     39  C   UNL     1      10.139  -1.815   1.509  0.00  0.00    +0.000 A 
ATOM     40  C   UNL     1       8.769  -1.672   1.622  0.00  0.00    +0.000 A 
ATOM     41  C   UNL     1       7.951  -1.975   0.550  0.00  0.00    +0.004 A 
ENDBRANCH  35  36
ENDBRANCH  34  35
ENDBRANCH  14  34
TORSDOF 11
