REMARK  Name = ZINC63280125
REMARK  7 active torsions:
REMARK  status: ('A' for Active; 'I' for Inactive)
REMARK    1  A    between atoms: C_1  and  O_2
REMARK    2  A    between atoms: O_2  and  C_3
REMARK    3  A    between atoms: C_6  and  C_9
REMARK    4  A    between atoms: C_15  and  C_16
REMARK    5  A    between atoms: N_18  and  C_19
REMARK    6  A    between atoms: C_19  and  C_20
REMARK    7  A    between atoms: C_20  and  C_21
REMARK                            x       y       z     vdW  Elec       q    Type
REMARK                         _______ _______ _______ _____ _____    ______ ____
ROOT
ATOM      1  C   UNL     1       0.904  -6.403   4.121  0.00  0.00    +0.238 C 
ATOM      2  O   UNL     1       0.152  -5.463   4.306  0.00  0.00    -0.271 OA
ATOM      3  N   UNL     1       0.405  -7.644   3.963  0.00  0.00    -0.311 N 
ATOM      4  H   UNL     1       1.004  -8.393   3.816  0.00  0.00    +0.149 HD
ENDROOT
BRANCH   1  10
ATOM      5  C   UNL     1       2.513  -2.575   4.594  0.00  0.00    +0.159 C 
ATOM      6  N   UNL     1       2.044  -3.958   4.799  0.00  0.00    -0.331 N 
ATOM      7  C   UNL     1       2.810  -4.972   4.347  0.00  0.00    +0.020 C 
ATOM      8  C   UNL     1       4.288  -4.646   4.166  0.00  0.00    +0.121 C 
ATOM      9  S   UNL     1       4.169  -2.830   3.828  0.00  0.00    -0.128 S 
ATOM     10  C   UNL     1       2.302  -6.191   4.072  0.00  0.00    +0.086 C 
ATOM     11  H   UNL     1       1.203  -4.134   5.250  0.00  0.00    +0.147 HD
BRANCH   5  15
ATOM     12  C   UNL     1      -0.084  -0.464   1.937  0.00  0.00    +0.120 A 
ATOM     13  C   UNL     1       0.648   0.229   2.890  0.00  0.00    +0.046 A 
ATOM     14  C   UNL     1       1.486  -0.455   3.748  0.00  0.00    +0.010 A 
ATOM     15  C   UNL     1       1.597  -1.831   3.657  0.00  0.00    -0.017 A 
ATOM     16  C   UNL     1       0.870  -2.524   2.708  0.00  0.00    +0.010 A 
ATOM     17  C   UNL     1       0.025  -1.845   1.851  0.00  0.00    +0.046 A 
BRANCH  12  19
ATOM     18  C   UNL     1      -0.971   1.627   1.237  0.00  0.00    +0.277 C 
ATOM     19  O   UNL     1      -0.910   0.207   1.091  0.00  0.00    -0.495 OA
ENDBRANCH  12  19
ENDBRANCH   5  15
ENDBRANCH   1  10
BRANCH   3  20
ATOM     20  C   UNL     1      -1.043  -7.864   4.014  0.00  0.00    +0.109 C 
BRANCH  20  21
ATOM     21  C   UNL     1      -1.341  -9.350   3.807  0.00  0.00    +0.052 C 
BRANCH  21  22
ATOM     22  C   UNL     1      -2.830  -9.575   3.859  0.00  0.00    -0.040 C 
ATOM     23  C   UNL     1      -3.681  -9.634   2.809  0.00  0.00    +0.000 A 
ATOM     24  C   UNL     1      -3.482  -9.510   1.360  0.00  0.00    +0.030 A 
ATOM     25  C   UNL     1      -4.552  -9.616   0.539  0.00  0.00    +0.042 A 
ATOM     26  C   UNL     1      -5.844  -9.841   1.038  0.00  0.00    +0.022 A 
ATOM     27  C   UNL     1      -6.105  -9.965   2.356  0.00  0.00    +0.027 A 
ATOM     28  C   UNL     1      -5.054  -9.871   3.309  0.00  0.00    +0.043 A 
ATOM     29  N   UNL     1      -5.052  -9.955   4.617  0.00  0.00    -0.380 N 
ATOM     30  C   UNL     1      -3.675  -9.788   5.095  0.00  0.00    +0.144 C 
ATOM     31 CL   UNL     1      -4.321  -9.470  -1.175  0.00  0.00    -0.084 Cl
ATOM     32  H   UNL     1      -5.831 -10.107   5.176  0.00  0.00    +0.160 HD
ENDBRANCH  21  22
ENDBRANCH  20  21
ENDBRANCH   3  20
TORSDOF 6
