REMARK  Name = ZINC13571230
REMARK  5 active torsions:
REMARK  status: ('A' for Active; 'I' for Inactive)
REMARK    1  A    between atoms: C_4  and  C_7
REMARK    2  A    between atoms: C_7  and  C_8
REMARK    3  A    between atoms: C_8  and  N_9
REMARK    4  A    between atoms: C_13  and  C_14
REMARK    5  A    between atoms: C_23  and  O_24
REMARK                            x       y       z     vdW  Elec       q    Type
REMARK                         _______ _______ _______ _____ _____    ______ ____
ROOT
ATOM      1  N   UNL     1       7.605   1.898   0.165  0.00  0.00    -0.255 N 
ATOM      2  C   UNL     1       6.326   2.219   0.071  0.00  0.00    +0.258 C 
ATOM      3  O   UNL     1       5.457   1.370  -0.005  0.00  0.00    -0.269 OA
ATOM      4  C   UNL     1       6.004   3.660   0.063  0.00  0.00    +0.077 C 
ATOM      5  C   UNL     1       4.797   4.277  -0.022  0.00  0.00    +0.033 C 
ATOM      6  S   UNL     1       7.641   4.369   0.188  0.00  0.00    -0.061 S 
ATOM      7  C   UNL     1       8.564   2.842   0.249  0.00  0.00    +0.121 C 
ATOM      8  S   UNL     1      10.258   2.629   0.375  0.00  0.00    -0.027 S 
ENDROOT
BRANCH   5   9
ATOM      9  C   UNL     1       3.588   3.491  -0.290  0.00  0.00    +0.038 A 
ATOM     10  C   UNL     1       3.611   2.464  -1.232  0.00  0.00    +0.023 A 
ATOM     11  C   UNL     1       2.427   1.742  -1.450  0.00  0.00    +0.005 A 
ATOM     12  C   UNL     1       2.381   0.695  -2.388  0.00  0.00    +0.059 A 
ATOM     13  C   UNL     1       1.220   0.006  -2.584  0.00  0.00    +0.167 A 
ATOM     14  C   UNL     1       0.063   0.333  -1.855  0.00  0.00    +0.168 A 
ATOM     15  C   UNL     1       0.081   1.354  -0.932  0.00  0.00    +0.078 A 
ATOM     16  C   UNL     1       1.263   2.078  -0.712  0.00  0.00    +0.079 A 
ATOM     17  N   UNL     1       1.296   3.073   0.185  0.00  0.00    -0.212 NA
ATOM     18  C   UNL     1       2.389   3.765   0.409  0.00  0.00    +0.220 A 
ATOM     19  O   UNL     1      -0.942  -0.504  -2.245  0.00  0.00    -0.453 OA
ATOM     20  C   UNL     1      -0.293  -1.605  -2.906  0.00  0.00    +0.466 C 
ATOM     21  O   UNL     1       0.924  -1.033  -3.420  0.00  0.00    -0.453 OA
BRANCH  18  22
ATOM     22  O   UNL     1       2.367   4.760   1.327  0.00  0.00    -0.492 OA
ATOM     23  H   UNL     1       2.596   4.475   2.222  0.00  0.00    +0.294 HD
ENDBRANCH  18  22
ENDBRANCH   5   9
BRANCH   1  24
ATOM     24  C   UNL     1       7.989   0.484   0.179  0.00  0.00    +0.119 C 
BRANCH  24  25
ATOM     25  C   UNL     1       8.232   0.008  -1.255  0.00  0.00    +0.054 C 
BRANCH  25  29
ATOM     26  C   UNL     1       9.352  -4.114  -1.217  0.00  0.00    +0.000 A 
ATOM     27  C   UNL     1       8.019  -3.761  -1.314  0.00  0.00    +0.000 A 
ATOM     28  C   UNL     1       7.657  -2.427  -1.326  0.00  0.00    +0.004 A 
ATOM     29  C   UNL     1       8.627  -1.446  -1.241  0.00  0.00    -0.046 A 
ATOM     30  C   UNL     1       9.961  -1.799  -1.149  0.00  0.00    +0.004 A 
ATOM     31  C   UNL     1      10.323  -3.133  -1.131  0.00  0.00    +0.000 A 
ENDBRANCH  25  29
ENDBRANCH  24  25
ENDBRANCH   1  24
TORSDOF 5
