REMARK  Name = ZINC60388320
REMARK  3 active torsions:
REMARK  status: ('A' for Active; 'I' for Inactive)
REMARK    1  A    between atoms: C_1  and  C_2
REMARK    2  A    between atoms: C_9  and  C_11
REMARK    3  A    between atoms: C_17  and  C_19
REMARK                            x       y       z     vdW  Elec       q    Type
REMARK                         _______ _______ _______ _____ _____    ______ ____
ROOT
ATOM      1  C   UNL     1       2.263  -0.254   3.284  0.00  0.00    +0.162 C 
ATOM      2  C   UNL     1       3.564  -0.952   2.837  0.00  0.00    +0.033 C 
ATOM      3  C   UNL     1       4.630   0.164   3.001  0.00  0.00    +0.021 C 
ATOM      4  C   UNL     1       4.115   0.904   4.260  0.00  0.00    +0.108 C 
ATOM      5  N   UNL     1       2.643   0.881   4.139  0.00  0.00    -0.289 N 
ATOM      6  C   UNL     1       1.790   1.752   4.713  0.00  0.00    +0.222 C 
ATOM      7  O   UNL     1       0.593   1.585   4.613  0.00  0.00    -0.275 OA
ENDROOT
BRANCH   6   8
ATOM      8  C   UNL     1       2.324   2.935   5.479  0.00  0.00    +0.048 C 
ATOM      9  C   UNL     1       3.263   2.446   6.584  0.00  0.00    +0.019 C 
ATOM     10  C   UNL     1       3.805   3.647   7.362  0.00  0.00    -0.009 C 
ATOM     11  C   UNL     1       2.640   4.418   7.986  0.00  0.00    +0.007 C 
ATOM     12  C   UNL     1       1.702   4.907   6.881  0.00  0.00    -0.009 C 
ATOM     13  C   UNL     1       1.160   3.706   6.104  0.00  0.00    +0.019 C 
ATOM     14  C   UNL     1       2.470   5.826   5.930  0.00  0.00    +0.007 C 
ATOM     15  C   UNL     1       3.635   5.055   5.305  0.00  0.00    -0.009 C 
ATOM     16  C   UNL     1       4.573   4.566   6.410  0.00  0.00    +0.007 C 
ATOM     17  C   UNL     1       3.093   3.854   4.527  0.00  0.00    +0.019 C 
ENDBRANCH   6   8
BRANCH   1  25
ATOM     18  C   UNL     1       0.544   1.370  -0.163  0.00  0.00    +0.028 C 
ATOM     19  C   UNL     1       0.434  -0.154  -0.085  0.00  0.00    +0.073 C 
ATOM     20  C   UNL     1       1.155  -0.782  -1.282  0.00  0.00    +0.022 C 
ATOM     21  C   UNL     1       1.162  -2.305  -1.127  0.00  0.00    +0.003 C 
ATOM     22  C   UNL     1       1.920  -2.685   0.147  0.00  0.00    +0.019 C 
ATOM     23  C   UNL     1       1.209  -2.078   1.361  0.00  0.00    +0.108 C 
ATOM     24  N   UNL     1       1.065  -0.631   1.153  0.00  0.00    -0.297 N 
ATOM     25  C   UNL     1       1.507   0.243   2.079  0.00  0.00    +0.236 C 
ATOM     26  O   UNL     1       1.297   1.430   1.942  0.00  0.00    -0.274 OA
ENDBRANCH   1  25
TORSDOF 2
