REMARK  Name = ZINC33911937
REMARK  11 active torsions:
REMARK  status: ('A' for Active; 'I' for Inactive)
REMARK    1  A    between atoms: C_1  and  C_2
REMARK    2  A    between atoms: C_6  and  C_15
REMARK    3  A    between atoms: C_13  and  C_14
REMARK    4  A    between atoms: C_15  and  C_17
REMARK    5  A    between atoms: C_15  and  N_29
REMARK    6  A    between atoms: N_21  and  C_22
REMARK    7  A    between atoms: C_22  and  C_23
REMARK    8  A    between atoms: N_29  and  C_30
REMARK    9  A    between atoms: N_29  and  C_37
REMARK   10  A    between atoms: C_30  and  C_31
REMARK   11  A    between atoms: C_37  and  C_38
REMARK                            x       y       z     vdW  Elec       q    Type
REMARK                         _______ _______ _______ _____ _____    ______ ____
ROOT
ATOM      1  C   UNL     1      -0.533  -5.198  -3.636  0.00  0.00    +0.040 C 
ENDROOT
BRANCH   1   7
ATOM      2  C   UNL     1      -2.221   1.773  -1.592  0.00  0.00    +0.044 C 
ATOM      3  C   UNL     1      -1.813   0.364  -1.245  0.00  0.00    -0.047 A 
ATOM      4  C   UNL     1      -1.653  -0.558  -2.240  0.00  0.00    +0.013 A 
ATOM      5  C   UNL     1      -1.275  -1.866  -1.919  0.00  0.00    -0.001 A 
ATOM      6  C   UNL     1      -1.095  -2.880  -2.960  0.00  0.00    +0.017 A 
ATOM      7  C   UNL     1      -0.727  -4.131  -2.589  0.00  0.00    +0.011 A 
ATOM      8  C   UNL     1      -0.525  -4.438  -1.226  0.00  0.00    +0.251 A 
ATOM      9  O   UNL     1      -0.195  -5.569  -0.915  0.00  0.00    -0.268 OA
ATOM     10  N   UNL     1      -0.688  -3.514  -0.263  0.00  0.00    -0.322 N 
ATOM     11  H   UNL     1      -0.541  -3.758   0.664  0.00  0.00    +0.169 HD
ATOM     12  C   UNL     1      -1.062  -2.224  -0.574  0.00  0.00    +0.049 A 
ATOM     13  C   UNL     1      -1.231  -1.268   0.421  0.00  0.00    +0.030 A 
ATOM     14  C   UNL     1      -1.598   0.017   0.081  0.00  0.00    -0.046 A 
ATOM     15  C   UNL     1      -1.774   1.053   1.161  0.00  0.00    +0.044 C 
ENDBRANCH   1   7
BRANCH   1  16
ATOM     16  C   UNL     1       0.914  -5.616  -3.664  0.00  0.00    +0.143 A 
ATOM     17  N   UNL     1       1.500  -6.466  -2.856  0.00  0.00    -0.115 NA
ATOM     18  N   UNL     1       2.737  -6.557  -3.203  0.00  0.00    -0.023 NA
ATOM     19  N   UNL     1       2.957  -5.787  -4.211  0.00  0.00    -0.044 NA
ATOM     20  N   UNL     1       1.856  -5.194  -4.529  0.00  0.00    -0.228 N 
BRANCH  20  21
ATOM     21  C   UNL     1       1.667  -4.238  -5.622  0.00  0.00    +0.178 C 
BRANCH  21  22
ATOM     22  C   UNL     1       2.113  -2.847  -5.166  0.00  0.00    +0.140 C 
ATOM     23  C   UNL     1       2.006  -1.837  -6.337  0.00  0.00    +0.035 C 
ATOM     24  C   UNL     1       1.854  -0.501  -5.561  0.00  0.00    +0.031 C 
ATOM     25  C   UNL     1       1.044  -0.933  -4.320  0.00  0.00    +0.160 C 
ATOM     26  O   UNL     1       1.224  -2.346  -4.154  0.00  0.00    -0.375 OA
ENDBRANCH  21  22
ENDBRANCH  20  21
ENDBRANCH   1  16
BRANCH   1  27
ATOM     27  N   UNL     1      -1.372  -6.359  -3.312  0.00  0.00    +0.397 N 
ATOM     28  H   UNL     1      -1.083  -6.747  -2.426  0.00  0.00    -0.079 HD
BRANCH  27  29
ATOM     29  C   UNL     1      -1.226  -7.376  -4.362  0.00  0.00    -0.039 C 
BRANCH  29  30
ATOM     30  C   UNL     1      -1.575  -6.772  -5.698  0.00  0.00    -0.046 A 
ATOM     31  C   UNL     1      -2.894  -6.717  -6.121  0.00  0.00    +0.005 A 
ATOM     32  C   UNL     1      -3.168  -6.153  -7.357  0.00  0.00    +0.020 A 
ATOM     33  C   UNL     1      -2.124  -5.668  -8.122  0.00  0.00    +0.111 A 
ATOM     34  N   UNL     1      -0.880  -5.738  -7.688  0.00  0.00    -0.263 NA
ATOM     35  C   UNL     1      -0.584  -6.262  -6.515  0.00  0.00    +0.112 A 
ENDBRANCH  29  30
ENDBRANCH  27  29
BRANCH  27  36
ATOM     36  C   UNL     1      -2.777  -5.940  -3.228  0.00  0.00    -0.001 C 
BRANCH  36  37
ATOM     37  C   UNL     1      -3.617  -7.093  -2.741  0.00  0.00    +0.089 A 
ATOM     38  C   UNL     1      -3.969  -7.325  -1.464  0.00  0.00    +0.042 A 
ATOM     39  C   UNL     1      -4.751  -8.503  -1.462  0.00  0.00    +0.041 A 
ATOM     40  C   UNL     1      -4.830  -8.920  -2.739  0.00  0.00    +0.195 A 
ATOM     41  O   UNL     1      -4.147  -8.058  -3.510  0.00  0.00    -0.470 OA
ENDBRANCH  36  37
ENDBRANCH  27  36
ENDBRANCH   1  27
TORSDOF 9
