REMARK  Name = ZINC63743053
REMARK  8 active torsions:
REMARK  status: ('A' for Active; 'I' for Inactive)
REMARK    1  A    between atoms: C_1  and  O_2
REMARK    2  A    between atoms: O_2  and  C_3
REMARK    3  A    between atoms: C_8  and  S_13
REMARK    4  A    between atoms: S_13  and  C_14
REMARK    5  A    between atoms: C_14  and  C_15
REMARK    6  A    between atoms: N_24  and  C_25
REMARK    7  A    between atoms: C_25  and  C_26
REMARK    8  A    between atoms: C_26  and  O_27
REMARK                            x       y       z     vdW  Elec       q    Type
REMARK                         _______ _______ _______ _____ _____    ______ ____
ROOT
ATOM      1  C   UNL     1      -0.339  -3.826  -5.147  0.00  0.00    +0.115 C 
ENDROOT
BRANCH   1   2
ATOM      2  C   UNL     1      -1.283  -4.451  -6.176  0.00  0.00    +0.169 C 
ATOM      3  N   UNL     1      -1.563  -5.848  -5.824  0.00  0.00    -0.324 N 
ATOM      4  C   UNL     1      -1.104  -6.646  -6.882  0.00  0.00    +0.050 A 
ATOM      5  C   UNL     1      -1.127  -8.025  -7.048  0.00  0.00    +0.026 A 
ATOM      6  C   UNL     1      -0.607  -8.596  -8.194  0.00  0.00    +0.022 A 
ATOM      7  C   UNL     1      -0.061  -7.795  -9.181  0.00  0.00    +0.043 A 
ATOM      8  C   UNL     1      -0.034  -6.422  -9.025  0.00  0.00    +0.045 A 
ATOM      9  C   UNL     1      -0.554  -5.840  -7.875  0.00  0.00    +0.054 A 
ATOM     10  N   UNL     1      -0.639  -4.492  -7.495  0.00  0.00    -0.307 N 
ATOM     11 CL   UNL     1       0.592  -8.517 -10.619  0.00  0.00    -0.083 Cl
ATOM     12  H   UNL     1      -1.986  -6.162  -5.009  0.00  0.00    +0.148 HD
BRANCH  10  13
ATOM     13  C   UNL     1      -0.172  -3.339  -8.269  0.00  0.00    +0.135 C 
BRANCH  13  14
ATOM     14  C   UNL     1       1.283  -3.036  -7.904  0.00  0.00    +0.174 C 
BRANCH  14  15
ATOM     15  O   UNL     1       2.113  -4.126  -8.311  0.00  0.00    -0.393 OA
ATOM     16  H   UNL     1       3.051  -4.002  -8.111  0.00  0.00    +0.209 HD
ENDBRANCH  14  15
ENDBRANCH  13  14
ENDBRANCH  10  13
ENDBRANCH   1   2
BRANCH   1  17
ATOM     17  S   UNL     1       1.191  -4.797  -5.061  0.00  0.00    -0.112 S 
BRANCH  17  23
ATOM     18  C   UNL     1       0.605  -0.606  -1.054  0.00  0.00    +0.122 A 
ATOM     19  C   UNL     1       1.193   0.221  -2.099  0.00  0.00    +0.048 A 
ATOM     20  C   UNL     1       1.804  -0.317  -3.171  0.00  0.00    +0.031 A 
ATOM     21  C   UNL     1       1.890  -1.778  -3.307  0.00  0.00    +0.061 A 
ATOM     22  N   UNL     1       2.412  -2.544  -4.221  0.00  0.00    -0.355 N 
ATOM     23  C   UNL     1       2.188  -3.936  -3.814  0.00  0.00    +0.235 C 
ATOM     24  N   UNL     1       1.464  -3.883  -2.538  0.00  0.00    -0.355 N 
ATOM     25  C   UNL     1       1.289  -2.624  -2.240  0.00  0.00    +0.064 A 
ATOM     26  C   UNL     1       0.647  -1.960  -1.104  0.00  0.00    +0.073 A 
ATOM     27  H   UNL     1       2.866  -2.248  -5.026  0.00  0.00    +0.162 HD
ATOM     28  H   UNL     1       1.171  -4.644  -2.012  0.00  0.00    +0.162 HD
BRANCH  18  30
ATOM     29  C   UNL     1      -0.017   1.425   0.010  0.00  0.00    +0.277 C 
ATOM     30  O   UNL     1       0.002  -0.004   0.002  0.00  0.00    -0.495 OA
ENDBRANCH  18  30
ENDBRANCH  17  23
ENDBRANCH   1  17
TORSDOF 7
