REMARK  Name = ZINC20424346
REMARK  10 active torsions:
REMARK  status: ('A' for Active; 'I' for Inactive)
REMARK    1  A    between atoms: C_1  and  C_2
REMARK    2  A    between atoms: C_3  and  C_8
REMARK    3  A    between atoms: N_5  and  C_7
REMARK    4  A    between atoms: N_9  and  N_10
REMARK    5  A    between atoms: C_13  and  S_16
REMARK    6  A    between atoms: S_16  and  C_17
REMARK    7  A    between atoms: C_17  and  C_18
REMARK    8  A    between atoms: N_20  and  C_21
REMARK    9  A    between atoms: C_21  and  C_22
REMARK   10  A    between atoms: C_21  and  C_28
REMARK                            x       y       z     vdW  Elec       q    Type
REMARK                         _______ _______ _______ _____ _____    ______ ____
ROOT
ATOM      1  S   UNL     1       9.562  -3.770  -0.105  0.00  0.00    -0.075 S 
ENDROOT
BRANCH   1   5
ATOM      2  N   UNL     1       5.606  -0.384  -0.052  0.00  0.00    -0.205 N 
ATOM      3  C   UNL     1       6.303  -1.583  -0.065  0.00  0.00    +0.232 A 
ATOM      4  N   UNL     1       7.663  -1.722  -0.078  0.00  0.00    -0.186 NA
ATOM      5  C   UNL     1       7.951  -3.058  -0.087  0.00  0.00    +0.211 A 
ATOM      6  N   UNL     1       6.817  -3.717  -0.080  0.00  0.00    -0.144 NA
ATOM      7  N   UNL     1       5.773  -2.783  -0.060  0.00  0.00    -0.245 N 
ATOM      8  H   UNL     1       6.153   0.570  -0.052  0.00  0.00    +0.177 HD
ATOM      9  H   UNL     1       4.679  -2.901  -0.044  0.00  0.00    +0.192 HD
BRANCH   2  11
ATOM     10  C   UNL     1       3.553   0.734  -0.028  0.00  0.00    +0.141 C 
ATOM     11  N   UNL     1       4.205  -0.388  -0.039  0.00  0.00    -0.187 NA
BRANCH  10  14
ATOM     12  C   UNL     1       1.706  -1.843  -0.024  0.00  0.00    +0.068 C 
ATOM     13  C   UNL     1       1.244  -0.409  -0.012  0.00  0.00    +0.069 A 
ATOM     14  C   UNL     1       2.077   0.730  -0.014  0.00  0.00    +0.035 A 
ATOM     15  C   UNL     1       1.257   1.837  -0.000  0.00  0.00    +0.117 A 
ATOM     16  N   UNL     1      -0.017   1.395   0.010  0.00  0.00    -0.274 N 
ATOM     17  N   UNL     1       0.002  -0.004   0.002  0.00  0.00    -0.176 NA
ATOM     18  C   UNL     1      -1.216   2.237   0.020  0.00  0.00    +0.172 C 
ENDBRANCH  10  14
ENDBRANCH   2  11
ENDBRANCH   1   5
BRANCH   1  19
ATOM     19  C   UNL     1       9.252  -5.557  -0.111  0.00  0.00    +0.173 C 
BRANCH  19  20
ATOM     20  C   UNL     1      10.566  -6.295  -0.126  0.00  0.00    +0.224 C 
ATOM     21  O   UNL     1      11.609  -5.676  -0.133  0.00  0.00    -0.275 OA
ATOM     22  N   UNL     1      10.582  -7.643  -0.133  0.00  0.00    -0.304 N 
ATOM     23  H   UNL     1       9.636  -8.204  -0.127  0.00  0.00    +0.150 HD
BRANCH  22  24
ATOM     24  C   UNL     1      11.860  -8.360  -0.148  0.00  0.00    +0.134 C 
BRANCH  24  25
ATOM     25  C   UNL     1      11.673  -9.732   0.448  0.00  0.00    -0.023 A 
ATOM     26  C   UNL     1      10.530 -10.457   0.166  0.00  0.00    +0.006 A 
ATOM     27  C   UNL     1      10.361 -11.718   0.708  0.00  0.00    +0.000 A 
ATOM     28  C   UNL     1      11.329 -12.248   1.540  0.00  0.00    +0.000 A 
ATOM     29  C   UNL     1      12.469 -11.520   1.827  0.00  0.00    +0.000 A 
ATOM     30  C   UNL     1      12.641 -10.261   1.280  0.00  0.00    +0.006 A 
ENDBRANCH  24  25
BRANCH  24  31
ATOM     31  C   UNL     1      12.346  -8.491  -1.568  0.00  0.00    -0.023 A 
ATOM     32  C   UNL     1      11.450  -8.777  -2.582  0.00  0.00    +0.006 A 
ATOM     33  C   UNL     1      11.895  -8.892  -3.885  0.00  0.00    +0.000 A 
ATOM     34  C   UNL     1      13.237  -8.732  -4.174  0.00  0.00    +0.000 A 
ATOM     35  C   UNL     1      14.134  -8.451  -3.160  0.00  0.00    +0.000 A 
ATOM     36  C   UNL     1      13.688  -8.331  -1.857  0.00  0.00    +0.006 A 
ENDBRANCH  24  31
ENDBRANCH  22  24
ENDBRANCH  19  20
ENDBRANCH   1  19
TORSDOF 8
