REMARK  Name = ZINC24535307
REMARK  8 active torsions:
REMARK  status: ('A' for Active; 'I' for Inactive)
REMARK    1  A    between atoms: C_1  and  C_2
REMARK    2  A    between atoms: C_6  and  C_27
REMARK    3  A    between atoms: C_7  and  N_8
REMARK    4  A    between atoms: C_9  and  C_11
REMARK    5  A    between atoms: C_11  and  N_12
REMARK    6  A    between atoms: C_13  and  C_15
REMARK    7  A    between atoms: C_15  and  S_16
REMARK    8  A    between atoms: S_16  and  C_17
REMARK                            x       y       z     vdW  Elec       q    Type
REMARK                         _______ _______ _______ _____ _____    ______ ____
ROOT
ATOM      1  N   UNL     1      -2.216  -2.835   0.261  0.00  0.00    -0.306 N 
ATOM      2  C   UNL     1      -2.339  -4.177   0.277  0.00  0.00    +0.224 C 
ATOM      3  O   UNL     1      -1.380  -4.877   0.028  0.00  0.00    -0.275 OA
ATOM      4  H   UNL     1      -3.086  -2.201   0.486  0.00  0.00    +0.149 HD
ENDROOT
BRANCH   1   5
ATOM      5  C   UNL     1      -0.925  -2.221  -0.057  0.00  0.00    +0.200 C 
BRANCH   5   7
ATOM      6  N   UNL     1       0.013   0.058  -0.267  0.00  0.00    -0.284 N 
ATOM      7  C   UNL     1      -1.056  -0.721  -0.007  0.00  0.00    +0.234 C 
ATOM      8  O   UNL     1      -2.123  -0.214   0.267  0.00  0.00    -0.274 OA
ATOM      9  H   UNL     1       0.956  -0.397  -0.604  0.00  0.00    +0.155 HD
BRANCH   6  16
ATOM     10  C   UNL     1       1.852   1.331   1.493  0.00  0.00    +0.045 C 
ATOM     11  C   UNL     1       0.801   2.107   0.742  0.00  0.00    -0.029 A 
ATOM     12  C   UNL     1       0.714   3.477   0.892  0.00  0.00    +0.005 A 
ATOM     13  C   UNL     1      -0.255   4.189   0.208  0.00  0.00    +0.001 A 
ATOM     14  C   UNL     1      -1.134   3.532  -0.633  0.00  0.00    +0.005 A 
ATOM     15  C   UNL     1      -1.048   2.163  -0.793  0.00  0.00    -0.029 A 
ATOM     16  C   UNL     1      -0.077   1.445  -0.107  0.00  0.00    +0.039 A 
ATOM     17  C   UNL     1      -2.007   1.449  -1.711  0.00  0.00    +0.045 C 
ENDBRANCH   6  16
ENDBRANCH   5   7
ENDBRANCH   1   5
BRANCH   2  18
ATOM     18  C   UNL     1      -3.668  -4.809   0.603  0.00  0.00    +0.173 C 
BRANCH  18  19
ATOM     19  S   UNL     1      -3.510  -6.611   0.543  0.00  0.00    -0.077 S 
BRANCH  19  20
ATOM     20  C   UNL     1      -5.160  -7.076   0.952  0.00  0.00    +0.191 A 
ATOM     21  N   UNL     1      -5.476  -8.364   1.018  0.00  0.00    -0.207 NA
ATOM     22  C   UNL     1      -6.697  -8.773   1.320  0.00  0.00    +0.129 A 
ATOM     23  C   UNL     1      -7.709  -7.809   1.585  0.00  0.00    +0.047 A 
ATOM     24  C   UNL     1      -9.106  -8.003   1.934  0.00  0.00    +0.021 A 
ATOM     25  C   UNL     1      -9.885  -6.932   2.141  0.00  0.00    +0.048 A 
ATOM     26  S   UNL     1      -8.780  -5.557   1.879  0.00  0.00    -0.077 S 
ATOM     27  C   UNL     1      -7.302  -6.460   1.498  0.00  0.00    +0.114 A 
ATOM     28  N   UNL     1      -6.061  -6.133   1.195  0.00  0.00    -0.215 NA
ATOM     29  N   UNL     1      -6.986 -10.124   1.378  0.00  0.00    -0.343 N 
ATOM     30  H   UNL     1      -8.004 -10.458   1.630  0.00  0.00    +0.144 HD
ATOM     31  H   UNL     1      -6.199 -10.865   1.172  0.00  0.00    +0.144 HD
ENDBRANCH  19  20
ENDBRANCH  18  19
ENDBRANCH   2  18
TORSDOF 6
