REMARK  Name = ZINC03116251
REMARK  5 active torsions:
REMARK  status: ('A' for Active; 'I' for Inactive)
REMARK    1  A    between atoms: C_1  and  C_2
REMARK    2  A    between atoms: C_2  and  C_4
REMARK    3  A    between atoms: C_7  and  N_10
REMARK    4  A    between atoms: C_11  and  C_12
REMARK    5  A    between atoms: C_17  and  O_18
REMARK                            x       y       z     vdW  Elec       q    Type
REMARK                         _______ _______ _______ _____ _____    ______ ____
ROOT
ATOM      1  N   UNL     1       1.240  -2.052  -0.014  0.00  0.00    -0.255 NA
ATOM      2  C   UNL     1       2.034  -2.691  -0.830  0.00  0.00    +0.123 C 
ENDROOT
BRANCH   2   3
ATOM      3  C   UNL     1       2.053  -4.160  -0.837  0.00  0.00    +0.037 A 
ATOM      4  C   UNL     1       2.902  -4.850  -1.710  0.00  0.00    +0.028 A 
ATOM      5  C   UNL     1       2.915  -6.228  -1.711  0.00  0.00    +0.020 A 
ATOM      6  C   UNL     1       2.090  -6.936  -0.850  0.00  0.00    +0.039 A 
ATOM      7  C   UNL     1       1.247  -6.268   0.018  0.00  0.00    +0.084 A 
ATOM      8  C   UNL     1       1.224  -4.881   0.037  0.00  0.00    +0.144 A 
ATOM      9 CL   UNL     1       0.219  -7.166   1.091  0.00  0.00    -0.080 Cl
ATOM     10 BR   UNL     1       4.062  -7.158  -2.891  0.00  0.00    -0.050 Br
BRANCH   8  11
ATOM     11  O   UNL     1       0.400  -4.224   0.892  0.00  0.00    -0.505 OA
ATOM     12  H   UNL     1      -0.477  -4.039   0.530  0.00  0.00    +0.292 HD
ENDBRANCH   8  11
ENDBRANCH   2   3
BRANCH   1  16
ATOM     13  C   UNL     1       1.188   2.077   0.004  0.00  0.00    +0.017 A 
ATOM     14  C   UNL     1      -0.017   1.360   0.022  0.00  0.00    +0.013 A 
ATOM     15  C   UNL     1       0.002  -0.004   0.017  0.00  0.00    +0.028 A 
ATOM     16  C   UNL     1       1.223  -0.688  -0.008  0.00  0.00    +0.064 A 
ATOM     17  C   UNL     1       2.426   0.027  -0.026  0.00  0.00    +0.028 A 
ATOM     18  C   UNL     1       2.410   1.391  -0.020  0.00  0.00    +0.013 A 
BRANCH  13  20
ATOM     19  C   UNL     1       2.460   4.314   0.116  0.00  0.00    +0.091 C 
ATOM     20  C   UNL     1       1.169   3.545   0.010  0.00  0.00    +0.160 C 
ATOM     21  O   UNL     1       0.114   4.138  -0.069  0.00  0.00    -0.292 OA
ENDBRANCH  13  20
ENDBRANCH   1  16
TORSDOF 4
