REMARK  Name = ZINC20749513
REMARK  7 active torsions:
REMARK  status: ('A' for Active; 'I' for Inactive)
REMARK    1  A    between atoms: C_1  and  O_2
REMARK    2  A    between atoms: O_2  and  C_3
REMARK    3  A    between atoms: C_8  and  C_9
REMARK    4  A    between atoms: C_20  and  O_25
REMARK    5  A    between atoms: O_25  and  C_26
REMARK    6  A    between atoms: C_26  and  C_27
REMARK    7  A    between atoms: C_27  and  C_28
REMARK                            x       y       z     vdW  Elec       q    Type
REMARK                         _______ _______ _______ _____ _____    ______ ____
ROOT
ATOM      1  C   UNL     1       1.267   1.710  -0.001  0.00  0.00    +0.108 C 
ATOM      2  C   UNL     1       1.002   2.970  -0.806  0.00  0.00    +0.029 C 
ATOM      3  C   UNL     1       2.112   4.029  -0.832  0.00  0.00    +0.033 C 
ATOM      4  C   UNL     1       1.305   5.316  -1.014  0.00  0.00    -0.030 C 
ATOM      5  C   UNL     1       0.077   5.153  -0.537  0.00  0.00    -0.023 C 
ATOM      6  C   UNL     1      -0.035   3.782   0.025  0.00  0.00    +0.049 C 
ATOM      7  C   UNL     1      -1.311   3.035   0.017  0.00  0.00    -0.016 A 
ATOM      8  C   UNL     1      -2.537   3.667   0.007  0.00  0.00    +0.051 A 
ATOM      9  C   UNL     1      -3.706   2.922   0.018  0.00  0.00    +0.121 A 
ATOM     10  C   UNL     1      -3.643   1.537   0.039  0.00  0.00    +0.047 A 
ATOM     11  C   UNL     1      -2.419   0.900   0.041  0.00  0.00    +0.027 A 
ATOM     12  C   UNL     1      -1.242   1.638   0.017  0.00  0.00    +0.032 A 
ATOM     13  N   UNL     1      -0.011   0.966   0.007  0.00  0.00    -0.336 N 
ATOM     14  H   UNL     1      -0.007  -0.134   0.006  0.00  0.00    +0.147 HD
ENDROOT
BRANCH   1  20
ATOM     15  C   UNL     1       3.677   1.112  -0.350  0.00  0.00    +0.125 A 
ATOM     16  C   UNL     1       4.666   0.349  -0.955  0.00  0.00    +0.046 A 
ATOM     17  C   UNL     1       4.321  -0.624  -1.873  0.00  0.00    +0.004 A 
ATOM     18  C   UNL     1       2.992  -0.842  -2.185  0.00  0.00    +0.001 A 
ATOM     19  C   UNL     1       2.005  -0.087  -1.579  0.00  0.00    +0.009 A 
ATOM     20  C   UNL     1       2.344   0.887  -0.660  0.00  0.00    +0.015 A 
BRANCH  15  22
ATOM     21  C   UNL     1       5.406   2.250   0.820  0.00  0.00    +0.277 C 
ATOM     22  O   UNL     1       4.014   2.074   0.549  0.00  0.00    -0.495 OA
ENDBRANCH  15  22
ENDBRANCH   1  20
BRANCH   9  23
ATOM     23  O   UNL     1      -4.913   3.549   0.007  0.00  0.00    -0.492 OA
BRANCH  23  24
ATOM     24  C   UNL     1      -6.076   2.719   0.019  0.00  0.00    +0.233 C 
BRANCH  24  25
ATOM     25  C   UNL     1      -7.330   3.596   0.004  0.00  0.00    +0.076 C 
BRANCH  25  26
ATOM     26  C   UNL     1      -8.556   2.720   0.017  0.00  0.00    -0.044 A 
ATOM     27  C   UNL     1      -9.120   2.304  -1.175  0.00  0.00    +0.004 A 
ATOM     28  C   UNL     1     -10.243   1.497  -1.164  0.00  0.00    +0.000 A 
ATOM     29  C   UNL     1     -10.806   1.113   0.038  0.00  0.00    +0.000 A 
ATOM     30  C   UNL     1     -10.244   1.532   1.230  0.00  0.00    +0.000 A 
ATOM     31  C   UNL     1      -9.119   2.336   1.219  0.00  0.00    +0.004 A 
ENDBRANCH  25  26
ENDBRANCH  24  25
ENDBRANCH  23  24
ENDBRANCH   9  23
TORSDOF 6
