REMARK  Name = ZINC35745410
REMARK  11 active torsions:
REMARK  status: ('A' for Active; 'I' for Inactive)
REMARK    1  A    between atoms: C_1  and  C_2
REMARK    2  A    between atoms: C_2  and  C_4
REMARK    3  A    between atoms: C_4  and  C_5
REMARK    4  A    between atoms: C_4  and  C_22
REMARK    5  A    between atoms: C_4  and  O_25
REMARK    6  A    between atoms: C_8  and  C_10
REMARK    7  A    between atoms: C_10  and  N_11
REMARK    8  A    between atoms: N_11  and  C_12
REMARK    9  A    between atoms: N_11  and  C_19
REMARK   10  A    between atoms: C_12  and  C_13
REMARK   11  A    between atoms: C_22  and  C_24
REMARK                            x       y       z     vdW  Elec       q    Type
REMARK                         _______ _______ _______ _____ _____    ______ ____
ROOT
ATOM      1  C   UNL     1      -1.928  -0.241   1.161  0.00  0.00    +0.145 A 
ATOM      2  C   UNL     1      -2.730  -1.134   1.767  0.00  0.00    +0.048 A 
ATOM      3  C   UNL     1      -3.288  -0.486   2.893  0.00  0.00    +0.043 A 
ATOM      4  C   UNL     1      -2.794   0.765   2.908  0.00  0.00    +0.089 A 
ATOM      5  O   UNL     1      -1.966   0.906   1.859  0.00  0.00    -0.463 OA
ENDROOT
BRANCH   1   6
ATOM      6  C   UNL     1      -1.120  -0.486  -0.087  0.00  0.00    +0.165 C 
BRANCH   6   8
ATOM      7  C   UNL     1       0.018   1.860   0.022  0.00  0.00    +0.042 C 
ATOM      8  C   UNL     1       0.127   0.359  -0.052  0.00  0.00    -0.037 C 
ATOM      9  C   UNL     1       1.306  -0.211  -0.085  0.00  0.00    +0.011 C 
ENDBRANCH   6   8
BRANCH   6  10
ATOM     10  C   UNL     1      -1.940  -0.121  -1.297  0.00  0.00    -0.037 C 
ATOM     11  C   UNL     1      -2.210  -1.028  -2.203  0.00  0.00    +0.011 C 
ATOM     12  C   UNL     1      -2.450   1.287  -1.465  0.00  0.00    +0.042 C 
ENDBRANCH   6  10
BRANCH   6  13
ATOM     13  O   UNL     1      -0.758  -1.867  -0.156  0.00  0.00    -0.373 OA
ATOM     14  H   UNL     1      -0.227  -2.172   0.593  0.00  0.00    +0.212 HD
ENDBRANCH   6  13
ENDBRANCH   1   6
BRANCH   4  15
ATOM     15  C   UNL     1      -3.110   1.826   3.930  0.00  0.00    -0.002 C 
BRANCH  15  16
ATOM     16  N   UNL     1      -2.231   1.661   5.095  0.00  0.00    +0.389 N 
ATOM     17  H   UNL     1      -2.308   0.717   5.443  0.00  0.00    -0.080 HD
BRANCH  16  18
ATOM     18  C   UNL     1      -2.632   2.604   6.148  0.00  0.00    -0.068 C 
ATOM     19  C   UNL     1      -2.749   2.063   7.574  0.00  0.00    -0.017 C 
ATOM     20  C   UNL     1      -4.011   2.412   6.782  0.00  0.00    -0.017 C 
ENDBRANCH  16  18
BRANCH  16  21
ATOM     21  C   UNL     1      -0.841   1.927   4.702  0.00  0.00    -0.042 C 
BRANCH  21  22
ATOM     22  C   UNL     1       0.074   1.639   5.864  0.00  0.00    -0.064 A 
ATOM     23  C   UNL     1       0.376   2.639   6.770  0.00  0.00    +0.002 A 
ATOM     24  C   UNL     1       1.215   2.375   7.836  0.00  0.00    +0.000 A 
ATOM     25  C   UNL     1       1.752   1.111   7.997  0.00  0.00    +0.000 A 
ATOM     26  C   UNL     1       1.449   0.111   7.092  0.00  0.00    +0.000 A 
ATOM     27  C   UNL     1       0.606   0.374   6.028  0.00  0.00    +0.002 A 
ENDBRANCH  21  22
ENDBRANCH  16  21
ENDBRANCH  15  16
ENDBRANCH   4  15
TORSDOF 9
