REMARK  Name = ZINC04867048
REMARK  3 active torsions:
REMARK  status: ('A' for Active; 'I' for Inactive)
REMARK    1  A    between atoms: C_7  and  C_15
REMARK    2  A    between atoms: N_17  and  N_18
REMARK    3  A    between atoms: C_19  and  C_20
REMARK                            x       y       z     vdW  Elec       q    Type
REMARK                         _______ _______ _______ _____ _____    ______ ____
ROOT
ATOM      1  C   UNL     1      -0.316   0.457  -4.199  0.00  0.00    +0.001 A 
ATOM      2  C   UNL     1      -1.490   1.184  -4.133  0.00  0.00    +0.004 A 
ATOM      3  C   UNL     1      -2.010   1.546  -2.906  0.00  0.00    +0.046 A 
ATOM      4  C   UNL     1      -1.355   1.181  -1.736  0.00  0.00    +0.133 A 
ATOM      5  C   UNL     1      -0.179   0.452  -1.805  0.00  0.00    +0.011 A 
ATOM      6  C   UNL     1       0.337   0.091  -3.037  0.00  0.00    +0.008 A 
ATOM      7  C   UNL     1       0.547   0.043  -0.552  0.00  0.00    +0.143 C 
ATOM      8  C   UNL     1      -0.367   0.133   0.640  0.00  0.00    +0.011 A 
ATOM      9  C   UNL     1      -0.031  -0.539   1.803  0.00  0.00    +0.008 A 
ATOM     10  C   UNL     1      -0.858  -0.470   2.908  0.00  0.00    +0.001 A 
ATOM     11  C   UNL     1      -2.024   0.272   2.855  0.00  0.00    +0.004 A 
ATOM     12  C   UNL     1      -2.362   0.944   1.698  0.00  0.00    +0.046 A 
ATOM     13  C   UNL     1      -1.532   0.878   0.585  0.00  0.00    +0.133 A 
ATOM     14  O   UNL     1      -1.881   1.544  -0.542  0.00  0.00    -0.455 OA
ENDROOT
BRANCH   7  15
ATOM     15  C   UNL     1       1.728   0.955  -0.343  0.00  0.00    +0.244 C 
ATOM     16  O   UNL     1       1.949   1.852  -1.129  0.00  0.00    -0.273 OA
ATOM     17  N   UNL     1       2.540   0.774   0.718  0.00  0.00    -0.206 N 
ATOM     18  H   UNL     1       2.363   0.057   1.347  0.00  0.00    +0.177 HD
BRANCH  17  19
ATOM     19  N   UNL     1       3.638   1.622   0.913  0.00  0.00    -0.186 NA
ATOM     20  C   UNL     1       4.344   1.531   1.998  0.00  0.00    +0.158 C 
BRANCH  20  21
ATOM     21  C   UNL     1       3.885   0.673   3.106  0.00  0.00    +0.083 A 
ATOM     22  C   UNL     1       4.688   0.514   4.238  0.00  0.00    +0.029 A 
ATOM     23  C   UNL     1       4.243  -0.295   5.269  0.00  0.00    +0.004 A 
ATOM     24  C   UNL     1       3.010  -0.919   5.137  0.00  0.00    +0.020 A 
ATOM     25  C   UNL     1       2.266  -0.718   3.989  0.00  0.00    +0.111 A 
ATOM     26  N   UNL     1       2.708   0.061   3.023  0.00  0.00    -0.254 NA
ENDBRANCH  20  21
ENDBRANCH  17  19
ENDBRANCH   7  15
TORSDOF 3
