REMARK  Name = ZINC01383665
REMARK  8 active torsions:
REMARK  status: ('A' for Active; 'I' for Inactive)
REMARK    1  A    between atoms: C_1  and  N_2
REMARK    2  A    between atoms: C_5  and  C_12
REMARK    3  A    between atoms: C_5  and  C_22
REMARK    4  A    between atoms: N_8  and  C_11
REMARK    5  A    between atoms: C_12  and  C_13
REMARK    6  A    between atoms: C_13  and  C_15
REMARK    7  A    between atoms: C_22  and  C_23
REMARK    8  A    between atoms: C_23  and  C_25
REMARK                            x       y       z     vdW  Elec       q    Type
REMARK                         _______ _______ _______ _____ _____    ______ ____
ROOT
ATOM      1  C   UNL     1      -0.018   1.461   0.010  0.00  0.00    +0.143 C 
ATOM      2  N   UNL     1       0.002  -0.004   0.002  0.00  0.00    -0.228 N 
ATOM      3  C   UNL     1      -1.169  -0.675   0.004  0.00  0.00    +0.239 C 
ATOM      4  O   UNL     1      -2.230  -0.088   0.012  0.00  0.00    -0.274 OA
ATOM      5  C   UNL     1      -1.109  -2.191  -0.005  0.00  0.00    +0.138 C 
ATOM      6  C   UNL     1       0.277  -2.807  -0.015  0.00  0.00    +0.239 C 
ATOM      7  O   UNL     1       0.430  -4.009  -0.024  0.00  0.00    -0.274 OA
ATOM      8  N   UNL     1       1.333  -1.966  -0.016  0.00  0.00    -0.228 N 
ATOM      9  C   UNL     1       1.181  -0.637  -0.013  0.00  0.00    +0.317 C 
ATOM     10  O   UNL     1       2.186   0.045  -0.019  0.00  0.00    -0.252 OA
ATOM     11  C   UNL     1       2.687  -2.526  -0.026  0.00  0.00    +0.143 C 
ENDROOT
BRANCH   5  12
ATOM     12  C   UNL     1      -1.849  -2.704   1.232  0.00  0.00    +0.105 C 
BRANCH  12  13
ATOM     13  C   UNL     1      -1.185  -2.166   2.473  0.00  0.00    +0.165 C 
ATOM     14  O   UNL     1      -0.216  -1.443   2.378  0.00  0.00    -0.292 OA
BRANCH  13  15
ATOM     15  C   UNL     1      -1.713  -2.517   3.801  0.00  0.00    +0.018 A 
ATOM     16  C   UNL     1      -2.827  -3.355   3.915  0.00  0.00    +0.012 A 
ATOM     17  C   UNL     1      -3.316  -3.680   5.162  0.00  0.00    +0.016 A 
ATOM     18  C   UNL     1      -2.706  -3.179   6.301  0.00  0.00    +0.018 A 
ATOM     19  C   UNL     1      -1.603  -2.349   6.196  0.00  0.00    +0.016 A 
ATOM     20  C   UNL     1      -1.099  -2.019   4.955  0.00  0.00    +0.012 A 
ATOM     21 BR   UNL     1      -3.385  -3.630   8.007  0.00  0.00    -0.050 Br
ENDBRANCH  13  15
ENDBRANCH  12  13
ENDBRANCH   5  12
BRANCH   5  22
ATOM     22  C   UNL     1      -1.861  -2.689  -1.240  0.00  0.00    +0.105 C 
BRANCH  22  23
ATOM     23  C   UNL     1      -1.210  -2.137  -2.482  0.00  0.00    +0.165 C 
ATOM     24  O   UNL     1      -0.240  -1.415  -2.388  0.00  0.00    -0.292 OA
BRANCH  23  25
ATOM     25  C   UNL     1      -1.751  -2.473  -3.808  0.00  0.00    +0.018 A 
ATOM     26  C   UNL     1      -2.873  -3.300  -3.920  0.00  0.00    +0.012 A 
ATOM     27  C   UNL     1      -3.375  -3.611  -5.166  0.00  0.00    +0.016 A 
ATOM     28  C   UNL     1      -2.770  -3.106  -6.306  0.00  0.00    +0.018 A 
ATOM     29  C   UNL     1      -1.658  -2.286  -6.202  0.00  0.00    +0.016 A 
ATOM     30  C   UNL     1      -1.149  -1.962  -4.963  0.00  0.00    +0.012 A 
ATOM     31 BR   UNL     1      -3.465  -3.538  -8.010  0.00  0.00    -0.050 Br
ENDBRANCH  23  25
ENDBRANCH  22  23
ENDBRANCH   5  22
TORSDOF 6
