REMARK  Name = ZINC40771279
REMARK  5 active torsions:
REMARK  status: ('A' for Active; 'I' for Inactive)
REMARK    1  A    between atoms: C_1  and  C_2
REMARK    2  A    between atoms: N_5  and  C_8
REMARK    3  A    between atoms: C_8  and  C_9
REMARK    4  A    between atoms: C_9  and  N_10
REMARK    5  A    between atoms: N_10  and  C_11
REMARK                            x       y       z     vdW  Elec       q    Type
REMARK                         _______ _______ _______ _____ _____    ______ ____
ROOT
ATOM      1  N   UNL     1       2.730  -5.803   1.138  0.00  0.00    -0.304 NA
ATOM      2  H   UNL     1       1.829  -6.258   1.155  0.00  0.00    +0.123 HD
ENDROOT
BRANCH   1   3
ATOM      3  C   UNL     1       3.569  -6.254   2.257  0.00  0.00    +0.174 C 
ATOM      4  C   UNL     1       4.178  -7.603   1.952  0.00  0.00    +0.014 A 
ATOM      5  C   UNL     1       3.703  -8.475   2.922  0.00  0.00    +0.040 A 
ATOM      6  C   UNL     1       4.106  -9.808   2.888  0.00  0.00    +0.024 A 
ATOM      7  C   UNL     1       4.965 -10.246   1.900  0.00  0.00    +0.003 A 
ATOM      8  C   UNL     1       5.432  -9.369   0.939  0.00  0.00    +0.016 A 
ATOM      9  C   UNL     1       5.035  -8.042   0.967  0.00  0.00    +0.025 A 
ATOM     10 BR   UNL     1       5.670  -6.836  -0.344  0.00  0.00    -0.050 Br
ATOM     11  N   UNL     1       2.856  -7.801   3.804  0.00  0.00    -0.284 N 
ATOM     12  C   UNL     1       2.724  -6.498   3.489  0.00  0.00    +0.239 C 
ATOM     13  O   UNL     1       2.054  -5.676   4.078  0.00  0.00    -0.273 OA
ATOM     14  H   UNL     1       2.415  -8.222   4.558  0.00  0.00    +0.155 HD
ENDBRANCH   1   3
BRANCH   1  15
ATOM     15  C   UNL     1       2.582  -4.341   1.147  0.00  0.00    +0.063 C 
BRANCH  15  16
ATOM     16  C   UNL     1       1.704  -3.911  -0.029  0.00  0.00    -0.063 C 
BRANCH  16  21
ATOM     17  C   UNL     1      -0.019   1.526   0.010  0.00  0.00    +0.007 C 
ATOM     18  C   UNL     1       0.002  -0.004   0.002  0.00  0.00    -0.018 C 
ATOM     19  C   UNL     1       0.727  -0.499  -1.252  0.00  0.00    -0.016 C 
ATOM     20  C   UNL     1       0.814  -2.027  -1.215  0.00  0.00    -0.079 C 
ATOM     21  N   UNL     1       1.556  -2.449  -0.021  0.00  0.00    +0.381 N 
ATOM     22  C   UNL     1       0.829  -2.040   1.187  0.00  0.00    -0.079 C 
ATOM     23  C   UNL     1       0.743  -0.513   1.242  0.00  0.00    -0.016 C 
ATOM     24  H   UNL     1       2.469  -2.020  -0.024  0.00  0.00    -0.082 HD
ENDBRANCH  16  21
ENDBRANCH  15  16
ENDBRANCH   1  15
TORSDOF 4
