REMARK  Name = ZINC59332281
REMARK  8 active torsions:
REMARK  status: ('A' for Active; 'I' for Inactive)
REMARK    1  A    between atoms: C_4  and  C_8
REMARK    2  A    between atoms: C_8  and  C_10
REMARK    3  A    between atoms: C_8  and  N_27
REMARK    4  A    between atoms: C_10  and  N_11
REMARK    5  A    between atoms: C_12  and  C_14
REMARK    6  A    between atoms: C_14  and  N_15
REMARK    7  A    between atoms: N_18  and  C_19
REMARK    8  A    between atoms: C_19  and  C_20
REMARK                            x       y       z     vdW  Elec       q    Type
REMARK                         _______ _______ _______ _____ _____    ______ ____
ROOT
ATOM      1  N   UNL     1       4.902  -1.984  -1.766  0.00  0.00    -0.315 N 
ATOM      2  C   UNL     1       5.090  -2.532  -2.983  0.00  0.00    +0.230 C 
ATOM      3  O   UNL     1       4.319  -2.283  -3.885  0.00  0.00    -0.274 OA
ATOM      4  H   UNL     1       5.518  -2.183  -1.044  0.00  0.00    +0.149 HD
ENDROOT
BRANCH   1   5
ATOM      5  C   UNL     1       3.765  -1.089  -1.533  0.00  0.00    +0.093 C 
BRANCH   5   6
ATOM      6  C   UNL     1       3.711  -0.708  -0.052  0.00  0.00    -0.016 C 
BRANCH   6  10
ATOM      7  C   UNL     1       7.149   1.628   0.943  0.00  0.00    +0.004 A 
ATOM      8  C   UNL     1       7.019   0.345   1.441  0.00  0.00    +0.038 A 
ATOM      9  C   UNL     1       5.906  -0.412   1.119  0.00  0.00    +0.126 A 
ATOM     10  C   UNL     1       4.923   0.116   0.299  0.00  0.00    -0.006 A 
ATOM     11  C   UNL     1       5.055   1.400  -0.198  0.00  0.00    +0.045 A 
ATOM     12  C   UNL     1       6.168   2.156   0.125  0.00  0.00    +0.020 A 
ATOM     13 CL   UNL     1       3.823   2.063  -1.226  0.00  0.00    -0.083 Cl
ATOM     14  F   UNL     1       5.779  -1.667   1.605  0.00  0.00    -0.205 F 
ENDBRANCH   6  10
BRANCH   6  15
ATOM     15  N   UNL     1       2.495   0.074   0.208  0.00  0.00    +0.385 N 
ATOM     16  C   UNL     1       1.294  -0.792   0.090  0.00  0.00    -0.078 C 
ATOM     17  C   UNL     1       0.224  -0.028   0.910  0.00  0.00    -0.020 C 
ATOM     18  C   UNL     1       1.039   0.544   2.093  0.00  0.00    -0.020 C 
ATOM     19  C   UNL     1       2.498   0.573   1.600  0.00  0.00    -0.078 C 
ATOM     20  H   UNL     1       2.433   0.847  -0.438  0.00  0.00    -0.081 HD
ENDBRANCH   6  15
ENDBRANCH   5   6
ENDBRANCH   1   5
BRANCH   2  21
ATOM     21  C   UNL     1       6.259  -3.452  -3.222  0.00  0.00    +0.201 C 
BRANCH  21  22
ATOM     22  N   UNL     1       6.242  -3.911  -4.613  0.00  0.00    -0.291 N 
ATOM     23  C   UNL     1       7.199  -4.750  -5.058  0.00  0.00    +0.300 C 
ATOM     24  O   UNL     1       8.077  -5.125  -4.304  0.00  0.00    -0.253 OA
ATOM     25  N   UNL     1       7.184  -5.172  -6.338  0.00  0.00    -0.295 N 
ATOM     26  H   UNL     1       5.542  -3.612  -5.214  0.00  0.00    +0.151 HD
ATOM     27  H   UNL     1       6.484  -4.872  -6.939  0.00  0.00    +0.151 HD
BRANCH  25  28
ATOM     28  C   UNL     1       8.225  -6.083  -6.821  0.00  0.00    +0.141 C 
BRANCH  28  29
ATOM     29  C   UNL     1       7.980  -6.399  -8.274  0.00  0.00    -0.030 A 
ATOM     30  C   UNL     1       7.190  -7.478  -8.623  0.00  0.00    +0.008 A 
ATOM     31  C   UNL     1       6.964  -7.769  -9.955  0.00  0.00    +0.038 A 
ATOM     32  C   UNL     1       7.531  -6.979 -10.940  0.00  0.00    +0.123 A 
ATOM     33  C   UNL     1       8.322  -5.898 -10.590  0.00  0.00    +0.038 A 
ATOM     34  C   UNL     1       8.542  -5.606  -9.257  0.00  0.00    +0.008 A 
ATOM     35  F   UNL     1       7.311  -7.262 -12.243  0.00  0.00    -0.205 F 
ENDBRANCH  28  29
ENDBRANCH  25  28
ENDBRANCH  21  22
ENDBRANCH   2  21
TORSDOF 8
