REMARK  Name = ZINC03343884
REMARK  15 active torsions:
REMARK  status: ('A' for Active; 'I' for Inactive)
REMARK    1  A    between atoms: C_1  and  C_2
REMARK    2  A    between atoms: C_2  and  O_3
REMARK    3  A    between atoms: O_3  and  C_4
REMARK    4  A    between atoms: C_4  and  C_6
REMARK    5  A    between atoms: C_10  and  N_11
REMARK    6  A    between atoms: C_12  and  C_14
REMARK    7  A    between atoms: C_14  and  C_16
REMARK    8  A    between atoms: C_14  and  O_17
REMARK    9  A    between atoms: O_17  and  C_18
REMARK   10  A    between atoms: C_18  and  C_20
REMARK   11  A    between atoms: C_20  and  N_21
REMARK   12  A    between atoms: C_22  and  C_24
REMARK   13  A    between atoms: C_26  and  C_31
REMARK   14  A    between atoms: C_28  and  C_30
REMARK   15  A    between atoms: C_33  and  C_37
REMARK                            x       y       z     vdW  Elec       q    Type
REMARK                         _______ _______ _______ _____ _____    ______ ____
ROOT
ATOM      1  N   UNL     1       4.611   0.896   4.419  0.00  0.00    -0.276 N 
ATOM      2  C   UNL     1       5.895   1.106   4.066  0.00  0.00    +0.258 C 
ATOM      3  O   UNL     1       6.169   1.401   2.922  0.00  0.00    -0.271 OA
ATOM      4  H   UNL     1       4.392   0.660   5.334  0.00  0.00    +0.155 HD
ENDROOT
BRANCH   1   9
ATOM      5  C   UNL     1       2.236   0.845   3.643  0.00  0.00    +0.091 A 
ATOM      6  C   UNL     1       1.387   1.034   2.479  0.00  0.00    -0.021 A 
ATOM      7  C   UNL     1       2.035   1.365   1.342  0.00  0.00    -0.004 A 
ATOM      8  S   UNL     1       3.745   1.427   1.796  0.00  0.00    -0.077 S 
ATOM      9  C   UNL     1       3.604   1.019   3.474  0.00  0.00    +0.086 A 
ATOM     10  C   UNL     1       1.427   1.620  -0.003  0.00  0.00    +0.046 C 
ATOM     11  C   UNL     1      -0.013   1.086   0.008  0.00  0.00    -0.009 C 
ATOM     12  C   UNL     1      -0.714   1.583   1.276  0.00  0.00    +0.008 C 
ATOM     13  C   UNL     1      -0.129   0.880   2.502  0.00  0.00    +0.037 C 
ATOM     14  C   UNL     1      -0.758   1.595  -1.227  0.00  0.00    +0.008 C 
BRANCH   5  15
ATOM     15  C   UNL     1       1.672   0.484   4.945  0.00  0.00    +0.342 C 
ATOM     16  O   UNL     1       1.337   1.355   5.726  0.00  0.00    -0.245 OA
BRANCH  15  17
ATOM     17  O   UNL     1       1.523  -0.814   5.279  0.00  0.00    -0.461 OA
BRANCH  17  19
ATOM     18  C   UNL     1       0.865  -2.612   6.785  0.00  0.00    +0.048 C 
ATOM     19  C   UNL     1       0.956  -1.098   6.586  0.00  0.00    +0.229 C 
ENDBRANCH  17  19
ENDBRANCH  15  17
ENDBRANCH   5  15
ENDBRANCH   1   9
BRANCH   2  20
ATOM     20  C   UNL     1       6.990   0.972   5.093  0.00  0.00    +0.259 C 
ATOM     21  C   UNL     1       7.070  -0.480   5.566  0.00  0.00    +0.062 C 
BRANCH  20  22
ATOM     22  O   UNL     1       8.258   1.359   4.501  0.00  0.00    -0.451 OA
BRANCH  22  23
ATOM     23  C   UNL     1       9.176   1.892   5.322  0.00  0.00    +0.325 C 
ATOM     24  O   UNL     1       8.928   2.031   6.497  0.00  0.00    -0.249 OA
BRANCH  23  25
ATOM     25  C   UNL     1      10.516   2.318   4.779  0.00  0.00    +0.225 C 
BRANCH  25  26
ATOM     26  N   UNL     1      11.332   2.864   5.867  0.00  0.00    -0.301 N 
ATOM     27  C   UNL     1      12.579   3.311   5.614  0.00  0.00    +0.245 C 
ATOM     28  O   UNL     1      13.025   3.261   4.485  0.00  0.00    -0.270 OA
ATOM     29  H   UNL     1      10.976   2.903   6.768  0.00  0.00    +0.150 HD
BRANCH  27  30
ATOM     30  C   UNL     1      13.402   3.861   6.712  0.00  0.00    +0.037 A 
ATOM     31  C   UNL     1      12.890   3.925   8.008  0.00  0.00    +0.016 A 
ATOM     32  C   UNL     1      13.666   4.436   9.029  0.00  0.00    -0.049 A 
ATOM     33  C   UNL     1      14.945   4.894   8.767  0.00  0.00    +0.006 A 
ATOM     34  C   UNL     1      15.457   4.838   7.482  0.00  0.00    -0.049 A 
ATOM     35  C   UNL     1      14.693   4.325   6.454  0.00  0.00    +0.016 A 
ATOM     36  C   UNL     1      16.851   5.340   7.206  0.00  0.00    +0.044 C 
ATOM     37  C   UNL     1      13.117   4.500  10.431  0.00  0.00    +0.044 C 
ENDBRANCH  27  30
ENDBRANCH  25  26
ENDBRANCH  23  25
ENDBRANCH  22  23
ENDBRANCH  20  22
ENDBRANCH   2  20
TORSDOF 10
