REMARK  Name = ZINC50784013
REMARK  7 active torsions:
REMARK  status: ('A' for Active; 'I' for Inactive)
REMARK    1  A    between atoms: C_1  and  N_2
REMARK    2  A    between atoms: C_3  and  C_5
REMARK    3  A    between atoms: C_10  and  N_11
REMARK    4  A    between atoms: N_11  and  C_12
REMARK    5  A    between atoms: C_12  and  C_13
REMARK    6  A    between atoms: N_15  and  C_16
REMARK    7  A    between atoms: N_15  and  C_17
REMARK                            x       y       z     vdW  Elec       q    Type
REMARK                         _______ _______ _______ _____ _____    ______ ____
ROOT
ATOM      1  C   UNL     1      -4.779  -2.975   0.462  0.00  0.00    +0.197 C 
ENDROOT
BRANCH   1   2
ATOM      2  C   UNL     1      -5.942  -2.020   0.555  0.00  0.00    +0.233 C 
ATOM      3  O   UNL     1      -5.757  -0.827   0.441  0.00  0.00    -0.274 OA
ATOM      4  N   UNL     1      -7.187  -2.492   0.763  0.00  0.00    -0.296 N 
ATOM      5  C   UNL     1      -7.410  -3.933   0.900  0.00  0.00    +0.132 C 
BRANCH   4   6
ATOM      6  C   UNL     1      -8.317  -1.564   0.853  0.00  0.00    +0.106 C 
ATOM      7  C   UNL     1      -8.964  -1.690   2.230  0.00  0.00    +0.027 C 
ATOM      8  C   UNL     1     -10.265  -0.878   2.229  0.00  0.00    +0.007 C 
ATOM      9  C   UNL     1     -11.276  -1.591   1.334  0.00  0.00    +0.035 C 
ATOM     10  C   UNL     1     -10.671  -1.895  -0.011  0.00  0.00    -0.042 A 
ATOM     11  C   UNL     1      -9.311  -1.886  -0.232  0.00  0.00    -0.024 A 
ATOM     12  C   UNL     1      -8.818  -2.181  -1.495  0.00  0.00    +0.006 A 
ATOM     13  C   UNL     1      -9.678  -2.480  -2.532  0.00  0.00    +0.000 A 
ATOM     14  C   UNL     1     -11.042  -2.485  -2.312  0.00  0.00    +0.000 A 
ATOM     15  C   UNL     1     -11.535  -2.194  -1.057  0.00  0.00    +0.004 A 
ENDBRANCH   4   6
ENDBRANCH   1   2
BRANCH   1  16
ATOM     16  N   UNL     1      -3.545  -2.221   0.234  0.00  0.00    -0.335 N 
ATOM     17  H   UNL     1      -3.572  -1.253   0.167  0.00  0.00    +0.147 HD
BRANCH  16  23
ATOM     18  C   UNL     1      -1.135  -2.167   0.011  0.00  0.00    +0.058 A 
ATOM     19  C   UNL     1       0.077  -2.853  -0.104  0.00  0.00    +0.016 A 
ATOM     20  C   UNL     1       0.089  -4.230  -0.120  0.00  0.00    +0.021 A 
ATOM     21  C   UNL     1      -1.098  -4.942  -0.023  0.00  0.00    +0.043 A 
ATOM     22  C   UNL     1      -2.304  -4.279   0.091  0.00  0.00    +0.043 A 
ATOM     23  C   UNL     1      -2.334  -2.890   0.115  0.00  0.00    +0.041 A 
ATOM     24 CL   UNL     1      -1.067  -6.678  -0.045  0.00  0.00    -0.083 Cl
BRANCH  18  27
ATOM     25  C   UNL     1      -0.015   1.460   0.072  0.00  0.00    +0.128 C 
ATOM     26  N   UNL     1       0.004  -0.005   0.054  0.00  0.00    -0.314 N 
ATOM     27  C   UNL     1      -1.154  -0.694   0.029  0.00  0.00    +0.246 C 
ATOM     28  O   UNL     1      -2.215  -0.099   0.021  0.00  0.00    -0.270 OA
ATOM     29  H   UNL     1       0.851  -0.479   0.060  0.00  0.00    +0.149 HD
ENDBRANCH  18  27
ENDBRANCH  16  23
ENDBRANCH   1  16
TORSDOF 5
