REMARK  Name = ZINC04598596
REMARK  6 active torsions:
REMARK  status: ('A' for Active; 'I' for Inactive)
REMARK    1  A    between atoms: C_1  and  C_2
REMARK    2  A    between atoms: C_6  and  N_8
REMARK    3  A    between atoms: C_21  and  C_29
REMARK    4  A    between atoms: C_22  and  C_24
REMARK    5  A    between atoms: N_26  and  C_27
REMARK    6  A    between atoms: N_26  and  C_28
REMARK                            x       y       z     vdW  Elec       q    Type
REMARK                         _______ _______ _______ _____ _____    ______ ____
ROOT
ATOM      1  N   UNL     1       0.046  -2.797   2.389  0.00  0.00    -0.243 N 
ATOM      2  C   UNL     1       0.138  -2.113   3.539  0.00  0.00    +0.141 C 
ATOM      3  S   UNL     1       0.333  -0.413   3.475  0.00  0.00    -0.018 S 
ATOM      4  N   UNL     1       0.083  -2.714   4.740  0.00  0.00    -0.318 N 
ATOM      5  C   UNL     1      -0.161  -4.163   4.821  0.00  0.00    +0.123 C 
ATOM      6  C   UNL     1      -1.645  -4.383   4.631  0.00  0.00    +0.015 A 
ATOM      7  C   UNL     1      -2.475  -4.341   5.736  0.00  0.00    +0.009 A 
ATOM      8  C   UNL     1      -3.836  -4.532   5.590  0.00  0.00    +0.001 A 
ATOM      9  C   UNL     1      -4.369  -4.765   4.335  0.00  0.00    +0.004 A 
ATOM     10  C   UNL     1      -3.543  -4.810   3.231  0.00  0.00    +0.046 A 
ATOM     11  C   UNL     1      -2.172  -4.620   3.374  0.00  0.00    +0.128 A 
ATOM     12  O   UNL     1      -1.389  -4.687   2.267  0.00  0.00    -0.467 OA
ATOM     13  C   UNL     1      -0.040  -4.254   2.359  0.00  0.00    +0.194 C 
ATOM     14  C   UNL     1       0.595  -4.826   3.658  0.00  0.00    +0.162 C 
ATOM     15  C   UNL     1       0.738  -4.784   1.153  0.00  0.00    +0.079 C 
ATOM     16  H   UNL     1       0.203  -2.194   5.550  0.00  0.00    +0.148 HD
ENDROOT
BRANCH   1  22
ATOM     17  C   UNL     1       2.487  -0.596  -1.267  0.00  0.00    +0.044 C 
ATOM     18  C   UNL     1       1.195  -1.012  -0.614  0.00  0.00    -0.049 A 
ATOM     19  C   UNL     1      -0.013  -0.697  -1.208  0.00  0.00    +0.003 A 
ATOM     20  C   UNL     1      -1.201  -1.076  -0.612  0.00  0.00    +0.002 A 
ATOM     21  C   UNL     1      -1.185  -1.773   0.581  0.00  0.00    +0.023 A 
ATOM     22  C   UNL     1       0.026  -2.092   1.181  0.00  0.00    +0.039 A 
ATOM     23  C   UNL     1       1.218  -1.713   0.576  0.00  0.00    +0.027 A 
ENDBRANCH   1  22
BRANCH  14  24
ATOM     24  C   UNL     1       0.403  -6.320   3.704  0.00  0.00    +0.226 C 
ATOM     25  O   UNL     1      -0.115  -6.894   2.769  0.00  0.00    -0.275 OA
ATOM     26  N   UNL     1       0.805  -7.019   4.784  0.00  0.00    -0.307 N 
ATOM     27  C   UNL     1       0.618  -8.471   4.828  0.00  0.00    +0.131 C 
ATOM     28  C   UNL     1       1.430  -6.325   5.913  0.00  0.00    +0.131 C 
ENDBRANCH  14  24
TORSDOF 2
