REMARK  Name = ZINC65988697
REMARK  4 active torsions:
REMARK  status: ('A' for Active; 'I' for Inactive)
REMARK    1  A    between atoms: C_1  and  C_2
REMARK    2  A    between atoms: C_2  and  C_3
REMARK    3  A    between atoms: C_2  and  C_4
REMARK    4  A    between atoms: C_9  and  N_12
REMARK                            x       y       z     vdW  Elec       q    Type
REMARK                         _______ _______ _______ _____ _____    ______ ____
ROOT
ATOM      1  N   UNL     1       4.828   2.202  -3.178  0.00  0.00    -0.296 N 
ATOM      2  C   UNL     1       5.901   1.992  -3.966  0.00  0.00    +0.303 C 
ATOM      3  O   UNL     1       6.369   0.875  -4.071  0.00  0.00    -0.253 OA
ATOM      4  N   UNL     1       6.455   3.021  -4.638  0.00  0.00    -0.282 N 
ATOM      5  C   UNL     1       5.950   4.343  -4.399  0.00  0.00    +0.113 C 
ATOM      6  C   UNL     1       7.010   5.399  -4.487  0.00  0.00    +0.007 C 
ATOM      7  C   UNL     1       8.280   5.026  -3.742  0.00  0.00    +0.008 C 
ATOM      8  C   UNL     1       9.274   4.230  -4.564  0.00  0.00    -0.009 C 
ATOM      9  C   UNL     1       9.528   4.900  -5.918  0.00  0.00    +0.007 C 
ATOM     10  C   UNL     1       8.182   4.978  -6.643  0.00  0.00    -0.009 C 
ATOM     11  C   UNL     1       7.274   5.932  -5.867  0.00  0.00    +0.008 C 
ATOM     12  C   UNL     1       7.548   3.614  -6.791  0.00  0.00    +0.026 C 
ATOM     13  C   UNL     1       7.537   2.739  -5.564  0.00  0.00    +0.078 C 
ATOM     14  C   UNL     1       8.855   2.787  -4.801  0.00  0.00    +0.026 C 
ATOM     15  H   UNL     1       4.499   3.103  -3.036  0.00  0.00    +0.151 HD
ENDROOT
BRANCH   1  21
ATOM     16  C   UNL     1       0.600  -0.552  -1.276  0.00  0.00    +0.218 C 
ATOM     17  O   UNL     1      -0.083  -1.195  -2.045  0.00  0.00    -0.275 OA
ATOM     18  N   UNL     1       1.898  -0.323  -1.558  0.00  0.00    -0.301 N 
ATOM     19  C   UNL     1       2.766   0.357  -0.587  0.00  0.00    +0.109 C 
ATOM     20  C   UNL     1       3.436   1.551  -1.275  0.00  0.00    +0.041 C 
ATOM     21  C   UNL     1       4.159   1.068  -2.535  0.00  0.00    +0.077 C 
ATOM     22  C   UNL     1       3.145   0.458  -3.505  0.00  0.00    +0.041 C 
ATOM     23  C   UNL     1       2.473  -0.753  -2.840  0.00  0.00    +0.109 C 
BRANCH  16  25
ATOM     24  C   UNL     1      -0.405   1.451  -0.215  0.00  0.00    +0.017 C 
ATOM     25  C   UNL     1      -0.003  -0.010  -0.006  0.00  0.00    +0.069 C 
ATOM     26  C   UNL     1      -1.239  -0.832   0.363  0.00  0.00    +0.017 C 
ENDBRANCH  16  25
ENDBRANCH   1  21
TORSDOF 2
