REMARK  Name = ZINC51544878
REMARK  8 active torsions:
REMARK  status: ('A' for Active; 'I' for Inactive)
REMARK    1  A    between atoms: C_1  and  C_2
REMARK    2  A    between atoms: C_2  and  C_3
REMARK    3  A    between atoms: C_3  and  N_4
REMARK    4  A    between atoms: N_4  and  C_5
REMARK    5  A    between atoms: C_5  and  C_6
REMARK    6  A    between atoms: C_9  and  O_12
REMARK    7  A    between atoms: O_12  and  C_13
REMARK    8  A    between atoms: C_17  and  C_19
REMARK                            x       y       z     vdW  Elec       q    Type
REMARK                         _______ _______ _______ _____ _____    ______ ____
ROOT
ATOM      1  C   UNL     1      -2.653  -4.018  -0.005  0.00  0.00    -0.045 A 
ATOM      2  C   UNL     1      -2.690  -4.716  -1.204  0.00  0.00    +0.028 A 
ATOM      3  C   UNL     1      -2.711  -6.100  -1.163  0.00  0.00    +0.103 A 
ATOM      4  C   UNL     1      -2.694  -6.739   0.072  0.00  0.00    +0.239 A 
ATOM      5  N   UNL     1      -2.659  -6.039   1.193  0.00  0.00    -0.220 NA
ATOM      6  C   UNL     1      -2.633  -4.719   1.184  0.00  0.00    +0.116 A 
ATOM      7 CL   UNL     1      -2.757  -7.024  -2.632  0.00  0.00    -0.078 Cl
ENDROOT
BRANCH   1   8
ATOM      8  C   UNL     1      -2.629  -2.511  -0.001  0.00  0.00    -0.045 C 
BRANCH   8   9
ATOM      9  N   UNL     1      -1.237  -2.044  -0.036  0.00  0.00    +0.382 N 
ATOM     10  H   UNL     1      -0.789  -2.385  -0.873  0.00  0.00    -0.085 HD
ATOM     11  H   UNL     1      -0.746  -2.390   0.774  0.00  0.00    -0.085 HD
BRANCH   9  12
ATOM     12  C   UNL     1      -1.214  -0.575  -0.032  0.00  0.00    -0.082 C 
BRANCH  12  14
ATOM     13  C   UNL     1       0.260   1.442  -0.064  0.00  0.00    +0.002 C 
ATOM     14  C   UNL     1       0.236  -0.088  -0.068  0.00  0.00    -0.022 C 
ENDBRANCH  12  14
ENDBRANCH   9  12
ENDBRANCH   8   9
ENDBRANCH   1   8
BRANCH   4  15
ATOM     15  O   UNL     1      -2.714  -8.095   0.127  0.00  0.00    -0.437 OA
BRANCH  15  16
ATOM     16  C   UNL     1      -2.595  -8.686   1.345  0.00  0.00    +0.131 A 
ATOM     17  C   UNL     1      -3.682  -8.725   2.207  0.00  0.00    +0.048 A 
ATOM     18  C   UNL     1      -3.559  -9.326   3.445  0.00  0.00    +0.024 A 
ATOM     19  C   UNL     1      -2.353  -9.889   3.825  0.00  0.00    +0.044 A 
ATOM     20  C   UNL     1      -1.269  -9.851   2.967  0.00  0.00    -0.029 A 
ATOM     21  C   UNL     1      -1.389  -9.255   1.726  0.00  0.00    +0.051 A 
ATOM     22  C   UNL     1       0.043 -10.464   3.384  0.00  0.00    +0.045 C 
ATOM     23 CL   UNL     1      -2.202 -10.643   5.381  0.00  0.00    -0.083 Cl
ENDBRANCH  15  16
ENDBRANCH   4  15
TORSDOF 6
