REMARK  Name = ZINC35374526
REMARK  9 active torsions:
REMARK  status: ('A' for Active; 'I' for Inactive)
REMARK    1  A    between atoms: C_1  and  C_2
REMARK    2  A    between atoms: C_2  and  C_3
REMARK    3  A    between atoms: C_3  and  C_5
REMARK    4  A    between atoms: C_3  and  C_6
REMARK    5  A    between atoms: C_6  and  N_7
REMARK    6  A    between atoms: C_8  and  C_10
REMARK    7  A    between atoms: C_21  and  C_23
REMARK    8  A    between atoms: C_23  and  C_24
REMARK    9  A    between atoms: C_24  and  C_25
REMARK                            x       y       z     vdW  Elec       q    Type
REMARK                         _______ _______ _______ _____ _____    ______ ____
ROOT
ATOM      1  C   UNL     1       1.840  -4.281  -4.174  0.00  0.00    +0.028 C 
ATOM      2  C   UNL     1       1.038  -3.683  -5.369  0.00  0.00    +0.061 C 
ATOM      3  S   UNL     1       1.526  -4.883  -6.685  0.00  0.00    -0.174 S 
ATOM      4  C   UNL     1       2.067  -6.260  -5.598  0.00  0.00    -0.016 C 
ATOM      5  N   UNL     1       1.763  -5.754  -4.244  0.00  0.00    +0.397 N 
ATOM      6  C   UNL     1       1.258  -7.510  -5.907  0.00  0.00    +0.017 C 
ATOM      7  C   UNL     1       1.696  -8.646  -4.976  0.00  0.00    +0.107 C 
ATOM      8  N   UNL     1       3.154  -8.802  -5.075  0.00  0.00    -0.302 N 
ATOM      9  C   UNL     1       4.009  -7.630  -4.840  0.00  0.00    +0.107 C 
ATOM     10  C   UNL     1       3.559  -6.498  -5.772  0.00  0.00    +0.017 C 
ATOM     11  C   UNL     1       3.697  -9.998  -5.377  0.00  0.00    +0.216 C 
ATOM     12  O   UNL     1       2.981 -10.958  -5.568  0.00  0.00    -0.276 OA
ATOM     13  H   UNL     1       2.425  -6.149  -3.592  0.00  0.00    -0.083 HD
ATOM     14  H   UNL     1       0.833  -6.047  -3.983  0.00  0.00    -0.083 HD
ENDROOT
BRANCH   1  16
ATOM     15  N   UNL     1       1.210  -2.487  -2.591  0.00  0.00    -0.316 N 
ATOM     16  C   UNL     1       1.243  -3.804  -2.875  0.00  0.00    +0.200 C 
ATOM     17  O   UNL     1       0.792  -4.606  -2.084  0.00  0.00    -0.278 OA
ATOM     18  H   UNL     1       1.571  -1.846  -3.224  0.00  0.00    +0.149 HD
BRANCH  15  19
ATOM     19  C   UNL     1       0.630  -2.023  -1.329  0.00  0.00    +0.107 C 
BRANCH  19  20
ATOM     20  C   UNL     1       0.718  -0.497  -1.257  0.00  0.00    +0.003 C 
ATOM     21  C   UNL     1       2.187  -0.073  -1.207  0.00  0.00    +0.009 C 
BRANCH  20  23
ATOM     22  C   UNL     1      -0.019   1.526   0.010  0.00  0.00    +0.004 C 
ATOM     23  C   UNL     1       0.002  -0.004   0.002  0.00  0.00    +0.001 C 
ENDBRANCH  20  23
ENDBRANCH  19  20
ENDBRANCH  15  19
ENDBRANCH   1  16
BRANCH  11  24
ATOM     24  C   UNL     1       5.194 -10.142  -5.476  0.00  0.00    +0.096 C 
BRANCH  24  25
ATOM     25  C   UNL     1       5.544 -11.589  -5.827  0.00  0.00    +0.013 C 
BRANCH  25  26
ATOM     26  C   UNL     1       7.064 -11.736  -5.927  0.00  0.00    -0.011 C 
ATOM     27  C   UNL     1       7.591 -10.953  -7.148  0.00  0.00    +0.003 C 
ATOM     28  C   UNL     1       8.732 -11.840  -7.704  0.00  0.00    +0.000 C 
ATOM     29  C   UNL     1       8.178 -13.273  -7.508  0.00  0.00    +0.000 C 
ATOM     30  C   UNL     1       7.437 -13.211  -6.156  0.00  0.00    +0.003 C 
ENDBRANCH  25  26
ENDBRANCH  24  25
ENDBRANCH  11  24
TORSDOF 7
