REMARK  Name = ZINC13370773
REMARK  11 active torsions:
REMARK  status: ('A' for Active; 'I' for Inactive)
REMARK    1  A    between atoms: C_1  and  C_2
REMARK    2  A    between atoms: C_2  and  C_4
REMARK    3  A    between atoms: C_8  and  C_36
REMARK    4  A    between atoms: C_17  and  C_35
REMARK    5  A    between atoms: C_22  and  C_33
REMARK    6  A    between atoms: C_22  and  C_34
REMARK    7  A    between atoms: C_27  and  C_32
REMARK    8  A    between atoms: C_28  and  C_31
REMARK    9  A    between atoms: C_36  and  O_37
REMARK   10  A    between atoms: O_37  and  C_38
REMARK   11  A    between atoms: C_38  and  C_40
REMARK                            x       y       z     vdW  Elec       q    Type
REMARK                         _______ _______ _______ _____ _____    ______ ____
ROOT
ATOM      1  C   UNL     1       2.043  -0.893   0.660  0.00  0.00    +0.018 C 
ATOM      2  C   UNL     1       1.268  -2.041  -0.060  0.00  0.00    +0.009 C 
ATOM      3  C   UNL     1      -0.167  -1.494  -0.271  0.00  0.00    +0.011 C 
ATOM      4  C   UNL     1      -0.082   0.002   0.044  0.00  0.00    +0.009 C 
ATOM      5  C   UNL     1       1.412   0.312  -0.037  0.00  0.00    +0.009 C 
ATOM      6  C   UNL     1       1.797   1.707   0.321  0.00  0.00    -0.000 C 
ATOM      7  C   UNL     1       1.698   2.039   1.801  0.00  0.00    +0.005 C 
ATOM      8  C   UNL     1       2.380   3.391   2.062  0.00  0.00    +0.005 C 
ATOM      9  C   UNL     1       2.580   4.133   0.746  0.00  0.00    +0.002 C 
ATOM     10  C   UNL     1       3.210   5.505   1.001  0.00  0.00    -0.025 C 
ATOM     11  C   UNL     1       4.632   5.266   1.547  0.00  0.00    +0.015 C 
ATOM     12  C   UNL     1       5.280   6.602   1.896  0.00  0.00    +0.075 C 
ATOM     13  C   UNL     1       5.255   7.525   0.708  0.00  0.00    +0.139 C 
ATOM     14  O   UNL     1       6.218   8.237   0.485  0.00  0.00    -0.297 OA
ATOM     15  C   UNL     1       4.066   7.594  -0.219  0.00  0.00    +0.027 C 
ATOM     16  C   UNL     1       3.335   6.272  -0.307  0.00  0.00    +0.008 C 
ATOM     17  C   UNL     1       1.956   6.415  -0.954  0.00  0.00    +0.005 C 
ATOM     18  C   UNL     1       1.518   4.992  -1.352  0.00  0.00    +0.008 C 
ATOM     19  C   UNL     1       1.312   4.138  -0.098  0.00  0.00    -0.023 C 
ATOM     20  C   UNL     1       0.954   2.700  -0.500  0.00  0.00    -0.023 C 
ATOM     21  C   UNL     1      -0.533   2.403  -0.357  0.00  0.00    +0.008 C 
ATOM     22  C   UNL     1      -0.876   0.963  -0.797  0.00  0.00    +0.011 C 
ATOM     23  C   UNL     1       1.311   2.492  -1.981  0.00  0.00    +0.012 C 
ATOM     24  C   UNL     1       0.136   4.732   0.689  0.00  0.00    +0.012 C 
ATOM     25  C   UNL     1       3.149   8.746   0.197  0.00  0.00    +0.019 C 
ATOM     26  C   UNL     1       4.617   7.937  -1.625  0.00  0.00    +0.019 C 
ATOM     27  C   UNL     1       2.430   6.288   2.053  0.00  0.00    +0.012 C 
ENDROOT
BRANCH   1  29
ATOM     28  C   UNL     1       3.983  -0.912  -1.084  0.00  0.00    +0.039 C 
ATOM     29  C   UNL     1       3.514  -0.979   0.346  0.00  0.00    -0.076 C 
ATOM     30  C   UNL     1       4.384  -1.111   1.316  0.00  0.00    +0.007 C 
ENDBRANCH   1  29
BRANCH   4  31
ATOM     31  C   UNL     1      -0.580   0.102   1.487  0.00  0.00    +0.239 C 
BRANCH  31  32
ATOM     32  O   UNL     1      -1.901  -0.491   1.586  0.00  0.00    -0.464 OA
BRANCH  32  33
ATOM     33  C   UNL     1      -2.483  -0.485   2.795  0.00  0.00    +0.304 C 
ATOM     34  O   UNL     1      -1.907   0.000   3.740  0.00  0.00    -0.251 OA
ATOM     35  C   UNL     1      -3.855  -1.082   2.974  0.00  0.00    +0.136 C 
ENDBRANCH  32  33
ENDBRANCH  31  32
ENDBRANCH   4  31
TORSDOF 4
