REMARK  Name = ZINC59896988
REMARK  7 active torsions:
REMARK  status: ('A' for Active; 'I' for Inactive)
REMARK    1  A    between atoms: C_1  and  C_2
REMARK    2  A    between atoms: C_2  and  C_3
REMARK    3  A    between atoms: C_2  and  C_4
REMARK    4  A    between atoms: C_14  and  C_16
REMARK    5  A    between atoms: C_16  and  C_17
REMARK    6  A    between atoms: C_17  and  C_19
REMARK    7  A    between atoms: C_17  and  N_24
REMARK                            x       y       z     vdW  Elec       q    Type
REMARK                         _______ _______ _______ _____ _____    ______ ____
ROOT
ATOM      1  C   UNL     1      -1.408  -0.559  -0.011  0.00  0.00    -0.044 A 
ATOM      2  C   UNL     1      -2.281  -0.160   0.986  0.00  0.00    +0.006 A 
ATOM      3  C   UNL     1      -3.568  -0.657   1.012  0.00  0.00    +0.024 A 
ATOM      4  C   UNL     1      -3.987  -1.557   0.038  0.00  0.00    +0.039 A 
ATOM      5  C   UNL     1      -3.113  -1.953  -0.962  0.00  0.00    -0.026 A 
ATOM      6  C   UNL     1      -1.824  -1.447  -0.983  0.00  0.00    +0.009 A 
ATOM      7  C   UNL     1      -3.535  -2.918  -2.038  0.00  0.00    +0.038 C 
ATOM      8  C   UNL     1      -4.753  -3.725  -1.588  0.00  0.00    +0.024 C 
ATOM      9  C   UNL     1      -5.832  -2.756  -1.088  0.00  0.00    +0.114 C 
ATOM     10  N   UNL     1      -5.297  -2.054   0.086  0.00  0.00    -0.271 N 
ATOM     11  C   UNL     1      -6.052  -1.890   1.190  0.00  0.00    +0.222 C 
ATOM     12  O   UNL     1      -5.566  -1.408   2.191  0.00  0.00    -0.275 OA
ENDROOT
BRANCH   1  14
ATOM     13  C   UNL     1      -0.045   1.507  -0.164  0.00  0.00    +0.012 C 
ATOM     14  C   UNL     1      -0.002  -0.017  -0.039  0.00  0.00    +0.013 C 
ATOM     15  C   UNL     1       0.719  -0.402   1.254  0.00  0.00    +0.012 C 
ENDBRANCH   1  14
BRANCH  11  16
ATOM     16  C   UNL     1      -7.500  -2.306   1.181  0.00  0.00    +0.124 C 
BRANCH  16  17
ATOM     17  C   UNL     1      -8.126  -2.005   2.544  0.00  0.00    +0.120 C 
BRANCH  17  18
ATOM     18  N   UNL     1      -7.491  -2.838   3.568  0.00  0.00    -0.292 N 
ATOM     19  C   UNL     1      -7.482  -2.435   4.854  0.00  0.00    +0.298 C 
ATOM     20  O   UNL     1      -8.003  -1.381   5.165  0.00  0.00    -0.253 OA
ATOM     21  N   UNL     1      -6.898  -3.202   5.796  0.00  0.00    -0.313 N 
ATOM     22  H   UNL     1      -7.076  -3.679   3.320  0.00  0.00    +0.151 HD
ATOM     23  H   UNL     1      -6.483  -4.043   5.548  0.00  0.00    +0.146 HD
ATOM     24  H   UNL     1      -6.892  -2.912   6.722  0.00  0.00    +0.146 HD
ENDBRANCH  17  18
BRANCH  17  25
ATOM     25  C   UNL     1      -9.602  -2.306   2.497  0.00  0.00    +0.010 A 
ATOM     26  C   UNL     1     -10.643  -1.452   2.337  0.00  0.00    +0.013 A 
ATOM     27  C   UNL     1     -11.929  -1.958   2.324  0.00  0.00    +0.008 A 
ATOM     28  C   UNL     1     -12.112  -3.293   2.471  0.00  0.00    +0.045 A 
ATOM     29  S   UNL     1     -10.433  -3.880   2.628  0.00  0.00    -0.100 S 
ENDBRANCH  17  25
ENDBRANCH  16  17
ENDBRANCH  11  16
TORSDOF 5
