REMARK  Name = ZINC38872738
REMARK  5 active torsions:
REMARK  status: ('A' for Active; 'I' for Inactive)
REMARK    1  A    between atoms: C_3  and  C_6
REMARK    2  A    between atoms: C_8  and  C_11
REMARK    3  A    between atoms: C_11  and  N_12
REMARK    4  A    between atoms: C_15  and  C_18
REMARK    5  A    between atoms: N_20  and  C_21
REMARK                            x       y       z     vdW  Elec       q    Type
REMARK                         _______ _______ _______ _____ _____    ______ ____
ROOT
ATOM      1  N   UNL     1       7.781   1.178  -1.461  0.00  0.00    +0.386 N 
ATOM      2  C   UNL     1       7.804   2.496  -2.107  0.00  0.00    -0.077 C 
ATOM      3  C   UNL     1       8.192   2.340  -3.579  0.00  0.00    -0.006 C 
ATOM      4  C   UNL     1       9.580   1.700  -3.671  0.00  0.00    +0.071 C 
ATOM      5  C   UNL     1       9.563   0.360  -2.930  0.00  0.00    -0.006 C 
ATOM      6  C   UNL     1       9.125   0.589  -1.482  0.00  0.00    -0.077 C 
ATOM      7  H   UNL     1       7.142   0.574  -1.957  0.00  0.00    -0.081 HD
ENDROOT
BRANCH   4   8
ATOM      8  C   UNL     1       9.935   1.472  -5.117  0.00  0.00    +0.216 C 
ATOM      9  O   UNL     1       9.156   1.789  -5.990  0.00  0.00    -0.276 OA
ATOM     10  N   UNL     1      11.119   0.915  -5.441  0.00  0.00    -0.312 N 
ATOM     11  H   UNL     1      11.742   0.660  -4.743  0.00  0.00    +0.149 HD
BRANCH  10  12
ATOM     12  C   UNL     1      11.464   0.693  -6.847  0.00  0.00    +0.076 C 
ATOM     13  C   UNL     1      10.944  -0.685  -7.319  0.00  0.00    +0.026 C 
ATOM     14  C   UNL     1      12.227  -1.469  -7.733  0.00  0.00    -0.009 C 
ATOM     15  C   UNL     1      12.700  -0.777  -9.048  0.00  0.00    +0.004 C 
ATOM     16  C   UNL     1      13.218   0.608  -8.596  0.00  0.00    +0.005 C 
ATOM     17  C   UNL     1      13.012   0.614  -7.021  0.00  0.00    +0.010 C 
ATOM     18  C   UNL     1      13.260  -0.904  -6.695  0.00  0.00    +0.009 C 
ENDBRANCH  10  12
ENDBRANCH   4   8
BRANCH   1  19
ATOM     19  C   UNL     1       7.333   1.324  -0.070  0.00  0.00    +0.022 C 
BRANCH  19  22
ATOM     20  C   UNL     1       3.738   1.826  -0.024  0.00  0.00    +0.209 A 
ATOM     21  N   UNL     1       4.846   1.060  -0.044  0.00  0.00    -0.192 NA
ATOM     22  C   UNL     1       5.908   1.813  -0.049  0.00  0.00    +0.211 A 
ATOM     23  O   UNL     1       5.522   3.095  -0.032  0.00  0.00    -0.340 OA
ATOM     24  N   UNL     1       4.102   3.087  -0.022  0.00  0.00    -0.056 NA
BRANCH  20  27
ATOM     25  C   UNL     1      -0.016   1.355   0.009  0.00  0.00    +0.008 A 
ATOM     26  C   UNL     1       1.176   2.042   0.002  0.00  0.00    +0.019 A 
ATOM     27  C   UNL     1       2.346   1.330  -0.013  0.00  0.00    +0.060 A 
ATOM     28  S   UNL     1       1.753  -0.354  -0.017  0.00  0.00    -0.093 S 
ATOM     29  C   UNL     1       0.002  -0.004   0.002  0.00  0.00    +0.046 A 
ENDBRANCH  20  27
ENDBRANCH  19  22
ENDBRANCH   1  19
TORSDOF 5
