REMARK  Name = ZINC00058722
REMARK  4 active torsions:
REMARK  status: ('A' for Active; 'I' for Inactive)
REMARK    1  A    between atoms: C_4  and  N_22
REMARK    2  A    between atoms: C_6  and  C_7
REMARK    3  A    between atoms: C_9  and  C_20
REMARK    4  A    between atoms: C_10  and  N_19
REMARK                            x       y       z     vdW  Elec       q    Type
REMARK                         _______ _______ _______ _____ _____    ______ ____
ROOT
ATOM      1  C   UNL     1      -1.287  -0.790   0.006  0.00  0.00    +0.101 C 
ATOM      2  C   UNL     1      -2.422   0.082   0.466  0.00  0.00    +0.098 C 
ATOM      3  C   UNL     1      -2.299   1.432   0.449  0.00  0.00    +0.198 C 
ATOM      4  O   UNL     1      -1.175   2.027   0.018  0.00  0.00    -0.445 OA
ATOM      5  C   UNL     1      -0.016   1.341   0.009  0.00  0.00    +0.115 C 
ATOM      6  C   UNL     1       0.002  -0.004   0.002  0.00  0.00    +0.046 C 
ATOM      7  C   UNL     1       1.215  -0.720  -0.008  0.00  0.00    +0.163 C 
ATOM      8  O   UNL     1       1.190  -1.934  -0.037  0.00  0.00    -0.292 OA
ATOM      9  C   UNL     1       2.540  -0.008   0.018  0.00  0.00    +0.080 C 
ATOM     10  C   UNL     1       2.364   1.340   0.727  0.00  0.00    +0.016 C 
ATOM     11  C   UNL     1       1.273   2.130   0.001  0.00  0.00    +0.075 C 
ENDROOT
BRANCH   1  17
ATOM     12  C   UNL     1      -1.731  -0.389  -2.424  0.00  0.00    +0.006 A 
ATOM     13  C   UNL     1      -1.993  -0.846  -3.702  0.00  0.00    +0.022 A 
ATOM     14  C   UNL     1      -2.096  -2.205  -3.943  0.00  0.00    +0.071 A 
ATOM     15  C   UNL     1      -1.937  -3.105  -2.904  0.00  0.00    +0.145 A 
ATOM     16  C   UNL     1      -1.670  -2.647  -1.628  0.00  0.00    +0.038 A 
ATOM     17  C   UNL     1      -1.573  -1.289  -1.387  0.00  0.00    -0.032 A 
ATOM     18 CL   UNL     1      -2.425  -2.780  -5.548  0.00  0.00    -0.081 Cl
BRANCH  15  19
ATOM     19  N   UNL     1      -2.047  -4.558  -3.161  0.00  0.00    +0.058 N 
ATOM     20  O   UNL     1      -1.907  -5.351  -2.247  0.00  0.00    -0.126 OA
ATOM     21  O   UNL     1      -2.278  -4.962  -4.287  0.00  0.00    -0.126 OA
ENDBRANCH  15  19
ENDBRANCH   1  17
BRANCH   3  22
ATOM     22  N   UNL     1      -3.347   2.207   0.880  0.00  0.00    -0.328 N 
ATOM     23  H   UNL     1      -4.164   1.788   1.191  0.00  0.00    +0.145 HD
ATOM     24  H   UNL     1      -3.270   3.174   0.873  0.00  0.00    +0.145 HD
ENDBRANCH   3  22
BRANCH   2  25
ATOM     25  C   UNL     1      -3.639  -0.516   0.924  0.00  0.00    +0.101 C 
ATOM     26  N   UNL     1      -4.605  -0.991   1.287  0.00  0.00    -0.191 NA
ENDBRANCH   2  25
TORSDOF 4
