REMARK  Name = ZINC39722388
REMARK  6 active torsions:
REMARK  status: ('A' for Active; 'I' for Inactive)
REMARK    1  A    between atoms: C_4  and  C_7
REMARK    2  A    between atoms: C_7  and  N_8
REMARK    3  A    between atoms: C_16  and  S_18
REMARK    4  A    between atoms: S_18  and  C_19
REMARK    5  A    between atoms: C_19  and  C_20
REMARK    6  A    between atoms: C_28  and  C_32
REMARK                            x       y       z     vdW  Elec       q    Type
REMARK                         _______ _______ _______ _____ _____    ______ ____
ROOT
ATOM      1  N   UNL     1       4.152  -0.952   1.338  0.00  0.00    -0.297 N 
ATOM      2  C   UNL     1       4.948  -0.103   2.119  0.00  0.00    +0.053 A 
ATOM      3  C   UNL     1       5.509   1.134   1.823  0.00  0.00    +0.026 A 
ATOM      4  C   UNL     1       6.270   1.795   2.767  0.00  0.00    +0.022 A 
ATOM      5  C   UNL     1       6.478   1.228   4.012  0.00  0.00    +0.043 A 
ATOM      6  C   UNL     1       5.925  -0.001   4.316  0.00  0.00    +0.044 A 
ATOM      7  C   UNL     1       5.157  -0.673   3.372  0.00  0.00    +0.052 A 
ATOM      8  N   UNL     1       4.503  -1.911   3.445  0.00  0.00    -0.316 N 
ATOM      9  C   UNL     1       3.836  -2.130   2.155  0.00  0.00    +0.220 C 
ATOM     10 CL   UNL     1       7.437   2.063   5.195  0.00  0.00    -0.083 Cl
ATOM     11  H   UNL     1       4.491  -2.510   4.207  0.00  0.00    +0.149 HD
ENDROOT
BRANCH   1  12
ATOM     12  C   UNL     1       3.711  -0.707  -0.038  0.00  0.00    +0.143 C 
BRANCH  12  16
ATOM     13  C   UNL     1      -0.017   1.378   0.010  0.00  0.00    +0.000 A 
ATOM     14  C   UNL     1       1.171   2.086   0.002  0.00  0.00    +0.000 A 
ATOM     15  C   UNL     1       2.377   1.411  -0.013  0.00  0.00    +0.005 A 
ATOM     16  C   UNL     1       2.396   0.029  -0.020  0.00  0.00    -0.030 A 
ATOM     17  C   UNL     1       1.208  -0.679  -0.012  0.00  0.00    +0.005 A 
ATOM     18  C   UNL     1       0.002  -0.004   0.002  0.00  0.00    +0.000 A 
ENDBRANCH  12  16
ENDBRANCH   1  12
BRANCH   9  19
ATOM     19  S   UNL     1       4.482  -3.631   1.367  0.00  0.00    -0.112 S 
BRANCH  19  20
ATOM     20  C   UNL     1       6.269  -3.339   1.266  0.00  0.00    +0.146 C 
BRANCH  20  21
ATOM     21  C   UNL     1       6.936  -4.527   0.622  0.00  0.00    +0.120 A 
ATOM     22  N   UNL     1       8.285  -4.500   0.461  0.00  0.00    -0.310 N 
ATOM     23  H   UNL     1       8.789  -3.727   0.760  0.00  0.00    +0.170 HD
ATOM     24  C   UNL     1       8.932  -5.541  -0.112  0.00  0.00    +0.259 A 
ATOM     25  O   UNL     1      10.140  -5.531  -0.261  0.00  0.00    -0.267 OA
ATOM     26  C   UNL     1       8.117  -6.689  -0.547  0.00  0.00    +0.065 A 
ATOM     27  C   UNL     1       8.689  -7.810  -1.146  0.00  0.00    +0.016 A 
ATOM     28  C   UNL     1       7.896  -8.852  -1.534  0.00  0.00    +0.016 A 
ATOM     29  C   UNL     1       6.510  -8.806  -1.335  0.00  0.00    +0.065 A 
ATOM     30  C   UNL     1       5.920  -7.697  -0.739  0.00  0.00    +0.043 A 
ATOM     31  C   UNL     1       6.722  -6.626  -0.338  0.00  0.00    +0.079 A 
ATOM     32  N   UNL     1       6.193  -5.525   0.253  0.00  0.00    -0.233 NA
BRANCH  29  33
ATOM     33  C   UNL     1       5.669  -9.944  -1.762  0.00  0.00    +0.387 C 
ATOM     34  O   UNL     1       6.183 -10.921  -2.286  0.00  0.00    -0.241 OA
ATOM     35  O   UNL     1       4.459  -9.909  -1.589  0.00  0.00    -0.241 OA
ENDBRANCH  29  33
ENDBRANCH  20  21
ENDBRANCH  19  20
ENDBRANCH   9  19
TORSDOF 6
