REMARK  Name = ZINC63706826
REMARK  8 active torsions:
REMARK  status: ('A' for Active; 'I' for Inactive)
REMARK    1  A    between atoms: N_9  and  C_10
REMARK    2  A    between atoms: C_10  and  C_12
REMARK    3  A    between atoms: C_10  and  C_30
REMARK    4  A    between atoms: C_12  and  N_13
REMARK    5  A    between atoms: C_14  and  C_16
REMARK    6  A    between atoms: N_18  and  C_19
REMARK    7  A    between atoms: C_19  and  C_20
REMARK    8  A    between atoms: C_20  and  C_21
REMARK                            x       y       z     vdW  Elec       q    Type
REMARK                         _______ _______ _______ _____ _____    ______ ____
ROOT
ATOM      1  N   UNL     1       4.827  -0.358   2.395  0.00  0.00    -0.305 N 
ATOM      2  C   UNL     1       4.998   0.179   3.620  0.00  0.00    +0.299 C 
ATOM      3  O   UNL     1       5.456   1.297   3.734  0.00  0.00    -0.265 OA
ATOM      4  H   UNL     1       4.461  -1.252   2.304  0.00  0.00    +0.149 HD
ENDROOT
BRANCH   2   5
ATOM      5  C   UNL     1       4.622  -0.603   4.837  0.00  0.00    +0.299 C 
ATOM      6  O   UNL     1       4.164  -1.721   4.723  0.00  0.00    -0.265 OA
ATOM      7  N   UNL     1       4.793  -0.066   6.062  0.00  0.00    -0.307 N 
ATOM      8  H   UNL     1       5.159   0.828   6.153  0.00  0.00    +0.149 HD
BRANCH   7   9
ATOM      9  C   UNL     1       4.425  -0.832   7.255  0.00  0.00    +0.109 C 
BRANCH   9  10
ATOM     10  C   UNL     1       4.716   0.000   8.505  0.00  0.00    +0.052 C 
BRANCH  10  11
ATOM     11  C   UNL     1       4.338  -0.788   9.733  0.00  0.00    -0.040 C 
ATOM     12  C   UNL     1       5.156  -1.549  10.495  0.00  0.00    -0.001 A 
ATOM     13  C   UNL     1       6.588  -1.860  10.412  0.00  0.00    +0.010 A 
ATOM     14  C   UNL     1       7.138  -2.673  11.342  0.00  0.00    +0.001 A 
ATOM     15  C   UNL     1       6.376  -3.226  12.380  0.00  0.00    +0.002 A 
ATOM     16  C   UNL     1       5.056  -2.987  12.523  0.00  0.00    +0.026 A 
ATOM     17  C   UNL     1       4.374  -2.145  11.601  0.00  0.00    +0.043 A 
ATOM     18  N   UNL     1       3.121  -1.767  11.526  0.00  0.00    -0.380 N 
ATOM     19  C   UNL     1       2.968  -0.883  10.366  0.00  0.00    +0.144 C 
ATOM     20  H   UNL     1       2.414  -2.026  12.138  0.00  0.00    +0.160 HD
ENDBRANCH  10  11
ENDBRANCH   9  10
ENDBRANCH   7   9
ENDBRANCH   2   5
BRANCH   1  21
ATOM     21  C   UNL     1       5.195   0.408   1.202  0.00  0.00    +0.132 C 
BRANCH  21  22
ATOM     22  C   UNL     1       4.903  -0.424  -0.048  0.00  0.00    +0.127 C 
BRANCH  22  31
ATOM     23  C   UNL     1      -0.017   1.378   0.010  0.00  0.00    +0.000 A 
ATOM     24  C   UNL     1       1.174   2.082   0.002  0.00  0.00    +0.002 A 
ATOM     25  C   UNL     1       2.377   1.411  -0.013  0.00  0.00    +0.023 A 
ATOM     26  C   UNL     1       2.405   0.014  -0.021  0.00  0.00    +0.034 A 
ATOM     27  C   UNL     1       1.206  -0.682  -0.013  0.00  0.00    -0.025 A 
ATOM     28  C   UNL     1       0.002  -0.004   0.002  0.00  0.00    +0.005 A 
ATOM     29  C   UNL     1       1.510  -2.163  -0.023  0.00  0.00    +0.056 C 
ATOM     30  C   UNL     1       3.046  -2.241  -0.038  0.00  0.00    +0.110 C 
ATOM     31  N   UNL     1       3.501  -0.849  -0.036  0.00  0.00    -0.320 N 
ENDBRANCH  22  31
BRANCH  22  32
ATOM     32  C   UNL     1       5.166   0.407  -1.278  0.00  0.00    +0.012 A 
ATOM     33  C   UNL     1       6.248   0.406  -2.094  0.00  0.00    +0.013 A 
ATOM     34  C   UNL     1       6.271   1.264  -3.177  0.00  0.00    +0.008 A 
ATOM     35  C   UNL     1       5.212   2.082  -3.391  0.00  0.00    +0.045 A 
ATOM     36  S   UNL     1       4.129   1.645  -2.040  0.00  0.00    -0.100 S 
ENDBRANCH  22  32
ENDBRANCH  21  22
ENDBRANCH   1  21
TORSDOF 8
