REMARK  Name = ZINC61888095
REMARK  5 active torsions:
REMARK  status: ('A' for Active; 'I' for Inactive)
REMARK    1  A    between atoms: C_4  and  S_8
REMARK    2  A    between atoms: S_8  and  N_11
REMARK    3  A    between atoms: N_11  and  C_12
REMARK    4  A    between atoms: C_17  and  C_19
REMARK    5  A    between atoms: N_20  and  O_21
REMARK                            x       y       z     vdW  Elec       q    Type
REMARK                         _______ _______ _______ _____ _____    ______ ____
ROOT
ATOM      1  N   UNL     1       4.691  -0.576  -1.399  0.00  0.00    -0.186 NA
ATOM      2  H   UNL     1       4.370  -1.226  -2.045  0.00  0.00    +0.148 HD
ENDROOT
BRANCH   1   3
ATOM      3  C   UNL     1       5.112   0.754  -1.846  0.00  0.00    +0.087 C 
ATOM      4  C   UNL     1       3.925   1.495  -2.495  0.00  0.00    +0.021 C 
ATOM      5  C   UNL     1       4.562   2.281  -3.667  0.00  0.00    +0.002 C 
ATOM      6  C   UNL     1       5.629   1.294  -4.201  0.00  0.00    +0.013 C 
ATOM      7  C   UNL     1       6.197   0.626  -2.930  0.00  0.00    +0.074 C 
BRANCH   7   8
ATOM      8  C   UNL     1       6.491  -0.827  -3.198  0.00  0.00    +0.136 C 
ATOM      9  N   UNL     1       7.486  -1.404  -2.611  0.00  0.00    -0.076 NA
ATOM     10  N   UNL     1       5.698  -1.541  -4.069  0.00  0.00    -0.344 N 
ATOM     11  H   UNL     1       4.950  -1.108  -4.511  0.00  0.00    +0.144 HD
ATOM     12  H   UNL     1       5.887  -2.477  -4.242  0.00  0.00    +0.144 HD
BRANCH   9  13
ATOM     13  O   UNL     1       8.236  -0.702  -1.635  0.00  0.00    -0.408 OA
ATOM     14  H   UNL     1       9.005  -1.187  -1.307  0.00  0.00    +0.328 HD
ENDBRANCH   9  13
ENDBRANCH   7   8
ENDBRANCH   1   3
BRANCH   1  15
ATOM     15  S   UNL     1       4.762  -0.971   0.207  0.00  0.00    +0.060 S 
ATOM     16  O   UNL     1       6.054  -0.593   0.661  0.00  0.00    -0.153 OA
ATOM     17  O   UNL     1       4.273  -2.300   0.321  0.00  0.00    -0.153 OA
BRANCH  15  21
ATOM     18  C   UNL     1       1.800   1.683   2.372  0.00  0.00    +0.016 A 
ATOM     19  C   UNL     1       1.352   0.760   1.446  0.00  0.00    +0.018 A 
ATOM     20  C   UNL     1       2.256  -0.051   0.784  0.00  0.00    +0.044 A 
ATOM     21  C   UNL     1       3.610   0.062   1.049  0.00  0.00    +0.120 A 
ATOM     22  C   UNL     1       4.058   0.986   1.974  0.00  0.00    +0.045 A 
ATOM     23  C   UNL     1       3.153   1.797   2.636  0.00  0.00    +0.020 A 
ATOM     24 BR   UNL     1       3.766   3.061   3.902  0.00  0.00    -0.050 Br
ATOM     25 BR   UNL     1       1.643  -1.315  -0.482  0.00  0.00    -0.048 Br
ENDBRANCH  15  21
ENDBRANCH   1  15
TORSDOF 5
