REMARK  Name = ZINC37096977
REMARK  8 active torsions:
REMARK  status: ('A' for Active; 'I' for Inactive)
REMARK    1  A    between atoms: C_1  and  C_2
REMARK    2  A    between atoms: C_2  and  C_3
REMARK    3  A    between atoms: C_3  and  N_4
REMARK    4  A    between atoms: N_4  and  C_5
REMARK    5  A    between atoms: N_4  and  C_8
REMARK    6  A    between atoms: C_8  and  C_10
REMARK    7  A    between atoms: C_8  and  C_12
REMARK    8  A    between atoms: C_10  and  N_11
REMARK                            x       y       z     vdW  Elec       q    Type
REMARK                         _______ _______ _______ _____ _____    ______ ____
ROOT
ATOM      1  C   UNL     1       1.623  -2.384  -2.470  0.00  0.00    -0.055 C 
ENDROOT
BRANCH   1   2
ATOM      2  C   UNL     1       3.040  -1.884  -2.353  0.00  0.00    -0.058 A 
ATOM      3  C   UNL     1       3.657  -1.297  -3.441  0.00  0.00    +0.051 A 
ATOM      4  C   UNL     1       4.961  -0.836  -3.336  0.00  0.00    +0.164 A 
ATOM      5  C   UNL     1       5.644  -0.963  -2.133  0.00  0.00    +0.180 A 
ATOM      6  C   UNL     1       5.020  -1.554  -1.044  0.00  0.00    +0.086 A 
ATOM      7  C   UNL     1       3.718  -2.008  -1.155  0.00  0.00    +0.026 A 
ATOM      8 CL   UNL     1       5.872  -1.719   0.459  0.00  0.00    -0.080 Cl
ATOM      9  O   UNL     1       6.922  -0.509  -2.007  0.00  0.00    -0.483 OA
ATOM     10  C   UNL     1       7.640  -0.262  -3.220  0.00  0.00    +0.270 C 
ATOM     11  C   UNL     1       6.725   0.524  -4.168  0.00  0.00    +0.270 C 
ATOM     12  O   UNL     1       5.556  -0.264  -4.419  0.00  0.00    -0.485 OA
ENDBRANCH   1   2
BRANCH   1  13
ATOM     13  N   UNL     1       0.725  -1.486  -1.731  0.00  0.00    +0.385 N 
ATOM     14  H   UNL     1      -0.221  -1.833  -1.791  0.00  0.00    -0.081 HD
BRANCH  13  15
ATOM     15  C   UNL     1       0.790  -0.140  -2.315  0.00  0.00    -0.068 C 
ATOM     16  C   UNL     1      -0.533   0.585  -2.569  0.00  0.00    -0.017 C 
ATOM     17  C   UNL     1       0.277   0.036  -3.745  0.00  0.00    -0.017 C 
ENDBRANCH  13  15
BRANCH  13  18
ATOM     18  C   UNL     1       1.137  -1.431  -0.323  0.00  0.00    -0.078 C 
BRANCH  18  20
ATOM     19  C   UNL     1       0.539  -0.572   1.946  0.00  0.00    +0.002 C 
ATOM     20  C   UNL     1       0.109  -0.630   0.479  0.00  0.00    -0.022 C 
ENDBRANCH  18  20
ENDBRANCH  13  18
ENDBRANCH   1  13
BRANCH   1  21
ATOM     21  C   UNL     1       1.530  -3.794  -1.884  0.00  0.00    -0.098 C 
BRANCH  21  22
ATOM     22  N   UNL     1       0.128  -4.233  -1.885  0.00  0.00    +0.377 N 
ATOM     23  H   UNL     1      -0.429  -3.580  -1.355  0.00  0.00    -0.090 HD
ATOM     24  H   UNL     1      -0.212  -4.271  -2.835  0.00  0.00    -0.090 HD
ATOM     25  H   UNL     1       0.061  -5.149  -1.467  0.00  0.00    -0.090 HD
ENDBRANCH  21  22
ENDBRANCH   1  21
TORSDOF 7
