REMARK  Name = ZINC61785095
REMARK  5 active torsions:
REMARK  status: ('A' for Active; 'I' for Inactive)
REMARK    1  A    between atoms: C_9  and  N_11
REMARK    2  A    between atoms: C_12  and  C_14
REMARK    3  A    between atoms: N_16  and  C_17
REMARK    4  A    between atoms: C_17  and  C_18
REMARK    5  A    between atoms: C_18  and  C_19
REMARK                            x       y       z     vdW  Elec       q    Type
REMARK                         _______ _______ _______ _____ _____    ______ ____
ROOT
ATOM      1  C   UNL     1       0.075  -4.257   0.192  0.00  0.00    +0.299 C 
ATOM      2  O   UNL     1       1.133  -4.852   0.179  0.00  0.00    -0.265 OA
ATOM      3  N   UNL     1      -1.081  -4.941   0.301  0.00  0.00    -0.308 N 
ATOM      4  H   UNL     1      -1.926  -4.466   0.311  0.00  0.00    +0.149 HD
ENDROOT
BRANCH   1   6
ATOM      5  N   UNL     1       1.211  -2.084  -0.021  0.00  0.00    -0.277 N 
ATOM      6  C   UNL     1       0.054  -2.768   0.087  0.00  0.00    +0.303 C 
ATOM      7  O   UNL     1      -1.004  -2.173   0.101  0.00  0.00    -0.265 OA
ATOM      8  H   UNL     1       2.050  -2.561  -0.112  0.00  0.00    +0.155 HD
BRANCH   5  17
ATOM      9  C   UNL     1       0.153   1.381   0.636  0.00  0.00    +0.004 A 
ATOM     10  C   UNL     1       1.147   2.107   0.053  0.00  0.00    +0.028 A 
ATOM     11  C   UNL     1       2.215   1.454  -0.585  0.00  0.00    +0.073 A 
ATOM     12  C   UNL     1       2.242   0.038  -0.613  0.00  0.00    +0.022 A 
ATOM     13  C   UNL     1       3.312  -0.612  -1.252  0.00  0.00    +0.013 A 
ATOM     14  C   UNL     1       4.287   0.158  -1.823  0.00  0.00    +0.020 A 
ATOM     15  C   UNL     1       4.201   1.546  -1.760  0.00  0.00    +0.111 A 
ATOM     16  N   UNL     1       3.201   2.149  -1.163  0.00  0.00    -0.255 NA
ATOM     17  C   UNL     1       1.200  -0.691  -0.003  0.00  0.00    +0.043 A 
ATOM     18  C   UNL     1       0.170  -0.010   0.614  0.00  0.00    +0.024 A 
ENDBRANCH   5  17
ENDBRANCH   1   6
BRANCH   3  19
ATOM     19  C   UNL     1      -1.060  -6.403   0.403  0.00  0.00    +0.105 C 
BRANCH  19  20
ATOM     20  C   UNL     1      -2.493  -6.926   0.515  0.00  0.00    +0.025 C 
BRANCH  20  21
ATOM     21  C   UNL     1      -2.472  -8.453   0.622  0.00  0.00    -0.027 C 
ATOM     22  C   UNL     1      -1.810  -9.042  -0.625  0.00  0.00    +0.010 C 
ATOM     23  C   UNL     1      -1.788 -10.568  -0.518  0.00  0.00    -0.010 C 
ATOM     24  C   UNL     1      -3.221 -11.092  -0.406  0.00  0.00    +0.007 C 
ATOM     25  C   UNL     1      -3.884 -10.502   0.840  0.00  0.00    -0.010 C 
ATOM     26  C   UNL     1      -3.905  -8.976   0.734  0.00  0.00    +0.010 C 
ATOM     27  C   UNL     1      -3.092 -10.915   2.083  0.00  0.00    +0.007 C 
ATOM     28  C   UNL     1      -1.658 -10.392   1.971  0.00  0.00    -0.010 C 
ATOM     29  C   UNL     1      -0.996 -10.981   0.724  0.00  0.00    +0.007 C 
ATOM     30  C   UNL     1      -1.680  -8.866   1.864  0.00  0.00    +0.010 C 
ENDBRANCH  20  21
ENDBRANCH  19  20
ENDBRANCH   3  19
TORSDOF 5
