REMARK  Name = ZINC03369013
REMARK  6 active torsions:
REMARK  status: ('A' for Active; 'I' for Inactive)
REMARK    1  A    between atoms: C_1  and  C_2
REMARK    2  A    between atoms: C_2  and  C_3
REMARK    3  A    between atoms: N_11  and  C_15
REMARK    4  A    between atoms: C_15  and  C_16
REMARK    5  A    between atoms: N_18  and  C_19
REMARK    6  A    between atoms: C_20  and  C_27
REMARK                            x       y       z     vdW  Elec       q    Type
REMARK                         _______ _______ _______ _____ _____    ______ ____
ROOT
ATOM      1  C   UNL     1      -2.366   2.061   0.025  0.00  0.00    +0.236 C 
ATOM      2  O   UNL     1      -2.527   0.859   0.020  0.00  0.00    -0.274 OA
ATOM      3  N   UNL     1      -1.119   2.573   0.022  0.00  0.00    -0.278 N 
ATOM      4  H   UNL     1      -0.990   3.535   0.026  0.00  0.00    +0.155 HD
ENDROOT
BRANCH   3   5
ATOM      5  C   UNL     1      -0.021   1.726   0.011  0.00  0.00    +0.084 A 
ATOM      6  C   UNL     1       1.322   2.060   0.001  0.00  0.00    +0.068 A 
ATOM      7  C   UNL     1       2.292   0.965  -0.015  0.00  0.00    -0.023 A 
ATOM      8  C   UNL     1       1.758  -0.270  -0.016  0.00  0.00    -0.004 A 
ATOM      9  S   UNL     1       0.002  -0.004   0.002  0.00  0.00    -0.077 S 
ATOM     10  C   UNL     1       2.815  -1.341  -0.029  0.00  0.00    +0.043 C 
ATOM     11  C   UNL     1       4.109  -0.616   0.401  0.00  0.00    +0.010 C 
ATOM     12  C   UNL     1       3.815   0.835  -0.033  0.00  0.00    +0.037 C 
BRANCH   6  13
ATOM     13  C   UNL     1       1.758   3.460   0.004  0.00  0.00    +0.244 C 
ATOM     14  O   UNL     1       1.949   4.035   1.059  0.00  0.00    -0.270 OA
ATOM     15  N   UNL     1       1.946   4.110  -1.162  0.00  0.00    -0.325 N 
ATOM     16  H   UNL     1       1.794   3.651  -2.003  0.00  0.00    +0.145 HD
ATOM     17  H   UNL     1       2.234   5.036  -1.159  0.00  0.00    +0.145 HD
ENDBRANCH   6  13
ENDBRANCH   3   5
BRANCH   1  18
ATOM     18  C   UNL     1      -3.559   2.981   0.036  0.00  0.00    +0.214 C 
BRANCH  18  27
ATOM     19  C   UNL     1      -7.910   0.142   3.152  0.00  0.00    -0.011 C 
ATOM     20  C   UNL     1      -6.606  -0.500   2.673  0.00  0.00    +0.006 C 
ATOM     21  C   UNL     1      -6.548  -0.455   1.144  0.00  0.00    +0.035 C 
ATOM     22  C   UNL     1      -6.625   0.994   0.673  0.00  0.00    +0.113 C 
ATOM     23  C   UNL     1      -7.910   1.652   1.162  0.00  0.00    +0.035 C 
ATOM     24  C   UNL     1      -7.963   1.599   2.691  0.00  0.00    +0.006 C 
ATOM     25  C   UNL     1      -5.420   1.768   1.156  0.00  0.00    +0.247 C 
ATOM     26  O   UNL     1      -5.090   1.972   2.305  0.00  0.00    -0.273 OA
ATOM     27  N   UNL     1      -4.789   2.186   0.039  0.00  0.00    -0.215 N 
ATOM     28  C   UNL     1      -5.430   1.788  -1.067  0.00  0.00    +0.310 C 
ATOM     29  O   UNL     1      -5.057   2.046  -2.195  0.00  0.00    -0.252 OA
ATOM     30  N   UNL     1      -6.533   1.066  -0.790  0.00  0.00    -0.285 N 
ATOM     31  H   UNL     1      -7.147   0.674  -1.431  0.00  0.00    +0.151 HD
BRANCH  19  33
ATOM     32  C   UNL     1      -9.329   0.615   5.153  0.00  0.00    +0.004 C 
ATOM     33  C   UNL     1      -7.973   0.088   4.680  0.00  0.00    -0.000 C 
ENDBRANCH  19  33
ENDBRANCH  18  27
ENDBRANCH   1  18
TORSDOF 5
