REMARK  Name = ZINC40922417
REMARK  7 active torsions:
REMARK  status: ('A' for Active; 'I' for Inactive)
REMARK    1  A    between atoms: C_1  and  C_2
REMARK    2  A    between atoms: C_4  and  C_32
REMARK    3  A    between atoms: C_5  and  C_9
REMARK    4  A    between atoms: C_7  and  C_8
REMARK    5  A    between atoms: C_9  and  O_10
REMARK    6  A    between atoms: O_10  and  C_11
REMARK    7  A    between atoms: C_14  and  C_17
REMARK                            x       y       z     vdW  Elec       q    Type
REMARK                         _______ _______ _______ _____ _____    ______ ____
ROOT
ATOM      1  C   UNL     1       0.091  -6.107   1.494  0.00  0.00    +0.121 A 
ATOM      2  C   UNL     1       0.102  -6.947   0.390  0.00  0.00    +0.046 A 
ATOM      3  C   UNL     1       0.121  -8.317   0.566  0.00  0.00    +0.009 A 
ATOM      4  C   UNL     1       0.129  -8.851   1.841  0.00  0.00    -0.018 A 
ATOM      5  C   UNL     1       0.118  -8.016   2.943  0.00  0.00    +0.009 A 
ATOM      6  C   UNL     1       0.105  -6.645   2.772  0.00  0.00    +0.046 A 
ENDROOT
BRANCH   4   7
ATOM      7  C   UNL     1       0.150 -10.346   2.030  0.00  0.00    +0.177 C 
ATOM      8  C   UNL     1       1.395 -10.739   2.796  0.00  0.00    +0.041 C 
ATOM      9  C   UNL     1       1.351 -11.119   4.091  0.00  0.00    +0.020 C 
ATOM     10  C   UNL     1       2.614 -11.488   4.834  0.00  0.00    +0.052 C 
ATOM     11  C   UNL     1       3.622 -12.103   3.861  0.00  0.00    +0.014 C 
ATOM     12  C   UNL     1       3.910 -11.081   2.756  0.00  0.00    +0.080 C 
ATOM     13  C   UNL     1       2.615 -10.694   2.099  0.00  0.00    +0.163 C 
ATOM     14  O   UNL     1       2.622 -10.335   0.938  0.00  0.00    -0.292 OA
ATOM     15  N   UNL     1       0.168 -11.194   4.787  0.00  0.00    -0.286 N 
ATOM     16  C   UNL     1      -1.014 -11.149   4.067  0.00  0.00    +0.240 A 
ATOM     17  N   UNL     1      -1.035 -10.756   2.769  0.00  0.00    -0.201 N 
ATOM     18  N   UNL     1      -2.370 -10.842   2.378  0.00  0.00    -0.042 NA
ATOM     19  N   UNL     1      -3.030 -11.254   3.412  0.00  0.00    -0.021 NA
ATOM     20  N   UNL     1      -2.238 -11.434   4.406  0.00  0.00    -0.092 NA
ATOM     21  H   UNL     1       0.161 -11.275   5.753  0.00  0.00    +0.155 HD
ENDBRANCH   4   7
BRANCH   1  22
ATOM     22  O   UNL     1       0.073  -4.759   1.323  0.00  0.00    -0.487 OA
BRANCH  22  23
ATOM     23  C   UNL     1       0.059  -4.275  -0.021  0.00  0.00    +0.264 C 
BRANCH  23  28
ATOM     24  C   UNL     1      -0.018   1.503   0.010  0.00  0.00    +0.044 C 
ATOM     25  C   UNL     1       0.002  -0.004   0.002  0.00  0.00    -0.047 A 
ATOM     26  C   UNL     1       0.006  -0.689  -1.199  0.00  0.00    +0.007 A 
ATOM     27  C   UNL     1       0.025  -2.071  -1.207  0.00  0.00    -0.044 A 
ATOM     28  C   UNL     1       0.040  -2.768  -0.013  0.00  0.00    -0.007 A 
ATOM     29  C   UNL     1       0.037  -2.084   1.188  0.00  0.00    +0.010 A 
ATOM     30  C   UNL     1       0.023  -0.702   1.195  0.00  0.00    -0.047 A 
ATOM     31  C   UNL     1       0.025   0.045   2.504  0.00  0.00    +0.044 C 
ATOM     32  C   UNL     1       0.027  -2.817  -2.516  0.00  0.00    +0.044 C 
ENDBRANCH  23  28
ENDBRANCH  22  23
ENDBRANCH   1  22
TORSDOF 4
