REMARK  Name = ZINC12797068
REMARK  7 active torsions:
REMARK  status: ('A' for Active; 'I' for Inactive)
REMARK    1  A    between atoms: C_1  and  C_2
REMARK    2  A    between atoms: C_6  and  N_8
REMARK    3  A    between atoms: C_17  and  S_18
REMARK    4  A    between atoms: S_18  and  C_19
REMARK    5  A    between atoms: C_19  and  C_21
REMARK    6  A    between atoms: C_19  and  C_22
REMARK    7  A    between atoms: N_27  and  C_28
REMARK                            x       y       z     vdW  Elec       q    Type
REMARK                         _______ _______ _______ _____ _____    ______ ____
ROOT
ATOM      1  N   UNL     1      -0.069   5.243   0.029  0.00  0.00    -0.255 N 
ATOM      2  C   UNL     1       1.091   5.919   0.123  0.00  0.00    +0.268 A 
ATOM      3  O   UNL     1       2.150   5.320   0.202  0.00  0.00    -0.267 OA
ATOM      4  C   UNL     1       1.064   7.349   0.129  0.00  0.00    +0.077 A 
ATOM      5  C   UNL     1       2.203   8.273   0.229  0.00  0.00    -0.012 A 
ATOM      6  C   UNL     1       1.901   9.594   0.204  0.00  0.00    +0.051 A 
ATOM      7  S   UNL     1       0.140   9.679   0.065  0.00  0.00    -0.062 S 
ATOM      8  C   UNL     1      -0.206   7.938   0.032  0.00  0.00    +0.118 A 
ATOM      9  N   UNL     1      -1.316   7.215  -0.058  0.00  0.00    -0.215 NA
ATOM     10  C   UNL     1      -1.265   5.898  -0.066  0.00  0.00    +0.178 A 
ATOM     11  S   UNL     1       3.041  10.930   0.288  0.00  0.00    -0.118 S 
ATOM     12  C   UNL     1       4.583  10.064   0.737  0.00  0.00    +0.075 C 
ATOM     13  C   UNL     1       4.647   8.789  -0.115  0.00  0.00    +0.016 C 
ATOM     14  C   UNL     1       3.631   7.766   0.366  0.00  0.00    +0.038 C 
ENDROOT
BRANCH   1  20
ATOM     15  C   UNL     1      -0.211   0.995   2.503  0.00  0.00    +0.044 C 
ATOM     16  C   UNL     1      -0.117   1.759   1.207  0.00  0.00    -0.048 A 
ATOM     17  C   UNL     1      -0.012   1.076   0.009  0.00  0.00    +0.003 A 
ATOM     18  C   UNL     1       0.080   1.773  -1.182  0.00  0.00    +0.002 A 
ATOM     19  C   UNL     1       0.056   3.154  -1.179  0.00  0.00    +0.026 A 
ATOM     20  C   UNL     1      -0.050   3.842   0.022  0.00  0.00    +0.052 A 
ATOM     21  C   UNL     1      -0.137   3.139   1.217  0.00  0.00    +0.029 A 
ENDBRANCH   1  20
BRANCH  10  22
ATOM     22  S   UNL     1      -2.758   4.971  -0.193  0.00  0.00    -0.075 S 
BRANCH  22  23
ATOM     23  C   UNL     1      -3.960   6.320  -0.285  0.00  0.00    +0.137 C 
ATOM     24  C   UNL     1      -3.739   7.113  -1.575  0.00  0.00    +0.029 C 
BRANCH  23  25
ATOM     25  C   UNL     1      -5.356   5.751  -0.278  0.00  0.00    +0.233 C 
ATOM     26  O   UNL     1      -5.538   4.591  -0.579  0.00  0.00    -0.274 OA
ATOM     27  N   UNL     1      -6.400   6.532   0.062  0.00  0.00    -0.239 N 
ATOM     28  C   UNL     1      -7.648   6.023   0.069  0.00  0.00    +0.306 C 
ATOM     29  O   UNL     1      -7.831   4.860  -0.233  0.00  0.00    -0.252 OA
ATOM     30  N   UNL     1      -8.692   6.804   0.409  0.00  0.00    -0.302 N 
ATOM     31  C   UNL     1     -10.049   6.251   0.416  0.00  0.00    +0.129 C 
ATOM     32  H   UNL     1      -6.253   7.460   0.303  0.00  0.00    +0.159 HD
ATOM     33  H   UNL     1      -8.546   7.732   0.650  0.00  0.00    +0.150 HD
ENDBRANCH  23  25
ENDBRANCH  22  23
ENDBRANCH  10  22
TORSDOF 4
