REMARK  Name = ZINC18076965
REMARK  4 active torsions:
REMARK  status: ('A' for Active; 'I' for Inactive)
REMARK    1  A    between atoms: C_4  and  C_7
REMARK    2  A    between atoms: C_11  and  C_12
REMARK    3  A    between atoms: N_17  and  C_20
REMARK    4  A    between atoms: C_25  and  N_26
REMARK                            x       y       z     vdW  Elec       q    Type
REMARK                         _______ _______ _______ _____ _____    ______ ____
ROOT
ATOM      1  C   UNL     1      -1.472   3.193  -0.104  0.00  0.00    +0.254 C 
ATOM      2  O   UNL     1      -0.361   2.742   0.107  0.00  0.00    -0.269 OA
ATOM      3  N   UNL     1      -2.559   2.414   0.066  0.00  0.00    -0.294 N 
ATOM      4  C   UNL     1      -2.429   1.033   0.555  0.00  0.00    +0.127 C 
ATOM      5  C   UNL     1      -3.392   0.848   1.739  0.00  0.00    +0.124 C 
ATOM      6  N   UNL     1      -4.748   1.236   1.325  0.00  0.00    -0.325 N 
ATOM      7  C   UNL     1      -4.810   2.659   0.969  0.00  0.00    +0.124 C 
ATOM      8  C   UNL     1      -3.906   2.920  -0.240  0.00  0.00    +0.127 C 
ENDROOT
BRANCH   6   9
ATOM      9  C   UNL     1      -5.681   0.926   2.318  0.00  0.00    +0.060 A 
ATOM     10  C   UNL     1      -5.376   1.151   3.654  0.00  0.00    +0.025 A 
ATOM     11  C   UNL     1      -6.303   0.850   4.632  0.00  0.00    +0.002 A 
ATOM     12  C   UNL     1      -7.530   0.314   4.283  0.00  0.00    +0.002 A 
ATOM     13  C   UNL     1      -7.834   0.084   2.954  0.00  0.00    +0.034 A 
ATOM     14  C   UNL     1      -6.913   0.388   1.971  0.00  0.00    +0.147 A 
BRANCH  14  15
ATOM     15  N   UNL     1      -7.240   0.141   0.548  0.00  0.00    +0.058 N 
ATOM     16  O   UNL     1      -8.271  -0.435   0.252  0.00  0.00    -0.126 OA
ATOM     17  O   UNL     1      -6.477   0.513  -0.325  0.00  0.00    -0.126 OA
ENDBRANCH  14  15
ENDBRANCH   6   9
BRANCH   1  22
ATOM     18  C   UNL     1      -0.860   5.700  -0.208  0.00  0.00    +0.001 A 
ATOM     19  C   UNL     1      -1.244   6.904  -0.772  0.00  0.00    +0.017 A 
ATOM     20  C   UNL     1      -2.319   6.934  -1.597  0.00  0.00    +0.046 A 
ATOM     21  S   UNL     1      -2.851   5.285  -1.630  0.00  0.00    -0.092 S 
ATOM     22  C   UNL     1      -1.628   4.580  -0.541  0.00  0.00    +0.082 A 
BRANCH  18  26
ATOM     23  C   UNL     1       2.484   5.422   2.401  0.00  0.00    +0.000 A 
ATOM     24  C   UNL     1       2.613   6.062   1.181  0.00  0.00    +0.001 A 
ATOM     25  C   UNL     1       1.531   6.155   0.329  0.00  0.00    +0.008 A 
ATOM     26  C   UNL     1       0.306   5.603   0.701  0.00  0.00    -0.017 A 
ATOM     27  C   UNL     1       0.180   4.964   1.934  0.00  0.00    +0.008 A 
ATOM     28  C   UNL     1       1.271   4.872   2.774  0.00  0.00    +0.001 A 
ENDBRANCH  18  26
ENDBRANCH   1  22
TORSDOF 4
