REMARK  Name = ZINC63479930
REMARK  6 active torsions:
REMARK  status: ('A' for Active; 'I' for Inactive)
REMARK    1  A    between atoms: C_1  and  C_2
REMARK    2  A    between atoms: C_13  and  C_16
REMARK    3  A    between atoms: C_16  and  C_17
REMARK    4  A    between atoms: N_28  and  C_31
REMARK    5  A    between atoms: C_35  and  O_37
REMARK    6  A    between atoms: O_37  and  C_38
REMARK                            x       y       z     vdW  Elec       q    Type
REMARK                         _______ _______ _______ _____ _____    ______ ____
ROOT
ATOM      1  C   UNL     1      -0.698   0.978  -0.330  0.00  0.00    +0.044 C 
ATOM      2  C   UNL     1      -0.665  -0.518  -0.148  0.00  0.00    -0.050 A 
ATOM      3  C   UNL     1      -0.856  -1.353  -1.234  0.00  0.00    +0.005 A 
ATOM      4  C   UNL     1      -0.825  -2.722  -1.073  0.00  0.00    +0.024 A 
ATOM      5  C   UNL     1      -0.602  -3.275   0.185  0.00  0.00    +0.039 A 
ATOM      6  C   UNL     1      -0.413  -2.425   1.272  0.00  0.00    +0.004 A 
ATOM      7  C   UNL     1      -0.438  -1.059   1.105  0.00  0.00    +0.011 A 
ATOM      8  C   UNL     1      -0.208  -3.319   2.461  0.00  0.00    +0.136 C 
ATOM      9  C   UNL     1       1.145  -3.063   3.135  0.00  0.00    +0.123 C 
ATOM     10  C   UNL     1       0.871  -3.261   4.652  0.00  0.00    +0.107 C 
ATOM     11  C   UNL     1      -0.627  -3.620   4.740  0.00  0.00    +0.072 C 
ATOM     12  N   UNL     1      -1.228  -3.081   3.499  0.00  0.00    -0.295 NA
ATOM     13  C   UNL     1       1.708  -4.471   5.001  0.00  0.00    +0.232 C 
ATOM     14  O   UNL     1       1.787  -4.974   6.102  0.00  0.00    -0.274 OA
ATOM     15  N   UNL     1       2.346  -4.902   3.907  0.00  0.00    -0.210 N 
ATOM     16  C   UNL     1       2.107  -4.177   2.791  0.00  0.00    +0.233 C 
ATOM     17  O   UNL     1       2.580  -4.380   1.693  0.00  0.00    -0.274 OA
ATOM     18  C   UNL     1      -0.296  -4.720   1.919  0.00  0.00    +0.243 C 
ATOM     19  O   UNL     1      -0.183  -5.749   2.550  0.00  0.00    -0.273 OA
ATOM     20  N   UNL     1      -0.525  -4.608   0.596  0.00  0.00    -0.283 N 
ATOM     21  H   UNL     1      -1.418  -2.095   3.600  0.00  0.00    +0.124 HD
ATOM     22  H   UNL     1      -0.625  -5.365  -0.002  0.00  0.00    +0.155 HD
ENDROOT
BRANCH  15  23
ATOM     23  C   UNL     1       3.200  -6.013   3.916  0.00  0.00    +0.047 A 
ATOM     24  C   UNL     1       2.684  -7.285   4.130  0.00  0.00    +0.024 A 
ATOM     25  C   UNL     1       3.525  -8.380   4.138  0.00  0.00    +0.005 A 
ATOM     26  C   UNL     1       4.882  -8.214   3.934  0.00  0.00    +0.046 A 
ATOM     27  C   UNL     1       5.403  -6.946   3.720  0.00  0.00    +0.122 A 
ATOM     28  C   UNL     1       4.561  -5.845   3.705  0.00  0.00    +0.069 A 
BRANCH  27  29
ATOM     29  O   UNL     1       6.737  -6.784   3.520  0.00  0.00    -0.495 OA
ATOM     30  C   UNL     1       7.545  -7.963   3.542  0.00  0.00    +0.277 C 
ENDBRANCH  27  29
ENDBRANCH  15  23
BRANCH  11  31
ATOM     31  C   UNL     1      -1.256  -2.982   5.979  0.00  0.00    +0.052 C 
BRANCH  31  32
ATOM     32  C   UNL     1      -2.685  -3.444   6.113  0.00  0.00    -0.040 C 
ATOM     33  C   UNL     1      -3.139  -4.474   6.863  0.00  0.00    -0.001 A 
ATOM     34  C   UNL     1      -2.466  -5.435   7.744  0.00  0.00    +0.010 A 
ATOM     35  C   UNL     1      -3.205  -6.376   8.375  0.00  0.00    +0.001 A 
ATOM     36  C   UNL     1      -4.595  -6.455   8.208  0.00  0.00    +0.002 A 
ATOM     37  C   UNL     1      -5.284  -5.608   7.415  0.00  0.00    +0.026 A 
ATOM     38  C   UNL     1      -4.607  -4.579   6.704  0.00  0.00    +0.043 A 
ATOM     39  N   UNL     1      -5.043  -3.650   5.887  0.00  0.00    -0.380 N 
ATOM     40  C   UNL     1      -3.900  -2.847   5.440  0.00  0.00    +0.144 C 
ATOM     41  H   UNL     1      -5.967  -3.515   5.625  0.00  0.00    +0.160 HD
ENDBRANCH  31  32
ENDBRANCH  11  31
TORSDOF 4
