REMARK  Name = ZINC10785754
REMARK  11 active torsions:
REMARK  status: ('A' for Active; 'I' for Inactive)
REMARK    1  A    between atoms: C_1  and  C_2
REMARK    2  A    between atoms: C_2  and  C_3
REMARK    3  A    between atoms: C_3  and  C_4
REMARK    4  A    between atoms: C_4  and  C_5
REMARK    5  A    between atoms: N_7  and  C_8
REMARK    6  A    between atoms: C_8  and  C_9
REMARK    7  A    between atoms: C_9  and  C_10
REMARK    8  A    between atoms: C_10  and  N_50
REMARK    9  A    between atoms: C_11  and  N_50
REMARK   10  A    between atoms: C_12  and  N_50
REMARK   11  A    between atoms: C_16  and  C_23
REMARK                            x       y       z     vdW  Elec       q    Type
REMARK                         _______ _______ _______ _____ _____    ______ ____
ROOT
ATOM      1  C   UNL     1      -0.014   1.208   0.009  0.00  0.00    +0.221 C 
ATOM      2  O   UNL     1       0.002  -0.004   0.002  0.00  0.00    -0.275 OA
ATOM      3  N   UNL     1      -1.191   1.866   0.018  0.00  0.00    -0.250 N 
ATOM      4  C   UNL     1      -2.381   1.157   0.020  0.00  0.00    +0.168 A 
ATOM      5  N   UNL     1      -2.565  -0.142   0.008  0.00  0.00    -0.224 NA
ATOM      6  C   UNL     1      -3.795  -0.701   0.015  0.00  0.00    +0.083 A 
ATOM      7  C   UNL     1      -4.129  -2.075   0.009  0.00  0.00    -0.023 A 
ATOM      8  C   UNL     1      -5.439  -2.478   0.012  0.00  0.00    +0.025 A 
ATOM      9  C   UNL     1      -6.480  -1.559   0.022  0.00  0.00    +0.042 A 
ATOM     10  C   UNL     1      -6.189  -0.206   0.028  0.00  0.00    +0.037 A 
ATOM     11  C   UNL     1      -4.879   0.205   0.025  0.00  0.00    +0.042 A 
ATOM     12  S   UNL     1      -4.056   1.780   0.030  0.00  0.00    -0.052 S 
ATOM     13 CL   UNL     1      -8.129  -2.102   0.026  0.00  0.00    -0.083 Cl
ATOM     14  C   UNL     1      -3.032  -3.109  -0.002  0.00  0.00    +0.046 C 
ENDROOT
BRANCH   1  15
ATOM     15  C   UNL     1       1.280   1.980   0.001  0.00  0.00    +0.096 C 
BRANCH  15  16
ATOM     16  C   UNL     1       2.457   1.001  -0.016  0.00  0.00    +0.009 C 
BRANCH  16  18
ATOM     17  C   UNL     1       4.947   0.806  -0.041  0.00  0.00    +0.004 C 
ATOM     18  C   UNL     1       3.771   1.784  -0.024  0.00  0.00    -0.003 C 
ENDBRANCH  16  18
ENDBRANCH  15  16
ENDBRANCH   1  15
BRANCH   3  19
ATOM     19  C   UNL     1      -1.210   3.331   0.026  0.00  0.00    +0.114 C 
BRANCH  19  20
ATOM     20  C   UNL     1      -1.224   3.849  -1.414  0.00  0.00    +0.001 C 
BRANCH  20  21
ATOM     21  C   UNL     1      -1.245   5.379  -1.405  0.00  0.00    -0.078 C 
BRANCH  21  24
ATOM     22  C   UNL     1      -1.516   7.322  -2.825  0.00  0.00    -0.097 C 
ATOM     23  C   UNL     1      -0.004   5.547  -3.477  0.00  0.00    -0.097 C 
ATOM     24  N   UNL     1      -1.280   5.863  -2.801  0.00  0.00    +0.376 N 
ATOM     25  H   UNL     1      -2.045   5.393  -3.299  0.00  0.00    -0.083 HD
ENDBRANCH  21  24
ENDBRANCH  20  21
ENDBRANCH  19  20
ENDBRANCH   3  19
TORSDOF 7
