REMARK  Name = ZINC03079083
REMARK  5 active torsions:
REMARK  status: ('A' for Active; 'I' for Inactive)
REMARK    1  A    between atoms: C_4  and  C_7
REMARK    2  A    between atoms: N_9  and  C_10
REMARK    3  A    between atoms: C_10  and  N_12
REMARK    4  A    between atoms: N_12  and  C_13
REMARK    5  A    between atoms: C_14  and  C_22
REMARK                            x       y       z     vdW  Elec       q    Type
REMARK                         _______ _______ _______ _____ _____    ______ ____
ROOT
ATOM      1  N   UNL     1      -3.525   1.837   0.029  0.00  0.00    -0.291 N 
ATOM      2  H   UNL     1      -3.538   2.807   0.034  0.00  0.00    +0.154 HD
ENDROOT
BRANCH   1   3
ATOM      3  C   UNL     1      -4.715   1.128   0.030  0.00  0.00    +0.084 A 
ATOM      4  C   UNL     1      -6.013   1.621   0.045  0.00  0.00    +0.068 A 
ATOM      5  C   UNL     1      -7.098   0.655   0.039  0.00  0.00    -0.023 A 
ATOM      6  C   UNL     1      -6.715  -0.640   0.031  0.00  0.00    -0.004 A 
ATOM      7  S   UNL     1      -4.946  -0.589   0.023  0.00  0.00    -0.077 S 
ATOM      8  C   UNL     1      -7.605  -1.845   0.029  0.00  0.00    +0.043 C 
ATOM      9  C   UNL     1      -9.023  -1.400   0.416  0.00  0.00    +0.005 C 
ATOM     10  C   UNL     1      -9.396  -0.168  -0.413  0.00  0.00    +0.005 C 
ATOM     11  C   UNL     1      -8.573   1.037   0.047  0.00  0.00    +0.037 C 
BRANCH   4  12
ATOM     12  C   UNL     1      -6.278   3.063   0.062  0.00  0.00    +0.244 C 
ATOM     13  O   UNL     1      -6.396   3.672  -0.985  0.00  0.00    -0.270 OA
ATOM     14  N   UNL     1      -6.391   3.713   1.237  0.00  0.00    -0.325 N 
ATOM     15  H   UNL     1      -6.297   3.228   2.071  0.00  0.00    +0.145 HD
ATOM     16  H   UNL     1      -6.567   4.667   1.248  0.00  0.00    +0.145 HD
ENDBRANCH   4  12
ENDBRANCH   1   3
BRANCH   1  17
ATOM     17  C   UNL     1      -2.349   1.179   0.020  0.00  0.00    +0.141 C 
ATOM     18  S   UNL     1      -2.325  -0.532   0.010  0.00  0.00    -0.018 S 
BRANCH  17  21
ATOM     19  C   UNL     1      -0.014   1.211   0.009  0.00  0.00    +0.250 C 
ATOM     20  O   UNL     1       0.002  -0.004   0.002  0.00  0.00    -0.270 OA
ATOM     21  N   UNL     1      -1.191   1.869   0.018  0.00  0.00    -0.264 N 
ATOM     22  H   UNL     1      -1.204   2.839   0.023  0.00  0.00    +0.157 HD
BRANCH  19  26
ATOM     23  C   UNL     1       3.634   3.384  -0.015  0.00  0.00    +0.000 A 
ATOM     24  C   UNL     1       3.657   2.001  -0.023  0.00  0.00    +0.001 A 
ATOM     25  C   UNL     1       2.475   1.289  -0.015  0.00  0.00    +0.013 A 
ATOM     26  C   UNL     1       1.255   1.967   0.001  0.00  0.00    +0.037 A 
ATOM     27  C   UNL     1       1.240   3.363   0.002  0.00  0.00    +0.013 A 
ATOM     28  C   UNL     1       2.429   4.063  -0.001  0.00  0.00    +0.001 A 
ENDBRANCH  19  26
ENDBRANCH  17  21
ENDBRANCH   1  17
TORSDOF 5
