REMARK  Name = ZINC06601754
REMARK  7 active torsions:
REMARK  status: ('A' for Active; 'I' for Inactive)
REMARK    1  A    between atoms: C_1  and  C_2
REMARK    2  A    between atoms: C_2  and  C_4
REMARK    3  A    between atoms: C_2  and  N_12
REMARK    4  A    between atoms: C_13  and  C_15
REMARK    5  A    between atoms: C_19  and  S_21
REMARK    6  A    between atoms: S_21  and  N_24
REMARK    7  A    between atoms: N_24  and  C_25
REMARK                            x       y       z     vdW  Elec       q    Type
REMARK                         _______ _______ _______ _____ _____    ______ ____
ROOT
ATOM      1  N   UNL     1      -0.011   0.966   0.007  0.00  0.00    -0.305 N 
ATOM      2  C   UNL     1       1.147   1.655   0.000  0.00  0.00    +0.245 C 
ATOM      3  O   UNL     1       1.130   2.871   0.007  0.00  0.00    -0.270 OA
ATOM      4  H   UNL     1       0.002  -0.004   0.002  0.00  0.00    +0.150 HD
ENDROOT
BRANCH   2   5
ATOM      5  C   UNL     1       2.437   0.934  -0.016  0.00  0.00    +0.039 A 
ATOM      6  C   UNL     1       2.459  -0.462  -0.018  0.00  0.00    +0.013 A 
ATOM      7  C   UNL     1       3.667  -1.129  -0.038  0.00  0.00    +0.003 A 
ATOM      8  C   UNL     1       4.854  -0.418  -0.045  0.00  0.00    +0.028 A 
ATOM      9  C   UNL     1       4.838   0.965  -0.038  0.00  0.00    +0.106 A 
ATOM     10  C   UNL     1       3.638   1.645  -0.024  0.00  0.00    +0.041 A 
BRANCH   9  11
ATOM     11  S   UNL     1       6.356   1.861  -0.048  0.00  0.00    +0.058 S 
ATOM     12  O   UNL     1       7.333   0.998  -0.613  0.00  0.00    -0.153 OA
ATOM     13  O   UNL     1       6.067   3.143  -0.590  0.00  0.00    -0.153 OA
BRANCH  11  14
ATOM     14  N   UNL     1       6.792   2.102   1.531  0.00  0.00    -0.193 NA
ATOM     15  C   UNL     1       7.130   0.957   2.381  0.00  0.00    +0.127 C 
ATOM     16  H   UNL     1       6.824   3.001   1.894  0.00  0.00    +0.148 HD
ENDBRANCH  11  14
ENDBRANCH   9  11
ENDBRANCH   2   5
BRANCH   1  18
ATOM     17  C   UNL     1      -1.667   2.032   1.458  0.00  0.00    +0.033 C 
ATOM     18  C   UNL     1      -1.290   1.681   0.017  0.00  0.00    +0.102 C 
BRANCH  18  19
ATOM     19  C   UNL     1      -2.360   0.806  -0.583  0.00  0.00    -0.009 A 
ATOM     20  C   UNL     1      -2.218  -0.569  -0.566  0.00  0.00    +0.008 A 
ATOM     21  C   UNL     1      -3.201  -1.373  -1.111  0.00  0.00    +0.020 A 
ATOM     22  C   UNL     1      -4.323  -0.801  -1.684  0.00  0.00    +0.042 A 
ATOM     23  C   UNL     1      -4.463   0.575  -1.707  0.00  0.00    +0.040 A 
ATOM     24  C   UNL     1      -3.481   1.379  -1.156  0.00  0.00    +0.047 A 
ATOM     25 CL   UNL     1      -3.655   3.106  -1.184  0.00  0.00    -0.083 Cl
ATOM     26 CL   UNL     1      -5.555  -1.810  -2.375  0.00  0.00    -0.083 Cl
ENDBRANCH  18  19
ENDBRANCH   1  18
TORSDOF 5
