REMARK  Name = ZINC39677030
REMARK  10 active torsions:
REMARK  status: ('A' for Active; 'I' for Inactive)
REMARK    1  A    between atoms: C_1  and  C_2
REMARK    2  A    between atoms: C_5  and  C_38
REMARK    3  A    between atoms: C_6  and  C_8
REMARK    4  A    between atoms: C_8  and  C_9
REMARK    5  A    between atoms: C_9  and  N_10
REMARK    6  A    between atoms: C_11  and  C_13
REMARK    7  A    between atoms: C_24  and  C_26
REMARK    8  A    between atoms: C_27  and  C_37
REMARK    9  A    between atoms: C_30  and  C_31
REMARK   10  A    between atoms: C_33  and  C_36
REMARK                            x       y       z     vdW  Elec       q    Type
REMARK                         _______ _______ _______ _____ _____    ______ ____
ROOT
ATOM      1  C   UNL     1       2.701  -5.104   5.948  0.00  0.00    +0.100 C 
ATOM      2  C   UNL     1       2.270  -4.186   7.114  0.00  0.00    +0.121 C 
ATOM      3  N   UNL     1       3.127  -4.597   8.250  0.00  0.00    -0.296 N 
ATOM      4  C   UNL     1       4.454  -4.852   7.639  0.00  0.00    +0.115 C 
ATOM      5  C   UNL     1       4.134  -5.539   6.296  0.00  0.00    -0.004 C 
ATOM      6  C   UNL     1       4.204  -7.055   6.449  0.00  0.00    -0.010 C 
ATOM      7  C   UNL     1       5.650  -7.468   6.739  0.00  0.00    -0.082 C 
ATOM      8  N   UNL     1       6.517  -7.026   5.640  0.00  0.00    +0.379 N 
ATOM      9  C   UNL     1       6.516  -5.561   5.558  0.00  0.00    -0.082 C 
ATOM     10  C   UNL     1       5.106  -5.068   5.219  0.00  0.00    -0.010 C 
ATOM     11  C   UNL     1       2.780  -4.713   9.547  0.00  0.00    +0.252 C 
ATOM     12  O   UNL     1       3.605  -5.064  10.369  0.00  0.00    -0.270 OA
ATOM     13  H   UNL     1       7.458  -7.352   5.803  0.00  0.00    -0.086 HD
ATOM     14  H   UNL     1       6.177  -7.410   4.771  0.00  0.00    -0.086 HD
ENDROOT
BRANCH  11  15
ATOM     15  C   UNL     1       1.401  -4.414   9.970  0.00  0.00    +0.108 A 
ATOM     16  C   UNL     1       0.326  -5.335  10.041  0.00  0.00    +0.093 A 
ATOM     17  N   UNL     1      -0.727  -4.697  10.456  0.00  0.00    -0.082 NA
ATOM     18  O   UNL     1      -0.386  -3.341  10.670  0.00  0.00    -0.352 OA
ATOM     19  C   UNL     1       0.914  -3.180  10.377  0.00  0.00    +0.201 A 
ATOM     20  C   UNL     1       0.393  -6.801   9.697  0.00  0.00    +0.070 C 
BRANCH  19  21
ATOM     21  C   UNL     1       1.685  -1.922  10.468  0.00  0.00    +0.152 A 
ATOM     22  C   UNL     1       1.184  -0.665  10.890  0.00  0.00    +0.079 A 
ATOM     23  C   UNL     1       2.191   0.224  10.835  0.00  0.00    +0.135 A 
ATOM     24  O   UNL     1       3.291  -0.411  10.401  0.00  0.00    -0.359 OA
ATOM     25  N   UNL     1       2.956  -1.769  10.178  0.00  0.00    -0.075 NA
ATOM     26  C   UNL     1       2.101   1.684  11.196  0.00  0.00    +0.089 C 
ENDBRANCH  19  21
ENDBRANCH  11  15
BRANCH   1  28
ATOM     27  N   UNL     1       2.455  -4.994   3.489  0.00  0.00    -0.315 N 
ATOM     28  C   UNL     1       2.684  -4.344   4.647  0.00  0.00    +0.218 C 
ATOM     29  O   UNL     1       2.878  -3.147   4.642  0.00  0.00    -0.275 OA
ATOM     30  H   UNL     1       2.300  -5.952   3.493  0.00  0.00    +0.149 HD
BRANCH  27  31
ATOM     31  C   UNL     1       2.439  -4.255   2.224  0.00  0.00    +0.109 C 
BRANCH  31  32
ATOM     32  C   UNL     1       2.158  -5.222   1.072  0.00  0.00    +0.054 C 
BRANCH  32  38
ATOM     33  C   UNL     1      -0.378  -2.826  -2.516  0.00  0.00    +0.044 C 
ATOM     34  C   UNL     1       0.928  -3.316  -1.946  0.00  0.00    -0.050 A 
ATOM     35  C   UNL     1       2.111  -3.067  -2.616  0.00  0.00    +0.003 A 
ATOM     36  C   UNL     1       3.309  -3.516  -2.093  0.00  0.00    +0.004 A 
ATOM     37  C   UNL     1       3.325  -4.213  -0.899  0.00  0.00    -0.047 A 
ATOM     38  C   UNL     1       2.142  -4.461  -0.229  0.00  0.00    -0.043 A 
ATOM     39  C   UNL     1       0.944  -4.008  -0.750  0.00  0.00    +0.007 A 
ATOM     40  C   UNL     1       4.631  -4.704  -0.330  0.00  0.00    +0.044 C 
ENDBRANCH  32  38
ENDBRANCH  31  32
ENDBRANCH  27  31
ENDBRANCH   1  28
TORSDOF 6
