REMARK  Name = ZINC20673508
REMARK  1 active torsions:
REMARK  status: ('A' for Active; 'I' for Inactive)
REMARK    1  A    between atoms: C_6  and  C_7
REMARK                            x       y       z     vdW  Elec       q    Type
REMARK                         _______ _______ _______ _____ _____    ______ ____
ROOT
ATOM      1  C   UNL     1       2.449   1.500  -0.525  0.00  0.00    +0.008 A 
ATOM      2  C   UNL     1       1.243   2.119  -0.148  0.00  0.00    +0.067 A 
ATOM      3  C   UNL     1       0.099   1.374   0.221  0.00  0.00    +0.131 A 
ATOM      4  N   UNL     1      -0.999   2.037   0.560  0.00  0.00    -0.199 NA
ATOM      5  C   UNL     1      -1.026   3.366   0.566  0.00  0.00    +0.216 A 
ATOM      6  N   UNL     1       0.015   4.106   0.230  0.00  0.00    -0.195 NA
ATOM      7  C   UNL     1       1.170   3.534  -0.135  0.00  0.00    +0.167 A 
ATOM      8  N   UNL     1       2.229   4.268  -0.481  0.00  0.00    -0.231 NA
ATOM      9  C   UNL     1       3.376   3.730  -0.842  0.00  0.00    +0.055 A 
ATOM     10  C   UNL     1       3.530   2.336  -0.871  0.00  0.00    +0.047 A 
ATOM     11  C   UNL     1       4.814   1.738  -1.258  0.00  0.00    +0.165 C 
ATOM     12  O   UNL     1       5.031   0.556  -1.092  0.00  0.00    -0.292 OA
ATOM     13  C   UNL     1       5.858   2.648  -1.871  0.00  0.00    +0.080 C 
ATOM     14  C   UNL     1       5.859   3.953  -1.065  0.00  0.00    +0.014 C 
ATOM     15  C   UNL     1       4.510   4.647  -1.222  0.00  0.00    +0.056 C 
ATOM     16  N   UNL     1      -2.196   4.000   0.934  0.00  0.00    -0.327 N 
ATOM     17  N   UNL     1       0.122  -0.003   0.222  0.00  0.00    -0.342 N 
ATOM     18  H   UNL     1      -2.245   5.099   0.947  0.00  0.00    +0.145 HD
ATOM     19  H   UNL     1      -3.079   3.407   1.214  0.00  0.00    +0.145 HD
ATOM     20  H   UNL     1      -0.776  -0.568   0.511  0.00  0.00    +0.144 HD
ATOM     21  H   UNL     1       1.039  -0.537  -0.066  0.00  0.00    +0.144 HD
ENDROOT
BRANCH   1  27
ATOM     22  C   UNL     1       3.274  -0.637   0.455  0.00  0.00    +0.010 A 
ATOM     23  C   UNL     1       3.386  -2.011   0.423  0.00  0.00    +0.020 A 
ATOM     24  C   UNL     1       2.819  -2.731  -0.616  0.00  0.00    +0.041 A 
ATOM     25  C   UNL     1       2.132  -2.076  -1.625  0.00  0.00    +0.020 A 
ATOM     26  C   UNL     1       2.009  -0.703  -1.602  0.00  0.00    +0.010 A 
ATOM     27  C   UNL     1       2.578   0.028  -0.557  0.00  0.00    -0.016 A 
ATOM     28 CL   UNL     1       2.970  -4.460  -0.653  0.00  0.00    -0.084 Cl
ENDBRANCH   1  27
TORSDOF 1
