REMARK  Name = ZINC20504499
REMARK  9 active torsions:
REMARK  status: ('A' for Active; 'I' for Inactive)
REMARK    1  A    between atoms: C_1  and  C_2
REMARK    2  A    between atoms: N_9  and  C_10
REMARK    3  A    between atoms: C_10  and  C_11
REMARK    4  A    between atoms: C_18  and  C_40
REMARK    5  A    between atoms: C_21  and  O_39
REMARK    6  A    between atoms: C_23  and  C_27
REMARK    7  A    between atoms: C_27  and  C_29
REMARK    8  A    between atoms: C_27  and  C_30
REMARK    9  A    between atoms: N_35  and  C_38
REMARK                            x       y       z     vdW  Elec       q    Type
REMARK                         _______ _______ _______ _____ _____    ______ ____
ROOT
ATOM      1  C   UNL     1       4.436   8.411  -3.685  0.00  0.00    +0.014 C 
ATOM      2  C   UNL     1       5.394   8.293  -2.498  0.00  0.00    +0.039 C 
ATOM      3  C   UNL     1       4.695   8.765  -1.233  0.00  0.00    +0.031 A 
ATOM      4  C   UNL     1       5.362   9.527  -0.330  0.00  0.00    +0.013 A 
ATOM      5  S   UNL     1       4.142   9.801   0.926  0.00  0.00    -0.059 S 
ATOM      6  C   UNL     1       2.860   8.895   0.179  0.00  0.00    +0.137 A 
ATOM      7  N   UNL     1       3.431   8.473  -0.931  0.00  0.00    -0.340 N 
ATOM      8  N   UNL     1       1.568   8.677   0.632  0.00  0.00    -0.321 N 
ATOM      9  C   UNL     1       6.769  10.006  -0.406  0.00  0.00    +0.051 C 
ATOM     10  C   UNL     1       7.510   9.213  -1.501  0.00  0.00    -0.022 C 
ATOM     11  C   UNL     1       6.635   9.159  -2.755  0.00  0.00    +0.033 C 
ATOM     12  C   UNL     1       7.410   8.520  -3.912  0.00  0.00    +0.123 C 
ATOM     13  C   UNL     1       8.690   9.305  -4.192  0.00  0.00    +0.029 C 
ATOM     14  C   UNL     1       9.568   9.280  -2.938  0.00  0.00    +0.007 C 
ATOM     15  C   UNL     1       8.814   9.960  -1.797  0.00  0.00    +0.008 C 
ATOM     16  C   UNL     1       7.806   7.795  -1.009  0.00  0.00    +0.012 C 
ATOM     17  H   UNL     1       0.869   8.078   0.031  0.00  0.00    +0.148 HD
ATOM     18  H   UNL     1       2.828   7.862  -1.618  0.00  0.00    +0.167 HD
ENDROOT
BRANCH  13  19
ATOM     19  C   UNL     1       8.337  10.752  -4.543  0.00  0.00    +0.078 C 
ATOM     20  C   UNL     1       7.568  10.783  -5.865  0.00  0.00    +0.017 C 
BRANCH  19  21
ATOM     21  C   UNL     1       9.603  11.559  -4.679  0.00  0.00    +0.219 C 
ATOM     22  O   UNL     1      10.631  11.019  -5.030  0.00  0.00    -0.275 OA
ATOM     23  N   UNL     1       9.593  12.879  -4.410  0.00  0.00    -0.299 N 
ATOM     24  C   UNL     1       8.337  13.575  -4.093  0.00  0.00    +0.123 C 
ATOM     25  C   UNL     1       8.539  14.364  -2.789  0.00  0.00    +0.103 C 
ATOM     26  N   UNL     1       9.713  15.236  -2.927  0.00  0.00    -0.302 NA
ATOM     27  C   UNL     1      10.940  14.450  -3.121  0.00  0.00    +0.103 C 
ATOM     28  C   UNL     1      10.837  13.664  -4.432  0.00  0.00    +0.123 C 
ATOM     29  C   UNL     1       9.841  16.134  -1.773  0.00  0.00    +0.105 C 
ENDBRANCH  19  21
ENDBRANCH  13  19
BRANCH  12  30
ATOM     30  O   UNL     1       6.592   8.515  -5.083  0.00  0.00    -0.391 OA
ATOM     31  H   UNL     1       6.979   8.093  -6.023  0.00  0.00    +0.210 HD
ENDBRANCH  12  30
BRANCH   8  32
ATOM     32  C   UNL     1       1.135   9.245   1.911  0.00  0.00    +0.138 C 
BRANCH  32  33
ATOM     33  C   UNL     1      -0.300   8.864   2.170  0.00  0.00    -0.030 A 
ATOM     34  C   UNL     1      -0.593   7.698   2.852  0.00  0.00    +0.005 A 
ATOM     35  C   UNL     1      -1.909   7.348   3.089  0.00  0.00    +0.000 A 
ATOM     36  C   UNL     1      -2.933   8.161   2.639  0.00  0.00    +0.000 A 
ATOM     37  C   UNL     1      -2.639   9.330   1.961  0.00  0.00    +0.000 A 
ATOM     38  C   UNL     1      -1.323   9.680   1.724  0.00  0.00    +0.005 A 
ENDBRANCH  32  33
ENDBRANCH   8  32
TORSDOF 5
