REMARK  Name = ZINC11935573
REMARK  6 active torsions:
REMARK  status: ('A' for Active; 'I' for Inactive)
REMARK    1  A    between atoms: C_5  and  C_7
REMARK    2  A    between atoms: C_7  and  N_51
REMARK    3  A    between atoms: C_13  and  C_15
REMARK    4  A    between atoms: C_15  and  C_16
REMARK    5  A    between atoms: N_18  and  C_19
REMARK    6  A    between atoms: C_19  and  C_20
REMARK                            x       y       z     vdW  Elec       q    Type
REMARK                         _______ _______ _______ _____ _____    ______ ____
ROOT
ATOM      1  C   UNL     1       5.213  10.428   2.621  0.00  0.00    -0.058 C 
ATOM      2  C   UNL     1       5.390  10.762   4.103  0.00  0.00    +0.085 C 
ATOM      3  N   UNL     1       6.073   9.666   4.785  0.00  0.00    -0.318 N 
ATOM      4  C   UNL     1       6.154   8.432   4.276  0.00  0.00    +0.200 C 
ATOM      5  O   UNL     1       6.713   7.572   4.924  0.00  0.00    -0.278 OA
ATOM      6  C   UNL     1       5.582   8.066   2.936  0.00  0.00    +0.028 C 
ATOM      7  H   UNL     1       6.486   9.841   5.645  0.00  0.00    +0.149 HD
ATOM      8  N   UNL     1       4.601   9.087   2.524  0.00  0.00    +0.391 N 
ATOM      9  H   UNL     1       3.788   9.044   3.149  0.00  0.00    -0.080 HD
ENDROOT
BRANCH   8  10
ATOM     10  C   UNL     1       4.155   8.831   1.135  0.00  0.00    -0.039 C 
BRANCH  10  15
ATOM     11  C   UNL     1       2.333  11.764  -0.391  0.00  0.00    +0.000 A 
ATOM     12  C   UNL     1       1.062  11.603   0.132  0.00  0.00    +0.003 A 
ATOM     13  C   UNL     1       0.792  10.546   0.979  0.00  0.00    +0.038 A 
ATOM     14  C   UNL     1       1.792   9.644   1.302  0.00  0.00    +0.125 A 
ATOM     15  C   UNL     1       3.065   9.809   0.782  0.00  0.00    -0.029 A 
ATOM     16  C   UNL     1       3.333  10.867  -0.066  0.00  0.00    +0.004 A 
ATOM     17  F   UNL     1       1.527   8.607   2.126  0.00  0.00    -0.205 F 
ENDBRANCH  10  15
ENDBRANCH   8  10
BRANCH   6  18
ATOM     18  C   UNL     1       4.877   6.712   3.038  0.00  0.00    +0.089 C 
BRANCH  18  19
ATOM     19  C   UNL     1       3.722   6.818   4.000  0.00  0.00    +0.212 C 
ATOM     20  O   UNL     1       3.541   7.845   4.620  0.00  0.00    -0.276 OA
ATOM     21  N   UNL     1       2.890   5.772   4.173  0.00  0.00    -0.310 N 
ATOM     22  H   UNL     1       3.034   4.950   3.678  0.00  0.00    +0.149 HD
BRANCH  21  23
ATOM     23  C   UNL     1       1.767   5.875   5.108  0.00  0.00    +0.161 C 
BRANCH  23  24
ATOM     24  C   UNL     1       0.998   4.579   5.115  0.00  0.00    +0.077 A 
ATOM     25  C   UNL     1       1.172   3.564   5.990  0.00  0.00    +0.117 A 
ATOM     26  N   UNL     1       0.282   2.582   5.651  0.00  0.00    -0.306 N 
ATOM     27  C   UNL     1       0.018   1.352   6.181  0.00  0.00    +0.092 A 
ATOM     28  C   UNL     1      -0.935   0.562   5.643  0.00  0.00    +0.018 A 
ATOM     29  C   UNL     1      -1.670   0.997   4.529  0.00  0.00    +0.005 A 
ATOM     30  C   UNL     1      -1.418   2.221   3.991  0.00  0.00    +0.047 A 
ATOM     31  C   UNL     1      -0.419   3.034   4.564  0.00  0.00    +0.138 A 
ATOM     32  N   UNL     1       0.031   4.243   4.258  0.00  0.00    -0.231 NA
ENDBRANCH  23  24
ENDBRANCH  21  23
ENDBRANCH  18  19
ENDBRANCH   6  18
TORSDOF 6
