REMARK  Name = ZINC11898755
REMARK  9 active torsions:
REMARK  status: ('A' for Active; 'I' for Inactive)
REMARK    1  A    between atoms: C_1  and  N_2
REMARK    2  A    between atoms: C_6  and  C_7
REMARK    3  A    between atoms: C_7  and  C_9
REMARK    4  A    between atoms: C_7  and  N_59
REMARK    5  A    between atoms: C_9  and  N_10
REMARK    6  A    between atoms: C_11  and  C_13
REMARK    7  A    between atoms: N_15  and  C_16
REMARK    8  A    between atoms: C_21  and  S_22
REMARK    9  A    between atoms: S_22  and  C_23
REMARK                            x       y       z     vdW  Elec       q    Type
REMARK                         _______ _______ _______ _____ _____    ______ ____
ROOT
ATOM      1  C   UNL     1      -2.272  -1.832   1.015  0.00  0.00    +0.095 C 
ENDROOT
BRANCH   1   2
ATOM      2  N   UNL     1      -2.383  -1.273  -0.335  0.00  0.00    -0.309 N 
ATOM      3  C   UNL     1      -3.594  -0.958  -0.836  0.00  0.00    +0.299 C 
ATOM      4  O   UNL     1      -4.592  -1.137  -0.169  0.00  0.00    -0.265 OA
ATOM      5  H   UNL     1      -1.585  -1.130  -0.868  0.00  0.00    +0.149 HD
BRANCH   3   6
ATOM      6  C   UNL     1      -3.708  -0.389  -2.211  0.00  0.00    +0.303 C 
ATOM      7  O   UNL     1      -2.709  -0.210  -2.878  0.00  0.00    -0.265 OA
ATOM      8  N   UNL     1      -4.918  -0.073  -2.712  0.00  0.00    -0.277 N 
ATOM      9  H   UNL     1      -5.708  -0.144  -2.153  0.00  0.00    +0.155 HD
BRANCH   8  10
ATOM     10  C   UNL     1      -5.037   0.355  -4.038  0.00  0.00    +0.047 A 
ATOM     11  C   UNL     1      -4.161  -0.119  -5.004  0.00  0.00    +0.024 A 
ATOM     12  C   UNL     1      -4.283   0.301  -6.315  0.00  0.00    +0.002 A 
ATOM     13  C   UNL     1      -5.270   1.204  -6.667  0.00  0.00    +0.001 A 
ATOM     14  C   UNL     1      -6.144   1.687  -5.712  0.00  0.00    +0.016 A 
ATOM     15  C   UNL     1      -6.033   1.266  -4.394  0.00  0.00    +0.029 A 
BRANCH  15  16
ATOM     16  S   UNL     1      -7.145   1.881  -3.173  0.00  0.00    -0.127 S 
ATOM     17  C   UNL     1      -8.230   3.006  -4.094  0.00  0.00    +0.090 C 
ENDBRANCH  15  16
ENDBRANCH   8  10
ENDBRANCH   3   6
ENDBRANCH   1   2
BRANCH   1  18
ATOM     18  C   UNL     1      -0.794  -1.982   1.385  0.00  0.00    -0.003 C 
BRANCH  18  25
ATOM     19  C   UNL     1       1.312  -0.792   1.582  0.00  0.00    -0.078 C 
ATOM     20  C   UNL     1       2.096   0.182   0.739  0.00  0.00    -0.019 C 
ATOM     21  C   UNL     1       2.292   1.526   1.461  0.00  0.00    -0.002 C 
ATOM     22  C   UNL     1       1.018   1.972   2.206  0.00  0.00    -0.002 C 
ATOM     23  C   UNL     1      -0.237   1.726   1.408  0.00  0.00    -0.019 C 
ATOM     24  C   UNL     1      -0.815   0.346   1.791  0.00  0.00    -0.078 C 
ATOM     25  N   UNL     1      -0.113  -0.699   1.134  0.00  0.00    +0.386 N 
ATOM     26  H   UNL     1      -0.122  -0.508   0.125  0.00  0.00    -0.081 HD
ENDBRANCH  18  25
BRANCH  18  32
ATOM     27  C   UNL     1       0.725  -4.457   2.470  0.00  0.00    +0.148 C 
ATOM     28  N   UNL     1      -0.006  -3.490   3.293  0.00  0.00    -0.355 N 
ATOM     29  C   UNL     1      -0.124  -3.531   4.651  0.00  0.00    +0.085 A 
ATOM     30  C   UNL     1      -0.872  -2.479   5.041  0.00  0.00    +0.019 A 
ATOM     31  C   UNL     1      -1.224  -1.759   3.882  0.00  0.00    +0.021 A 
ATOM     32  C   UNL     1      -0.677  -2.398   2.828  0.00  0.00    +0.006 A 
ENDBRANCH  18  32
ENDBRANCH   1  18
TORSDOF 7
