REMARK  Name = ZINC04794648
REMARK  9 active torsions:
REMARK  status: ('A' for Active; 'I' for Inactive)
REMARK    1  A    between atoms: C_1  and  C_2
REMARK    2  A    between atoms: C_2  and  C_31
REMARK    3  A    between atoms: C_6  and  C_19
REMARK    4  A    between atoms: C_10  and  O_17
REMARK    5  A    between atoms: C_11  and  O_15
REMARK    6  A    between atoms: O_15  and  C_16
REMARK    7  A    between atoms: O_17  and  C_18
REMARK    8  A    between atoms: C_22  and  O_26
REMARK    9  A    between atoms: O_26  and  C_27
REMARK                            x       y       z     vdW  Elec       q    Type
REMARK                         _______ _______ _______ _____ _____    ______ ____
ROOT
ATOM      1  C   UNL     1       2.180  -4.209   5.509  0.00  0.00    +0.011 C 
ATOM      2  C   UNL     1       3.598  -3.688   5.752  0.00  0.00    -0.023 C 
ATOM      3  C   UNL     1       3.945  -2.629   4.704  0.00  0.00    +0.058 C 
ATOM      4  C   UNL     1       2.990  -1.465   4.825  0.00  0.00    +0.016 C 
ATOM      5  C   UNL     1       2.458  -1.123   6.019  0.00  0.00    +0.024 C 
ATOM      6  C   UNL     1       1.525   0.053   6.154  0.00  0.00    +0.086 C 
ATOM      7  C   UNL     1       0.938   0.444   4.828  0.00  0.00    -0.011 A 
ATOM      8  C   UNL     1      -0.203   1.226   4.785  0.00  0.00    +0.055 A 
ATOM      9  C   UNL     1      -0.745   1.600   3.567  0.00  0.00    +0.162 A 
ATOM     10  C   UNL     1      -0.148   1.182   2.380  0.00  0.00    +0.163 A 
ATOM     11  C   UNL     1       0.992   0.398   2.422  0.00  0.00    +0.073 A 
ATOM     12  C   UNL     1       1.535   0.029   3.646  0.00  0.00    +0.039 A 
ATOM     13  N   UNL     1       2.682  -0.765   3.695  0.00  0.00    -0.317 N 
ATOM     14  C   UNL     1       2.762  -1.853   7.180  0.00  0.00    +0.162 C 
ATOM     15  O   UNL     1       2.271  -1.517   8.240  0.00  0.00    -0.292 OA
ATOM     16  C   UNL     1       3.681  -3.043   7.139  0.00  0.00    +0.086 C 
ATOM     17  C   UNL     1       4.594  -4.846   5.662  0.00  0.00    +0.011 C 
ATOM     18  H   UNL     1       3.263  -0.821   2.920  0.00  0.00    +0.152 HD
ENDROOT
BRANCH   6  19
ATOM     19  C   UNL     1       2.287   1.223   6.721  0.00  0.00    -0.034 A 
ATOM     20  C   UNL     1       1.892   1.788   7.920  0.00  0.00    +0.008 A 
ATOM     21  C   UNL     1       2.588   2.860   8.443  0.00  0.00    +0.047 A 
ATOM     22  C   UNL     1       3.684   3.372   7.763  0.00  0.00    +0.138 A 
ATOM     23  C   UNL     1       4.078   2.805   6.559  0.00  0.00    +0.083 A 
ATOM     24  C   UNL     1       3.382   1.727   6.044  0.00  0.00    +0.028 A 
ATOM     25 CL   UNL     1       5.449   3.442   5.705  0.00  0.00    -0.080 Cl
BRANCH  22  26
ATOM     26  O   UNL     1       4.371   4.427   8.275  0.00  0.00    -0.494 OA
ATOM     27  C   UNL     1       3.909   4.960   9.518  0.00  0.00    +0.277 C 
ENDBRANCH  22  26
ENDBRANCH   6  19
BRANCH  10  28
ATOM     28  O   UNL     1      -0.682   1.547   1.184  0.00  0.00    -0.491 OA
ATOM     29  C   UNL     1      -0.013   1.086   0.008  0.00  0.00    +0.277 C 
ENDBRANCH  10  28
BRANCH   9  30
ATOM     30  O   UNL     1      -1.864   2.373   3.529  0.00  0.00    -0.491 OA
ATOM     31  C   UNL     1      -2.423   2.766   4.784  0.00  0.00    +0.277 C 
ENDBRANCH   9  30
TORSDOF 4
