REMARK  Name = ZINC65004902
REMARK  6 active torsions:
REMARK  status: ('A' for Active; 'I' for Inactive)
REMARK    1  A    between atoms: C_1  and  C_2
REMARK    2  A    between atoms: C_4  and  C_24
REMARK    3  A    between atoms: C_5  and  C_23
REMARK    4  A    between atoms: C_6  and  O_8
REMARK    5  A    between atoms: O_8  and  C_9
REMARK    6  A    between atoms: C_9  and  C_10
REMARK                            x       y       z     vdW  Elec       q    Type
REMARK                         _______ _______ _______ _____ _____    ______ ____
ROOT
ATOM      1  C   UNL     1       0.063  -2.932   4.751  0.00  0.00    +0.256 C 
ATOM      2  O   UNL     1       0.078  -4.133   4.584  0.00  0.00    -0.272 OA
ATOM      3  N   UNL     1       0.062  -2.425   6.000  0.00  0.00    -0.262 N 
ATOM      4  C   UNL     1       0.078  -3.277   7.093  0.00  0.00    +0.166 A 
ATOM      5  N   UNL     1       0.102  -4.589   7.114  0.00  0.00    -0.222 NA
ATOM      6  C   UNL     1       0.115  -5.296   8.265  0.00  0.00    +0.115 A 
ATOM      7  C   UNL     1       0.140  -6.703   8.426  0.00  0.00    +0.150 A 
ATOM      8  C   UNL     1       0.150  -7.264   9.678  0.00  0.00    +0.040 A 
ATOM      9  C   UNL     1       0.138  -6.481  10.824  0.00  0.00    +0.004 A 
ATOM     10  C   UNL     1       0.114  -5.104  10.702  0.00  0.00    +0.017 A 
ATOM     11  C   UNL     1       0.103  -4.533   9.454  0.00  0.00    +0.044 A 
ATOM     12  S   UNL     1       0.081  -2.868   8.833  0.00  0.00    -0.052 S 
ATOM     13  F   UNL     1       0.153  -7.501   7.336  0.00  0.00    -0.203 F 
ATOM     14  H   UNL     1       0.050  -1.465   6.134  0.00  0.00    +0.157 HD
ENDROOT
BRANCH   1  15
ATOM     15  C   UNL     1       0.045  -2.006   3.562  0.00  0.00    +0.325 C 
BRANCH  15  16
ATOM     16  O   UNL     1       0.050  -2.776   2.358  0.00  0.00    -0.482 OA
BRANCH  16  22
ATOM     17  C   UNL     1      -0.018   1.503   0.010  0.00  0.00    +0.044 C 
ATOM     18  C   UNL     1       0.002  -0.004   0.002  0.00  0.00    -0.047 A 
ATOM     19  C   UNL     1       0.006  -0.688  -1.200  0.00  0.00    +0.007 A 
ATOM     20  C   UNL     1       0.024  -2.071  -1.211  0.00  0.00    -0.044 A 
ATOM     21  C   UNL     1       0.039  -2.772  -0.020  0.00  0.00    -0.006 A 
ATOM     22  C   UNL     1       0.035  -2.088   1.186  0.00  0.00    +0.125 A 
ATOM     23  C   UNL     1       0.023  -0.700   1.195  0.00  0.00    +0.049 A 
ATOM     24  C   UNL     1       0.059  -4.279  -0.033  0.00  0.00    +0.048 C 
ATOM     25  C   UNL     1       0.028  -2.813  -2.522  0.00  0.00    +0.044 C 
ENDBRANCH  16  22
ENDBRANCH  15  16
ENDBRANCH   1  15
TORSDOF 3
