REMARK  Name = ZINC08926081
REMARK  6 active torsions:
REMARK  status: ('A' for Active; 'I' for Inactive)
REMARK    1  A    between atoms: C_4  and  C_7
REMARK    2  A    between atoms: C_10  and  C_33
REMARK    3  A    between atoms: N_12  and  C_13
REMARK    4  A    between atoms: C_16  and  C_19
REMARK    5  A    between atoms: C_20  and  C_21
REMARK    6  A    between atoms: C_21  and  C_23
REMARK                            x       y       z     vdW  Elec       q    Type
REMARK                         _______ _______ _______ _____ _____    ______ ____
ROOT
ATOM      1  C   UNL     1      -8.584   1.529  -0.334  0.00  0.00    +0.052 A 
ATOM      2  C   UNL     1      -8.626   2.917  -0.221  0.00  0.00    +0.025 A 
ATOM      3  C   UNL     1      -7.466   3.632  -0.125  0.00  0.00    +0.010 A 
ATOM      4  C   UNL     1      -6.233   2.967  -0.140  0.00  0.00    -0.025 A 
ATOM      5  C   UNL     1      -6.195   1.571  -0.258  0.00  0.00    +0.010 A 
ATOM      6  C   UNL     1      -7.359   0.864  -0.350  0.00  0.00    +0.025 A 
ENDROOT
BRANCH   1  11
ATOM      7  C   UNL     1      -9.867  -0.657  -0.556  0.00  0.00    +0.134 C 
ATOM      8  C   UNL     1     -11.386  -0.910  -0.626  0.00  0.00    +0.087 C 
ATOM      9  C   UNL     1     -11.991   0.473  -0.532  0.00  0.00    +0.069 C 
ATOM     10  N   UNL     1     -11.050   1.347  -0.423  0.00  0.00    -0.183 NA
ATOM     11  N   UNL     1      -9.766   0.806  -0.432  0.00  0.00    -0.216 N 
BRANCH   7  15
ATOM     12  C   UNL     1      -8.180  -2.575   2.868  0.00  0.00    +0.000 A 
ATOM     13  C   UNL     1      -7.995  -3.118   1.610  0.00  0.00    +0.000 A 
ATOM     14  C   UNL     1      -8.541  -2.498   0.502  0.00  0.00    +0.005 A 
ATOM     15  C   UNL     1      -9.272  -1.333   0.652  0.00  0.00    -0.025 A 
ATOM     16  C   UNL     1      -9.452  -0.787   1.909  0.00  0.00    +0.005 A 
ATOM     17  C   UNL     1      -8.910  -1.411   3.018  0.00  0.00    +0.000 A 
ENDBRANCH   7  15
BRANCH   9  18
ATOM     18  C   UNL     1     -13.434   0.774  -0.555  0.00  0.00    -0.002 A 
ATOM     19  C   UNL     1     -14.365  -0.261  -0.677  0.00  0.00    +0.010 A 
ATOM     20  C   UNL     1     -15.713   0.028  -0.692  0.00  0.00    +0.001 A 
ATOM     21  C   UNL     1     -16.145   1.339  -0.598  0.00  0.00    +0.000 A 
ATOM     22  C   UNL     1     -15.228   2.369  -0.482  0.00  0.00    +0.001 A 
ATOM     23  C   UNL     1     -13.877   2.095  -0.460  0.00  0.00    +0.010 A 
ENDBRANCH   9  18
ENDBRANCH   1  11
BRANCH   4  24
ATOM     24  C   UNL     1      -4.984   3.731  -0.037  0.00  0.00    +0.012 C 
ATOM     25  C   UNL     1      -3.793   3.086  -0.052  0.00  0.00    +0.052 C 
BRANCH  25  26
ATOM     26  C   UNL     1      -2.587   3.824   0.047  0.00  0.00    +0.187 C 
ATOM     27  O   UNL     1      -2.622   5.038   0.145  0.00  0.00    -0.287 OA
BRANCH  26  28
ATOM     28  C   UNL     1      -1.290   3.122   0.032  0.00  0.00    +0.029 A 
ATOM     29  C   UNL     1      -1.234   1.734   0.039  0.00  0.00    +0.012 A 
ATOM     30  C   UNL     1      -0.012   1.076   0.030  0.00  0.00    +0.001 A 
ATOM     31  C   UNL     1       1.168   1.754   0.001  0.00  0.00    +0.008 A 
ATOM     32  C   UNL     1       1.188   3.158  -0.014  0.00  0.00    -0.017 A 
ATOM     33  C   UNL     1      -0.036   3.872   0.000  0.00  0.00    -0.007 A 
ATOM     34  C   UNL     1      -0.021   5.272  -0.016  0.00  0.00    +0.009 A 
ATOM     35  C   UNL     1       1.171   5.932  -0.045  0.00  0.00    +0.001 A 
ATOM     36  C   UNL     1       2.376   5.234  -0.059  0.00  0.00    +0.001 A 
ATOM     37  C   UNL     1       2.398   3.872  -0.045  0.00  0.00    +0.008 A 
ENDBRANCH  26  28
ENDBRANCH  25  26
ENDBRANCH   4  24
TORSDOF 6
