REMARK  Name = ZINC20680183
REMARK  6 active torsions:
REMARK  status: ('A' for Active; 'I' for Inactive)
REMARK    1  A    between atoms: C_3  and  O_32
REMARK    2  A    between atoms: C_6  and  C_7
REMARK    3  A    between atoms: C_18  and  O_23
REMARK    4  A    between atoms: O_23  and  C_24
REMARK    5  A    between atoms: C_24  and  C_25
REMARK    6  A    between atoms: C_25  and  C_26
REMARK                            x       y       z     vdW  Elec       q    Type
REMARK                         _______ _______ _______ _____ _____    ______ ____
ROOT
ATOM      1  C   UNL     1      -2.513   0.977   0.019  0.00  0.00    +0.105 C 
ATOM      2  C   UNL     1      -3.132   0.992   1.405  0.00  0.00    +0.029 C 
ATOM      3  C   UNL     1      -2.388   0.204   2.487  0.00  0.00    +0.033 C 
ATOM      4  C   UNL     1      -3.543  -0.172   3.418  0.00  0.00    -0.030 C 
ATOM      5  C   UNL     1      -4.680  -0.221   2.734  0.00  0.00    -0.023 C 
ATOM      6  C   UNL     1      -4.389   0.078   1.309  0.00  0.00    +0.049 C 
ATOM      7  C   UNL     1      -5.374   0.747   0.432  0.00  0.00    -0.016 A 
ATOM      8  C   UNL     1      -6.733   0.648   0.637  0.00  0.00    +0.051 A 
ATOM      9  C   UNL     1      -7.618   1.277  -0.226  0.00  0.00    +0.121 A 
ATOM     10  C   UNL     1      -7.133   2.009  -1.300  0.00  0.00    +0.047 A 
ATOM     11  C   UNL     1      -5.773   2.117  -1.505  0.00  0.00    +0.027 A 
ATOM     12  C   UNL     1      -4.880   1.495  -0.642  0.00  0.00    +0.032 A 
ATOM     13  N   UNL     1      -3.501   1.633  -0.865  0.00  0.00    -0.336 N 
ATOM     14  H   UNL     1      -3.160   2.241  -1.716  0.00  0.00    +0.147 HD
ENDROOT
BRANCH   1  20
ATOM     15  C   UNL     1      -0.013   1.076   0.008  0.00  0.00    +0.009 A 
ATOM     16  C   UNL     1       1.175   1.782   0.000  0.00  0.00    +0.046 A 
ATOM     17  C   UNL     1       1.155   3.169   0.008  0.00  0.00    +0.117 A 
ATOM     18  C   UNL     1      -0.057   3.844   0.023  0.00  0.00    +0.046 A 
ATOM     19  C   UNL     1      -1.242   3.133   0.031  0.00  0.00    +0.009 A 
ATOM     20  C   UNL     1      -1.220   1.750   0.017  0.00  0.00    -0.027 A 
BRANCH  17  21
ATOM     21  O   UNL     1       2.322   3.866   0.000  0.00  0.00    -0.507 OA
ATOM     22  H   UNL     1       2.305   4.966   0.006  0.00  0.00    +0.292 HD
ENDBRANCH  17  21
ENDBRANCH   1  20
BRANCH   9  23
ATOM     23  O   UNL     1      -8.959   1.177  -0.019  0.00  0.00    -0.492 OA
BRANCH  23  24
ATOM     24  C   UNL     1      -9.810   1.851  -0.948  0.00  0.00    +0.229 C 
BRANCH  24  25
ATOM     25  C   UNL     1     -11.272   1.626  -0.556  0.00  0.00    +0.044 C 
BRANCH  25  26
ATOM     26  C   UNL     1     -12.183   2.348  -1.551  0.00  0.00    -0.008 C 
ATOM     27  C   UNL     1     -11.963   3.858  -1.442  0.00  0.00    +0.003 C 
ATOM     28  C   UNL     1     -12.874   4.579  -2.437  0.00  0.00    +0.000 C 
ATOM     29  C   UNL     1     -14.335   4.253  -2.119  0.00  0.00    +0.000 C 
ATOM     30  C   UNL     1     -14.556   2.743  -2.228  0.00  0.00    +0.000 C 
ATOM     31  C   UNL     1     -13.644   2.021  -1.234  0.00  0.00    +0.003 C 
ENDBRANCH  25  26
ENDBRANCH  24  25
ENDBRANCH  23  24
ENDBRANCH   9  23
TORSDOF 6
