REMARK  Name = ZINC09029550
REMARK  10 active torsions:
REMARK  status: ('A' for Active; 'I' for Inactive)
REMARK    1  A    between atoms: C_1  and  C_2
REMARK    2  A    between atoms: C_2  and  C_4
REMARK    3  A    between atoms: C_2  and  C_5
REMARK    4  A    between atoms: C_5  and  C_7
REMARK    5  A    between atoms: C_5  and  N_23
REMARK    6  A    between atoms: C_10  and  S_12
REMARK    7  A    between atoms: S_12  and  C_15
REMARK    8  A    between atoms: C_15  and  C_16
REMARK    9  A    between atoms: C_24  and  C_26
REMARK   10  A    between atoms: C_27  and  C_28
REMARK                            x       y       z     vdW  Elec       q    Type
REMARK                         _______ _______ _______ _____ _____    ______ ____
ROOT
ATOM      1  C   UNL     1      -2.164   1.050   1.278  0.00  0.00    +0.163 C 
ENDROOT
BRANCH   1   2
ATOM      2  C   UNL     1      -2.144  -0.453   1.393  0.00  0.00    +0.239 A 
ATOM      3  N   UNL     1      -1.884  -1.140   2.469  0.00  0.00    -0.109 NA
ATOM      4  N   UNL     1      -1.958  -2.396   2.201  0.00  0.00    -0.090 NA
ATOM      5  C   UNL     1      -2.267  -2.553   0.946  0.00  0.00    +0.361 A 
ATOM      6  O   UNL     1      -2.398  -1.329   0.407  0.00  0.00    -0.405 OA
BRANCH   5   7
ATOM      7  S   UNL     1      -2.482  -4.089   0.109  0.00  0.00    +0.053 S 
ATOM      8  O   UNL     1      -2.196  -3.804  -1.253  0.00  0.00    -0.165 OA
ATOM      9  O   UNL     1      -1.687  -5.014   0.839  0.00  0.00    -0.165 OA
BRANCH   7  10
ATOM     10  C   UNL     1      -4.242  -4.486   0.307  0.00  0.00    +0.215 C 
BRANCH  10  11
ATOM     11  C   UNL     1      -4.542  -5.794  -0.377  0.00  0.00    +0.009 A 
ATOM     12  C   UNL     1      -4.931  -5.807  -1.703  0.00  0.00    +0.008 A 
ATOM     13  C   UNL     1      -5.201  -7.008  -2.333  0.00  0.00    +0.000 A 
ATOM     14  C   UNL     1      -5.093  -8.196  -1.634  0.00  0.00    +0.003 A 
ATOM     15  C   UNL     1      -4.709  -8.185  -0.306  0.00  0.00    +0.038 A 
ATOM     16  C   UNL     1      -4.433  -6.983   0.324  0.00  0.00    +0.128 A 
ATOM     17  F   UNL     1      -4.058  -6.971   1.622  0.00  0.00    -0.205 F 
ENDBRANCH  10  11
ENDBRANCH   7  10
ENDBRANCH   5   7
ENDBRANCH   1   2
BRANCH   1  18
ATOM     18  N   UNL     1      -2.886   1.618   2.419  0.00  0.00    -0.300 N 
ATOM     19  C   UNL     1      -3.470   2.828   2.312  0.00  0.00    +0.238 C 
ATOM     20  O   UNL     1      -3.398   3.448   1.268  0.00  0.00    -0.271 OA
ATOM     21  H   UNL     1      -2.943   1.123   3.252  0.00  0.00    +0.150 HD
BRANCH  19  22
ATOM     22  C   UNL     1      -4.191   3.395   3.453  0.00  0.00    +0.068 C 
ATOM     23  C   UNL     1      -4.776   4.606   3.346  0.00  0.00    +0.013 C 
BRANCH  23  24
ATOM     24  C   UNL     1      -5.500   5.176   4.493  0.00  0.00    -0.023 A 
ATOM     25  C   UNL     1      -6.108   6.432   4.386  0.00  0.00    +0.009 A 
ATOM     26  C   UNL     1      -6.785   6.961   5.463  0.00  0.00    +0.022 A 
ATOM     27  C   UNL     1      -6.865   6.253   6.651  0.00  0.00    +0.059 A 
ATOM     28  C   UNL     1      -6.266   5.008   6.765  0.00  0.00    +0.060 A 
ATOM     29  C   UNL     1      -5.590   4.464   5.693  0.00  0.00    +0.029 A 
ATOM     30 CL   UNL     1      -6.373   4.128   8.258  0.00  0.00    -0.082 Cl
ATOM     31 CL   UNL     1      -7.720   6.927   8.003  0.00  0.00    -0.082 Cl
ENDBRANCH  23  24
ENDBRANCH  19  22
ENDBRANCH   1  18
BRANCH   1  33
ATOM     32  C   UNL     1      -0.013   1.086   0.008  0.00  0.00    +0.009 C 
ATOM     33  C   UNL     1      -0.729   1.579   1.267  0.00  0.00    +0.012 C 
ATOM     34  C   UNL     1       0.011   1.072   2.506  0.00  0.00    +0.009 C 
ENDBRANCH   1  33
TORSDOF 8
