REMARK  Name = ZINC12161956
REMARK  5 active torsions:
REMARK  status: ('A' for Active; 'I' for Inactive)
REMARK    1  A    between atoms: C_7  and  C_11
REMARK    2  A    between atoms: C_11  and  C_12
REMARK    3  A    between atoms: C_12  and  N_13
REMARK    4  A    between atoms: C_24  and  N_58
REMARK    5  A    between atoms: C_28  and  N_58
REMARK                            x       y       z     vdW  Elec       q    Type
REMARK                         _______ _______ _______ _____ _____    ______ ____
ROOT
ATOM      1  N   UNL     1      -2.540   1.030  -9.891  0.00  0.00    -0.298 N 
ATOM      2  C   UNL     1      -1.297   1.238 -10.389  0.00  0.00    +0.203 A 
ATOM      3  N   UNL     1      -0.223   1.296  -9.632  0.00  0.00    -0.230 NA
ATOM      4  C   UNL     1      -0.389   1.141  -8.322  0.00  0.00    +0.116 A 
ATOM      5  C   UNL     1      -1.642   0.920  -7.709  0.00  0.00    +0.076 A 
ATOM      6  C   UNL     1      -2.789   0.865  -8.570  0.00  0.00    +0.262 A 
ATOM      7  O   UNL     1      -3.914   0.679  -8.141  0.00  0.00    -0.267 OA
ATOM      8  C   UNL     1      -1.631   0.774  -6.265  0.00  0.00    -0.023 A 
ATOM      9  C   UNL     1      -0.426   0.864  -5.654  0.00  0.00    -0.006 A 
ATOM     10  S   UNL     1       0.739   1.145  -6.965  0.00  0.00    -0.073 S 
ATOM     11  C   UNL     1      -0.141   0.751  -4.189  0.00  0.00    +0.027 C 
ATOM     12  C   UNL     1      -1.465   0.885  -3.424  0.00  0.00    -0.066 C 
ATOM     13  C   UNL     1      -2.505  -0.028  -4.080  0.00  0.00    -0.011 C 
ATOM     14  C   UNL     1      -2.897   0.531  -5.448  0.00  0.00    +0.035 C 
ENDROOT
BRANCH  12  15
ATOM     15  N   UNL     1      -1.271   0.473  -2.021  0.00  0.00    +0.383 N 
ATOM     16  H   UNL     1      -0.583  -0.288  -1.983  0.00  0.00    -0.085 HD
ATOM     17  H   UNL     1      -2.165   0.145  -1.637  0.00  0.00    -0.085 HD
BRANCH  15  18
ATOM     18  C   UNL     1      -0.784   1.609  -1.216  0.00  0.00    -0.071 C 
ATOM     19  C   UNL     1      -0.013   1.086   0.008  0.00  0.00    -0.016 C 
ATOM     20  C   UNL     1      -0.763   1.597   1.255  0.00  0.00    -0.002 C 
ATOM     21  C   UNL     1      -1.531   2.845   0.750  0.00  0.00    -0.002 C 
ATOM     22  C   UNL     1      -1.978   2.421  -0.670  0.00  0.00    -0.016 C 
ENDBRANCH  15  18
ENDBRANCH  12  15
BRANCH   1  23
ATOM     23  C   UNL     1      -3.667   0.984 -10.826  0.00  0.00    +0.131 C 
BRANCH  23  24
ATOM     24  C   UNL     1      -3.880  -0.457 -11.296  0.00  0.00    +0.059 C 
BRANCH  24  31
ATOM     25  C   UNL     1      -4.255   0.286 -15.909  0.00  0.00    +0.001 A 
ATOM     26  C   UNL     1      -5.551   0.126 -16.379  0.00  0.00    +0.002 A 
ATOM     27  C   UNL     1      -6.571  -0.224 -15.522  0.00  0.00    +0.026 A 
ATOM     28  C   UNL     1      -6.304  -0.408 -14.169  0.00  0.00    +0.047 A 
ATOM     29  C   UNL     1      -4.989  -0.242 -13.697  0.00  0.00    +0.003 A 
ATOM     30  C   UNL     1      -3.969   0.106 -14.585  0.00  0.00    +0.010 A 
ATOM     31  C   UNL     1      -5.040  -0.505 -12.257  0.00  0.00    -0.021 A 
ATOM     32  C   UNL     1      -6.316  -0.792 -11.955  0.00  0.00    +0.087 A 
ATOM     33  N   UNL     1      -7.086  -0.739 -13.085  0.00  0.00    -0.360 N 
ATOM     34  H   UNL     1      -8.040  -0.909 -13.117  0.00  0.00    +0.165 HD
ENDBRANCH  24  31
ENDBRANCH  23  24
ENDBRANCH   1  23
TORSDOF 5
