REMARK  Name = ZINC20262895
REMARK  5 active torsions:
REMARK  status: ('A' for Active; 'I' for Inactive)
REMARK    1  A    between atoms: C_1  and  C_2
REMARK    2  A    between atoms: N_8  and  S_9
REMARK    3  A    between atoms: S_9  and  C_12
REMARK    4  A    between atoms: C_15  and  N_19
REMARK    5  A    between atoms: C_16  and  N_18
REMARK                            x       y       z     vdW  Elec       q    Type
REMARK                         _______ _______ _______ _____ _____    ______ ____
ROOT
ATOM      1  C   UNL     1      -0.126   0.419   0.009  0.00  0.00    +0.107 A 
ATOM      2  C   UNL     1       1.046   0.368   0.742  0.00  0.00    +0.030 A 
ATOM      3  C   UNL     1       1.840  -0.763   0.706  0.00  0.00    +0.027 A 
ATOM      4  C   UNL     1       1.462  -1.851  -0.066  0.00  0.00    +0.051 A 
ATOM      5  C   UNL     1       0.280  -1.800  -0.805  0.00  0.00    +0.048 A 
ATOM      6  C   UNL     1      -0.510  -0.661  -0.763  0.00  0.00    +0.053 A 
ENDROOT
BRANCH   4   7
ATOM      7  N   UNL     1       2.265  -2.998  -0.103  0.00  0.00    -0.328 N 
ATOM      8  C   UNL     1       3.529  -2.788   0.648  0.00  0.00    +0.105 C 
ATOM      9  C   UNL     1       4.007  -4.230   0.947  0.00  0.00    +0.020 C 
ATOM     10  C   UNL     1       2.686  -4.981   1.233  0.00  0.00    +0.020 C 
ATOM     11  C   UNL     1       1.590  -4.139   0.553  0.00  0.00    +0.105 C 
ENDBRANCH   4   7
BRANCH   1  12
ATOM     12  S   UNL     1      -1.128   1.868   0.054  0.00  0.00    +0.061 S 
ATOM     13  O   UNL     1      -0.246   2.966   0.239  0.00  0.00    -0.153 OA
ATOM     14  O   UNL     1      -2.016   1.781  -1.052  0.00  0.00    -0.153 OA
BRANCH  12  21
ATOM     15  C   UNL     1      -3.581   0.456   0.021  0.00  0.00    +0.026 C 
ATOM     16  C   UNL     1      -3.292   0.973   1.431  0.00  0.00    +0.077 C 
ATOM     17  C   UNL     1      -4.452   1.856   1.902  0.00  0.00    +0.020 C 
ATOM     18  C   UNL     1      -4.096   2.482   3.252  0.00  0.00    +0.003 C 
ATOM     19  C   UNL     1      -2.852   3.359   3.098  0.00  0.00    +0.017 C 
ATOM     20  C   UNL     1      -1.671   2.489   2.643  0.00  0.00    +0.110 C 
ATOM     21  N   UNL     1      -2.061   1.775   1.419  0.00  0.00    -0.174 NA
ENDBRANCH  12  21
ENDBRANCH   1  12
BRANCH   5  22
ATOM     22  N   UNL     1      -0.107  -2.896  -1.586  0.00  0.00    -0.356 N 
ATOM     23  H   UNL     1      -1.040  -2.853  -2.168  0.00  0.00    +0.142 HD
ATOM     24  H   UNL     1       0.521  -3.798  -1.617  0.00  0.00    +0.142 HD
ENDBRANCH   5  22
TORSDOF 4
