REMARK  Name = ZINC12570235
REMARK  11 active torsions:
REMARK  status: ('A' for Active; 'I' for Inactive)
REMARK    1  A    between atoms: C_6  and  O_11
REMARK    2  A    between atoms: O_11  and  C_12
REMARK    3  A    between atoms: C_12  and  C_13
REMARK    4  A    between atoms: N_15  and  N_16
REMARK    5  A    between atoms: N_16  and  C_17
REMARK    6  A    between atoms: C_17  and  N_19
REMARK    7  A    between atoms: C_20  and  C_22
REMARK    8  A    between atoms: C_22  and  C_23
REMARK    9  A    between atoms: C_23  and  C_24
REMARK   10  A    between atoms: C_24  and  O_25
REMARK   11  A    between atoms: O_25  and  C_26
REMARK                            x       y       z     vdW  Elec       q    Type
REMARK                         _______ _______ _______ _____ _____    ______ ____
ROOT
ATOM      1  N   UNL     1       6.722  -6.116  -0.099  0.00  0.00    -0.245 N 
ATOM      2  H   UNL     1       7.624  -6.474  -0.110  0.00  0.00    +0.172 HD
ENDROOT
BRANCH   1   5
ATOM      3  C   UNL     1       5.820  -8.319  -0.103  0.00  0.00    +0.267 C 
ATOM      4  O   UNL     1       6.947  -8.766  -0.116  0.00  0.00    -0.271 OA
ATOM      5  N   UNL     1       5.624  -6.986  -0.093  0.00  0.00    -0.232 N 
ATOM      6  H   UNL     1       4.722  -6.628  -0.082  0.00  0.00    +0.173 HD
BRANCH   3   7
ATOM      7  C   UNL     1       4.638  -9.255  -0.097  0.00  0.00    +0.326 C 
BRANCH   7   8
ATOM      8  O   UNL     1       5.101 -10.607  -0.109  0.00  0.00    -0.483 OA
BRANCH   8  14
ATOM      9  C   UNL     1       1.599 -15.862  -0.104  0.00  0.00    +0.001 A 
ATOM     10  C   UNL     1       2.947 -16.214  -0.119  0.00  0.00    +0.001 A 
ATOM     11  C   UNL     1       3.920 -15.262  -0.123  0.00  0.00    +0.008 A 
ATOM     12  C   UNL     1       3.563 -13.903  -0.113  0.00  0.00    -0.014 A 
ATOM     13  C   UNL     1       4.540 -12.893  -0.117  0.00  0.00    +0.054 A 
ATOM     14  C   UNL     1       4.155 -11.582  -0.105  0.00  0.00    +0.122 A 
ATOM     15  C   UNL     1       2.802 -11.232  -0.084  0.00  0.00    +0.046 A 
ATOM     16  C   UNL     1       1.833 -12.185  -0.086  0.00  0.00    +0.012 A 
ATOM     17  C   UNL     1       2.192 -13.544  -0.097  0.00  0.00    -0.018 A 
ATOM     18  C   UNL     1       1.216 -14.556  -0.093  0.00  0.00    +0.008 A 
ENDBRANCH   8  14
ENDBRANCH   7   8
ENDBRANCH   3   7
ENDBRANCH   1   5
BRANCH   1  19
ATOM     19  C   UNL     1       6.526  -4.783  -0.089  0.00  0.00    +0.153 C 
ATOM     20  S   UNL     1       7.868  -3.720  -0.097  0.00  0.00    -0.017 S 
BRANCH  19  21
ATOM     21  N   UNL     1       5.273  -4.286  -0.074  0.00  0.00    -0.267 N 
ATOM     22  C   UNL     1       5.077  -2.953  -0.065  0.00  0.00    +0.219 C 
ATOM     23  O   UNL     1       6.028  -2.200  -0.070  0.00  0.00    -0.275 OA
ATOM     24  H   UNL     1       4.513  -4.888  -0.070  0.00  0.00    +0.157 HD
BRANCH  22  25
ATOM     25  C   UNL     1       3.676  -2.397  -0.048  0.00  0.00    +0.099 C 
BRANCH  25  26
ATOM     26  C   UNL     1       3.734  -0.868  -0.040  0.00  0.00    +0.050 C 
BRANCH  26  27
ATOM     27  C   UNL     1       2.312  -0.304  -0.023  0.00  0.00    +0.229 C 
BRANCH  27  28
ATOM     28  O   UNL     1       2.366   1.123  -0.015  0.00  0.00    -0.490 OA
BRANCH  28  29
ATOM     29  C   UNL     1       1.179   1.786   0.000  0.00  0.00    +0.139 A 
ATOM     30  C   UNL     1      -0.013   1.076   0.008  0.00  0.00    +0.048 A 
ATOM     31  C   UNL     1      -1.218   1.751   0.017  0.00  0.00    +0.023 A 
ATOM     32  C   UNL     1      -1.238   3.134   0.031  0.00  0.00    +0.043 A 
ATOM     33  C   UNL     1      -0.051   3.845   0.023  0.00  0.00    +0.043 A 
ATOM     34  C   UNL     1       1.157   3.174   0.008  0.00  0.00    +0.084 A 
ATOM     35 CL   UNL     1       2.647   4.066  -0.002  0.00  0.00    -0.080 Cl
ATOM     36 CL   UNL     1      -2.754   3.979   0.049  0.00  0.00    -0.083 Cl
ENDBRANCH  28  29
ENDBRANCH  27  28
ENDBRANCH  26  27
ENDBRANCH  25  26
ENDBRANCH  22  25
ENDBRANCH  19  21
ENDBRANCH   1  19
TORSDOF 11
