REMARK  Name = ZINC25148447
REMARK  11 active torsions:
REMARK  status: ('A' for Active; 'I' for Inactive)
REMARK    1  A    between atoms: C_1  and  C_2
REMARK    2  A    between atoms: C_2  and  N_3
REMARK    3  A    between atoms: N_3  and  C_4
REMARK    4  A    between atoms: C_4  and  C_5
REMARK    5  A    between atoms: C_6  and  O_8
REMARK    6  A    between atoms: O_8  and  C_9
REMARK    7  A    between atoms: C_14  and  N_15
REMARK    8  A    between atoms: C_16  and  C_18
REMARK    9  A    between atoms: C_23  and  O_24
REMARK   10  A    between atoms: N_27  and  C_28
REMARK   11  A    between atoms: C_28  and  C_29
REMARK                            x       y       z     vdW  Elec       q    Type
REMARK                         _______ _______ _______ _____ _____    ______ ____
ROOT
ATOM      1  C   UNL     1      -2.500  -2.827  -1.333  0.00  0.00    +0.155 A 
ATOM      2  C   UNL     1      -2.554  -1.748  -2.209  0.00  0.00    +0.050 A 
ATOM      3  C   UNL     1      -1.449  -0.950  -2.410  0.00  0.00    +0.030 A 
ATOM      4  C   UNL     1      -0.263  -1.216  -1.733  0.00  0.00    +0.051 A 
ATOM      5  C   UNL     1      -0.199  -2.306  -0.848  0.00  0.00    +0.025 A 
ATOM      6  C   UNL     1      -1.326  -3.115  -0.653  0.00  0.00    +0.086 A 
ATOM      7  C   UNL     1       1.161  -2.309  -0.304  0.00  0.00    +0.029 A 
ATOM      8  C   UNL     1       1.811  -1.277  -0.866  0.00  0.00    +0.087 A 
ATOM      9  N   UNL     1       0.977  -0.614  -1.726  0.00  0.00    -0.342 N 
ENDROOT
BRANCH   6  10
ATOM     10  N   UNL     1      -1.271  -4.199   0.231  0.00  0.00    -0.278 N 
ATOM     11  C   UNL     1      -1.776  -5.393  -0.136  0.00  0.00    +0.252 C 
ATOM     12  O   UNL     1      -2.366  -5.505  -1.194  0.00  0.00    -0.270 OA
ATOM     13  H   UNL     1      -0.816  -4.076   1.224  0.00  0.00    +0.155 HD
BRANCH  11  14
ATOM     14  C   UNL     1      -1.613  -6.565   0.745  0.00  0.00    +0.078 A 
ATOM     15  C   UNL     1      -1.038  -6.418   2.010  0.00  0.00    +0.017 A 
ATOM     16  C   UNL     1      -0.893  -7.516   2.830  0.00  0.00    +0.001 A 
ATOM     17  C   UNL     1      -1.306  -8.767   2.403  0.00  0.00    +0.004 A 
ATOM     18  C   UNL     1      -1.871  -8.927   1.154  0.00  0.00    +0.046 A 
ATOM     19  C   UNL     1      -2.029  -7.833   0.317  0.00  0.00    +0.129 A 
BRANCH  19  20
ATOM     20  O   UNL     1      -2.584  -7.989  -0.911  0.00  0.00    -0.506 OA
ATOM     21  H   UNL     1      -2.910  -8.985  -1.245  0.00  0.00    +0.292 HD
ENDBRANCH  19  20
ENDBRANCH  11  14
ENDBRANCH   6  10
BRANCH   1  22
ATOM     22  O   UNL     1      -3.601  -3.605  -1.147  0.00  0.00    -0.409 OA
BRANCH  22  24
ATOM     23  N   UNL     1      -5.920  -3.779  -1.327  0.00  0.00    -0.268 N 
ATOM     24  C   UNL     1      -4.799  -3.033  -1.368  0.00  0.00    +0.408 C 
ATOM     25  O   UNL     1      -4.869  -1.843  -1.605  0.00  0.00    -0.226 OA
BRANCH  23  27
ATOM     26  C   UNL     1      -5.900  -5.296   0.592  0.00  0.00    +0.024 C 
ATOM     27  C   UNL     1      -5.848  -5.189  -0.934  0.00  0.00    +0.108 C 
ENDBRANCH  23  27
BRANCH  23  28
ATOM     28  C   UNL     1      -7.212  -3.181  -1.675  0.00  0.00    +0.108 C 
ATOM     29  C   UNL     1      -7.463  -3.347  -3.175  0.00  0.00    +0.024 C 
ENDBRANCH  23  28
ENDBRANCH  22  24
ENDBRANCH   1  22
BRANCH   9  30
ATOM     30  C   UNL     1       1.346   0.564  -2.515  0.00  0.00    +0.157 C 
BRANCH  30  31
ATOM     31  C   UNL     1       0.937   1.812  -1.776  0.00  0.00    -0.028 A 
ATOM     32  C   UNL     1      -0.316   2.358  -1.983  0.00  0.00    +0.008 A 
ATOM     33  C   UNL     1      -0.694   3.500  -1.303  0.00  0.00    +0.038 A 
ATOM     34  C   UNL     1       0.187   4.103  -0.420  0.00  0.00    +0.123 A 
ATOM     35  C   UNL     1       1.444   3.558  -0.217  0.00  0.00    +0.038 A 
ATOM     36  C   UNL     1       1.817   2.413  -0.895  0.00  0.00    +0.008 A 
ATOM     37  F   UNL     1      -0.180   5.222   0.242  0.00  0.00    -0.205 F 
ENDBRANCH  30  31
ENDBRANCH   9  30
TORSDOF 9
