REMARK  Name = ZINC50632976
REMARK  7 active torsions:
REMARK  status: ('A' for Active; 'I' for Inactive)
REMARK    1  A    between atoms: C_1  and  C_2
REMARK    2  A    between atoms: C_2  and  C_3
REMARK    3  A    between atoms: C_7  and  C_20
REMARK    4  A    between atoms: C_8  and  N_9
REMARK    5  A    between atoms: N_9  and  S_10
REMARK    6  A    between atoms: S_10  and  C_13
REMARK    7  A    between atoms: C_20  and  C_21
REMARK                            x       y       z     vdW  Elec       q    Type
REMARK                         _______ _______ _______ _____ _____    ______ ____
ROOT
ATOM      1  S   UNL     1      -2.551   1.347  -3.219  0.00  0.00    +0.074 S 
ATOM      2  O   UNL     1      -1.906   1.580  -4.463  0.00  0.00    -0.150 OA
ATOM      3  O   UNL     1      -3.913   0.952  -3.129  0.00  0.00    -0.150 OA
ENDROOT
BRANCH   1   4
ATOM      4  C   UNL     1      -2.394   2.833  -2.285  0.00  0.00    +0.124 A 
ATOM      5  C   UNL     1      -3.380   3.197  -1.376  0.00  0.00    +0.033 A 
ATOM      6  C   UNL     1      -3.218   4.371  -0.663  0.00  0.00    +0.043 A 
ATOM      7  C   UNL     1      -2.081   5.143  -0.879  0.00  0.00    +0.094 A 
ATOM      8  N   UNL     1      -1.164   4.762  -1.755  0.00  0.00    -0.348 N 
ATOM      9  C   UNL     1      -1.289   3.644  -2.445  0.00  0.00    +0.113 A 
ATOM     10  N   UNL     1      -1.907   6.326  -0.170  0.00  0.00    -0.345 N 
ATOM     11  H   UNL     1      -2.576   6.610   0.472  0.00  0.00    +0.144 HD
ATOM     12  H   UNL     1      -1.115   6.868  -0.317  0.00  0.00    +0.144 HD
ATOM     13  H   UNL     1      -0.380   5.316  -1.890  0.00  0.00    +0.167 HD
ENDBRANCH   1   4
BRANCH   1  14
ATOM     14  N   UNL     1      -1.668   0.183  -2.439  0.00  0.00    -0.216 N 
ATOM     15  H   UNL     1      -0.708   0.136  -2.566  0.00  0.00    +0.174 HD
BRANCH  14  21
ATOM     16  C   UNL     1      -2.025  -0.739  -0.237  0.00  0.00    -0.025 A 
ATOM     17  C   UNL     1      -2.662  -1.641   0.593  0.00  0.00    +0.005 A 
ATOM     18  C   UNL     1      -3.575  -2.538   0.070  0.00  0.00    +0.001 A 
ATOM     19  C   UNL     1      -3.854  -2.535  -1.284  0.00  0.00    +0.005 A 
ATOM     20  C   UNL     1      -3.221  -1.637  -2.120  0.00  0.00    -0.025 A 
ATOM     21  C   UNL     1      -2.307  -0.731  -1.597  0.00  0.00    +0.054 A 
BRANCH  16  23
ATOM     22  C   UNL     1      -1.732   1.563   0.637  0.00  0.00    +0.009 C 
ATOM     23  C   UNL     1      -1.029   0.238   0.333  0.00  0.00    +0.033 C 
ENDBRANCH  16  23
BRANCH  20  24
ATOM     24  C   UNL     1      -3.525  -1.635  -3.595  0.00  0.00    +0.033 C 
ATOM     25  C   UNL     1      -2.564  -2.583  -4.316  0.00  0.00    +0.009 C 
ENDBRANCH  20  24
ENDBRANCH  14  21
ENDBRANCH   1  14
TORSDOF 5
