REMARK  Name = ZINC51051224
REMARK  9 active torsions:
REMARK  status: ('A' for Active; 'I' for Inactive)
REMARK    1  A    between atoms: C_1  and  C_2
REMARK    2  A    between atoms: C_2  and  C_3
REMARK    3  A    between atoms: C_3  and  C_4
REMARK    4  A    between atoms: C_4  and  C_5
REMARK    5  A    between atoms: C_4  and  N_6
REMARK    6  A    between atoms: C_7  and  C_9
REMARK    7  A    between atoms: N_13  and  C_15
REMARK    8  A    between atoms: C_15  and  C_16
REMARK    9  A    between atoms: C_21  and  C_24
REMARK                            x       y       z     vdW  Elec       q    Type
REMARK                         _______ _______ _______ _____ _____    ______ ____
ROOT
ATOM      1  C   UNL     1      -2.325  -4.294   1.028  0.00  0.00    +0.058 C 
ATOM      2  C   UNL     1      -3.289  -3.362   0.289  0.00  0.00    +0.009 C 
ATOM      3  C   UNL     1      -4.704  -3.943   0.365  0.00  0.00    -0.018 C 
ATOM      4  C   UNL     1      -4.702  -5.356  -0.220  0.00  0.00    -0.078 C 
ATOM      5  N   UNL     1      -3.781  -6.205   0.545  0.00  0.00    +0.386 N 
ATOM      6  C   UNL     1      -2.411  -5.695   0.418  0.00  0.00    -0.065 C 
ATOM      7  H   UNL     1      -4.051  -6.201   1.518  0.00  0.00    -0.081 HD
ENDROOT
BRANCH   1   9
ATOM      8  N   UNL     1      -0.605  -2.548   1.364  0.00  0.00    -0.313 N 
ATOM      9  C   UNL     1      -0.918  -3.772   0.893  0.00  0.00    +0.215 C 
ATOM     10  O   UNL     1      -0.066  -4.453   0.362  0.00  0.00    -0.276 OA
ATOM     11  H   UNL     1      -1.286  -2.004   1.789  0.00  0.00    +0.149 HD
BRANCH   8  12
ATOM     12  C   UNL     1       0.763  -2.041   1.233  0.00  0.00    +0.070 C 
ATOM     13  C   UNL     1       1.608  -2.546   2.404  0.00  0.00    +0.028 C 
BRANCH  12  14
ATOM     14  C   UNL     1       0.742  -0.511   1.242  0.00  0.00    +0.022 C 
BRANCH  14  16
ATOM     15  C   UNL     1      -0.019   1.526   0.010  0.00  0.00    +0.004 C 
ATOM     16  C   UNL     1       0.002  -0.004   0.002  0.00  0.00    -0.002 C 
ENDBRANCH  14  16
ENDBRANCH  12  14
ENDBRANCH   8  12
ENDBRANCH   1   9
BRANCH   5  17
ATOM     17  C   UNL     1      -3.840  -7.579   0.029  0.00  0.00    +0.019 C 
BRANCH  17  18
ATOM     18  C   UNL     1      -5.212  -8.151   0.279  0.00  0.00    +0.202 C 
ATOM     19  O   UNL     1      -6.057  -7.480   0.833  0.00  0.00    -0.277 OA
ATOM     20  N   UNL     1      -5.500  -9.408  -0.112  0.00  0.00    -0.266 N 
ATOM     21  C   UNL     1      -6.765  -9.935   0.118  0.00  0.00    +0.165 A 
ATOM     22  N   UNL     1      -7.220 -11.132  -0.186  0.00  0.00    -0.230 NA
ATOM     23  C   UNL     1      -8.459 -11.484   0.103  0.00  0.00    +0.047 A 
ATOM     24  C   UNL     1      -9.234 -10.561   0.724  0.00  0.00    +0.071 A 
ATOM     25  S   UNL     1      -8.085  -9.201   0.861  0.00  0.00    -0.060 S 
ATOM     26  C   UNL     1      -8.989 -12.852  -0.242  0.00  0.00    +0.066 C 
ATOM     27  H   UNL     1      -4.824  -9.945  -0.555  0.00  0.00    +0.157 HD
ENDBRANCH  17  18
ENDBRANCH   5  17
TORSDOF 6
