REMARK  Name = ZINC61700452
REMARK  8 active torsions:
REMARK  status: ('A' for Active; 'I' for Inactive)
REMARK    1  A    between atoms: C_1  and  C_2
REMARK    2  A    between atoms: C_4  and  S_8
REMARK    3  A    between atoms: N_5  and  C_7
REMARK    4  A    between atoms: S_8  and  C_9
REMARK    5  A    between atoms: C_12  and  C_16
REMARK    6  A    between atoms: C_16  and  C_18
REMARK    7  A    between atoms: C_16  and  N_19
REMARK    8  A    between atoms: N_19  and  C_20
REMARK                            x       y       z     vdW  Elec       q    Type
REMARK                         _______ _______ _______ _____ _____    ______ ____
ROOT
ATOM      1  C   UNL     1       0.416  -4.892  -0.814  0.00  0.00    +0.028 A 
ATOM      2  C   UNL     1       0.447  -4.652   0.555  0.00  0.00    +0.016 A 
ATOM      3  C   UNL     1       0.693  -5.692   1.430  0.00  0.00    +0.003 A 
ATOM      4  C   UNL     1       0.907  -6.970   0.947  0.00  0.00    -0.061 A 
ATOM      5  C   UNL     1       0.878  -7.212  -0.414  0.00  0.00    +0.018 A 
ATOM      6  C   UNL     1       0.627  -6.178  -1.296  0.00  0.00    +0.032 A 
ATOM      7 BR   UNL     1       0.579  -6.512  -3.157  0.00  0.00    -0.049 Br
ENDROOT
BRANCH   4   8
ATOM      8  C   UNL     1       1.175  -8.101   1.906  0.00  0.00    -0.044 C 
ATOM      9  C   UNL     1       2.679  -8.379   1.960  0.00  0.00    -0.009 C 
BRANCH   8  10
ATOM     10  N   UNL     1       0.470  -9.306   1.451  0.00  0.00    +0.382 N 
ATOM     11  C   UNL     1       0.632 -10.374   2.446  0.00  0.00    -0.100 C 
ATOM     12  H   UNL     1      -0.511  -9.100   1.336  0.00  0.00    -0.085 HD
ATOM     13  H   UNL     1       0.856  -9.608   0.568  0.00  0.00    -0.085 HD
ENDBRANCH   8  10
ENDBRANCH   4   8
BRANCH   1  14
ATOM     14  S   UNL     1       0.102  -3.569  -1.935  0.00  0.00    -0.069 S 
BRANCH  14  18
ATOM     15  C   UNL     1       0.021   1.212   0.449  0.00  0.00    +0.067 C 
ATOM     16  C   UNL     1      -0.331  -0.211   0.098  0.00  0.00    +0.061 A 
ATOM     17  C   UNL     1       0.297  -0.991  -0.877  0.00  0.00    +0.059 A 
ATOM     18  C   UNL     1      -0.308  -2.212  -0.888  0.00  0.00    +0.099 A 
ATOM     19  N   UNL     1      -1.286  -2.191   0.055  0.00  0.00    -0.260 N 
ATOM     20  N   UNL     1      -1.272  -0.927   0.658  0.00  0.00    -0.176 NA
ATOM     21  C   UNL     1      -2.191  -3.295   0.385  0.00  0.00    +0.173 C 
ENDBRANCH  14  18
ENDBRANCH   1  14
TORSDOF 4
