REMARK  Name = ZINC36612729
REMARK  4 active torsions:
REMARK  status: ('A' for Active; 'I' for Inactive)
REMARK    1  A    between atoms: C_1  and  C_2
REMARK    2  A    between atoms: N_4  and  C_5
REMARK    3  A    between atoms: C_6  and  C_27
REMARK    4  A    between atoms: C_7  and  C_20
REMARK                            x       y       z     vdW  Elec       q    Type
REMARK                         _______ _______ _______ _____ _____    ______ ____
ROOT
ATOM      1  C   UNL     1      -1.137  -2.073   0.002  0.00  0.00    +0.207 C 
ATOM      2  C   UNL     1      -2.309  -2.748   0.004  0.00  0.00    +0.099 C 
ATOM      3  C   UNL     1      -2.335  -4.251  -0.004  0.00  0.00    +0.100 C 
ATOM      4  C   UNL     1      -0.998  -4.793  -0.433  0.00  0.00    +0.015 A 
ATOM      5  C   UNL     1      -0.897  -6.131  -0.856  0.00  0.00    -0.010 A 
ATOM      6  C   UNL     1      -2.026  -6.969  -0.884  0.00  0.00    +0.009 A 
ATOM      7  C   UNL     1      -1.895  -8.259  -1.297  0.00  0.00    +0.001 A 
ATOM      8  C   UNL     1      -0.658  -8.764  -1.695  0.00  0.00    +0.001 A 
ATOM      9  C   UNL     1       0.455  -7.981  -1.681  0.00  0.00    +0.008 A 
ATOM     10  C   UNL     1       0.359  -6.644  -1.261  0.00  0.00    -0.017 A 
ATOM     11  C   UNL     1       1.487  -5.804  -1.232  0.00  0.00    +0.012 A 
ATOM     12  C   UNL     1       1.357  -4.518  -0.818  0.00  0.00    +0.047 A 
ATOM     13  C   UNL     1       0.116  -4.004  -0.415  0.00  0.00    +0.135 A 
ATOM     14  O   UNL     1       0.044  -2.712  -0.013  0.00  0.00    -0.440 OA
ENDROOT
BRANCH   3  15
ATOM     15  C   UNL     1      -2.652  -4.752   1.381  0.00  0.00    -0.016 A 
ATOM     16  C   UNL     1      -1.822  -4.431   2.439  0.00  0.00    +0.006 A 
ATOM     17  C   UNL     1      -2.113  -4.891   3.710  0.00  0.00    +0.000 A 
ATOM     18  C   UNL     1      -3.234  -5.671   3.924  0.00  0.00    +0.001 A 
ATOM     19  C   UNL     1      -4.065  -5.993   2.867  0.00  0.00    +0.020 A 
ATOM     20  C   UNL     1      -3.777  -5.528   1.595  0.00  0.00    +0.045 A 
ATOM     21 CL   UNL     1      -4.823  -5.926   0.268  0.00  0.00    -0.083 Cl
ENDBRANCH   3  15
BRANCH   1  25
ATOM     22  C   UNL     1      -0.018   1.503   0.010  0.00  0.00    +0.109 C 
ATOM     23  C   UNL     1       0.002  -0.004   0.002  0.00  0.00    +0.216 C 
ATOM     24  O   UNL     1       1.060  -0.596  -0.011  0.00  0.00    -0.276 OA
ATOM     25  N   UNL     1      -1.156  -0.694   0.009  0.00  0.00    -0.256 N 
ATOM     26  H   UNL     1      -2.002  -0.220   0.020  0.00  0.00    +0.158 HD
ENDBRANCH   1  25
BRANCH   2  27
ATOM     27  C   UNL     1      -3.542  -2.021   0.014  0.00  0.00    +0.101 C 
ATOM     28  N   UNL     1      -4.521  -1.444   0.022  0.00  0.00    -0.191 NA
ENDBRANCH   2  27
TORSDOF 3
