REMARK  Name = ZINC22473131
REMARK  9 active torsions:
REMARK  status: ('A' for Active; 'I' for Inactive)
REMARK    1  A    between atoms: C_4  and  C_7
REMARK    2  A    between atoms: C_7  and  N_8
REMARK    3  A    between atoms: N_8  and  C_9
REMARK    4  A    between atoms: C_9  and  C_10
REMARK    5  A    between atoms: C_10  and  C_11
REMARK    6  A    between atoms: C_11  and  N_12
REMARK    7  A    between atoms: C_15  and  O_16
REMARK    8  A    between atoms: C_24  and  C_26
REMARK    9  A    between atoms: C_28  and  N_33
REMARK                            x       y       z     vdW  Elec       q    Type
REMARK                         _______ _______ _______ _____ _____    ______ ____
ROOT
ATOM      1  N   UNL     1      -6.335   2.272   0.069  0.00  0.00    -0.293 N 
ATOM      2  C   UNL     1      -6.294   2.877   1.272  0.00  0.00    +0.248 C 
ATOM      3  O   UNL     1      -6.885   3.925   1.446  0.00  0.00    -0.270 OA
ENDROOT
BRANCH   2   4
ATOM      4  C   UNL     1      -5.530   2.267   2.380  0.00  0.00    +0.057 A 
ATOM      5  C   UNL     1      -4.415   1.471   2.109  0.00  0.00    +0.047 A 
ATOM      6  C   UNL     1      -3.704   0.908   3.148  0.00  0.00    +0.127 A 
ATOM      7  C   UNL     1      -4.099   1.121   4.457  0.00  0.00    +0.034 A 
ATOM      8  C   UNL     1      -5.205   1.903   4.734  0.00  0.00    +0.023 A 
ATOM      9  C   UNL     1      -5.924   2.478   3.704  0.00  0.00    +0.053 A 
ATOM     10 CL   UNL     1      -7.312   3.459   4.053  0.00  0.00    -0.083 Cl
BRANCH   6  11
ATOM     11  N   UNL     1      -2.519   0.069   2.861  0.00  0.00    +0.056 N 
ATOM     12  O   UNL     1      -1.893  -0.433   3.777  0.00  0.00    -0.126 OA
ATOM     13  O   UNL     1      -2.170  -0.119   1.710  0.00  0.00    -0.126 OA
ENDBRANCH   6  11
ENDBRANCH   2   4
BRANCH   1  14
ATOM     14  C   UNL     1      -7.072   2.889  -1.037  0.00  0.00    +0.143 C 
BRANCH  14  18
ATOM     15  C   UNL     1     -11.175   1.715  -0.846  0.00  0.00    +0.000 A 
ATOM     16  C   UNL     1     -10.733   2.804  -0.118  0.00  0.00    +0.000 A 
ATOM     17  C   UNL     1      -9.405   3.184  -0.179  0.00  0.00    +0.005 A 
ATOM     18  C   UNL     1      -8.520   2.475  -0.969  0.00  0.00    -0.030 A 
ATOM     19  C   UNL     1      -8.963   1.390  -1.702  0.00  0.00    +0.005 A 
ATOM     20  C   UNL     1     -10.289   1.006  -1.635  0.00  0.00    +0.000 A 
ENDBRANCH  14  18
ENDBRANCH   1  14
BRANCH   1  21
ATOM     21  C   UNL     1      -5.644   0.997  -0.134  0.00  0.00    +0.110 C 
BRANCH  21  22
ATOM     22  C   UNL     1      -4.435   1.212  -1.047  0.00  0.00    +0.040 C 
BRANCH  22  23
ATOM     23  C   UNL     1      -3.712  -0.120  -1.259  0.00  0.00    +0.114 C 
BRANCH  23  24
ATOM     24  N   UNL     1      -2.555   0.086  -2.133  0.00  0.00    -0.384 N 
ATOM     25  C   UNL     1      -1.746  -0.978  -2.467  0.00  0.00    +0.053 A 
ATOM     26  C   UNL     1      -2.006  -2.239  -1.994  0.00  0.00    +0.113 A 
ATOM     27  C   UNL     1      -1.169  -3.301  -2.357  0.00  0.00    +0.286 A 
ATOM     28  O   UNL     1      -0.108  -3.127  -3.161  0.00  0.00    -0.425 OA
ATOM     29  C   UNL     1       0.209  -1.914  -3.665  0.00  0.00    +0.141 A 
ATOM     30  C   UNL     1      -0.581  -0.798  -3.349  0.00  0.00    +0.041 A 
ATOM     31  C   UNL     1      -0.257   0.457  -3.868  0.00  0.00    +0.013 A 
ATOM     32  C   UNL     1       0.840   0.591  -4.690  0.00  0.00    +0.001 A 
ATOM     33  C   UNL     1       1.620  -0.512  -5.003  0.00  0.00    +0.004 A 
ATOM     34  C   UNL     1       1.311  -1.757  -4.495  0.00  0.00    +0.047 A 
ATOM     35  H   UNL     1      -2.331   1.090  -2.522  0.00  0.00    +0.160 HD
BRANCH  27  36
ATOM     36  O   UNL     1      -1.410  -4.417  -1.929  0.00  0.00    -0.480 OA
ATOM     37  H   UNL     1      -0.763  -5.263  -2.204  0.00  0.00    +0.295 HD
ENDBRANCH  27  36
ENDBRANCH  23  24
ENDBRANCH  22  23
ENDBRANCH  21  22
ENDBRANCH   1  21
TORSDOF 9
