REMARK  Name = ZINC00432491
REMARK  4 active torsions:
REMARK  status: ('A' for Active; 'I' for Inactive)
REMARK    1  A    between atoms: C_1  and  C_2
REMARK    2  A    between atoms: C_5  and  C_8
REMARK    3  A    between atoms: C_11  and  C_12
REMARK    4  A    between atoms: C_16  and  N_18
REMARK                            x       y       z     vdW  Elec       q    Type
REMARK                         _______ _______ _______ _____ _____    ______ ____
ROOT
ATOM      1  C   UNL     1       3.390   2.098  -0.593  0.00  0.00    +0.140 C 
ATOM      2  C   UNL     1       2.537   1.111  -0.248  0.00  0.00    +0.062 C 
ATOM      3  C   UNL     1       1.186   1.698  -0.271  0.00  0.00    +0.063 C 
ATOM      4  C   UNL     1      -0.013   1.076   0.008  0.00  0.00    +0.023 C 
ATOM      5  C   UNL     1       1.408   3.107  -0.654  0.00  0.00    +0.345 C 
ATOM      6  O   UNL     1       0.558   3.967  -0.789  0.00  0.00    -0.245 OA
ATOM      7  O   UNL     1       2.735   3.253  -0.824  0.00  0.00    -0.422 OA
ENDROOT
BRANCH   1  12
ATOM      8  C   UNL     1       9.093   1.464  -1.002  0.00  0.00    +0.044 C 
ATOM      9  C   UNL     1       7.599   1.630  -0.896  0.00  0.00    -0.050 A 
ATOM     10  C   UNL     1       7.023   2.861  -1.153  0.00  0.00    +0.004 A 
ATOM     11  C   UNL     1       5.656   3.021  -1.057  0.00  0.00    +0.012 A 
ATOM     12  C   UNL     1       4.854   1.935  -0.698  0.00  0.00    +0.017 A 
ATOM     13  C   UNL     1       5.442   0.697  -0.434  0.00  0.00    +0.012 A 
ATOM     14  C   UNL     1       6.810   0.550  -0.540  0.00  0.00    +0.004 A 
ENDBRANCH   1  12
BRANCH   4  15
ATOM     15  C   UNL     1      -1.243   1.867   0.112  0.00  0.00    -0.022 A 
ATOM     16  C   UNL     1      -1.215   3.139   0.698  0.00  0.00    +0.008 A 
ATOM     17  C   UNL     1      -2.375   3.878   0.788  0.00  0.00    +0.003 A 
ATOM     18  C   UNL     1      -3.567   3.362   0.310  0.00  0.00    +0.033 A 
ATOM     19  C   UNL     1      -3.605   2.103  -0.266  0.00  0.00    +0.127 A 
ATOM     20  C   UNL     1      -2.454   1.353  -0.369  0.00  0.00    +0.040 A 
BRANCH  19  21
ATOM     21  N   UNL     1      -4.886   1.562  -0.773  0.00  0.00    +0.056 N 
ATOM     22  O   UNL     1      -4.922   0.456  -1.281  0.00  0.00    -0.126 OA
ATOM     23  O   UNL     1      -5.905   2.224  -0.684  0.00  0.00    -0.126 OA
ENDBRANCH  19  21
ENDBRANCH   4  15
TORSDOF 3
