REMARK  Name = ZINC63908196
REMARK  3 active torsions:
REMARK  status: ('A' for Active; 'I' for Inactive)
REMARK    1  A    between atoms: C_2  and  C_9
REMARK    2  A    between atoms: N_14  and  C_17
REMARK    3  A    between atoms: C_17  and  C_18
REMARK                            x       y       z     vdW  Elec       q    Type
REMARK                         _______ _______ _______ _____ _____    ______ ____
ROOT
ATOM      1  C   UNL     1       1.245   3.538   0.009  0.00  0.00    +0.248 C 
ATOM      2  O   UNL     1       0.213   4.172  -0.086  0.00  0.00    -0.270 OA
ATOM      3  N   UNL     1       2.426   4.181   0.103  0.00  0.00    -0.295 N 
ATOM      4  C   UNL     1       3.695   3.437   0.083  0.00  0.00    +0.123 C 
ATOM      5  C   UNL     1       4.612   4.068  -0.970  0.00  0.00    +0.104 C 
ATOM      6  N   UNL     1       4.740   5.507  -0.705  0.00  0.00    -0.292 NA
ATOM      7  C   UNL     1       3.445   6.189  -0.831  0.00  0.00    +0.104 C 
ATOM      8  C   UNL     1       2.480   5.646   0.221  0.00  0.00    +0.123 C 
ENDROOT
BRANCH   1  10
ATOM      9  C   UNL     1       0.305   1.366  -0.797  0.00  0.00    +0.037 A 
ATOM     10  C   UNL     1       1.206   2.060   0.020  0.00  0.00    +0.056 A 
ATOM     11  C   UNL     1       2.066   1.335   0.845  0.00  0.00    +0.125 A 
ATOM     12  N   UNL     1       2.033   0.018   0.856  0.00  0.00    -0.241 NA
ATOM     13  C   UNL     1       1.195  -0.664   0.097  0.00  0.00    +0.147 A 
ATOM     14  C   UNL     1       0.308  -0.017  -0.750  0.00  0.00    +0.078 A 
ATOM     15 CL   UNL     1      -0.786  -0.931  -1.740  0.00  0.00    -0.080 Cl
ATOM     16 CL   UNL     1       1.204  -2.399   0.160  0.00  0.00    -0.060 Cl
ENDBRANCH   1  10
BRANCH   6  17
ATOM     17  C   UNL     1       5.745   6.117  -1.585  0.00  0.00    +0.158 C 
BRANCH  17  18
ATOM     18  C   UNL     1       6.026   7.525  -1.126  0.00  0.00    +0.138 C 
ATOM     19  N   UNL     1       5.385   7.976  -0.075  0.00  0.00    -0.160 NA
ATOM     20  C   UNL     1       5.568   9.208   0.411  0.00  0.00    +0.271 C 
ATOM     21  O   UNL     1       4.951   9.596   1.389  0.00  0.00    -0.268 OA
ATOM     22  C   UNL     1       6.555  10.095  -0.283  0.00  0.00    +0.071 C 
ATOM     23  C   UNL     1       6.941  11.336   0.067  0.00  0.00    -0.042 C 
ATOM     24  C   UNL     1       6.544  12.014   1.376  0.00  0.00    +0.033 C 
ATOM     25  C   UNL     1       7.846  12.435   2.069  0.00  0.00    +0.004 C 
ATOM     26  C   UNL     1       8.708  13.262   1.118  0.00  0.00    +0.002 C 
ATOM     27  C   UNL     1       9.136  12.429  -0.094  0.00  0.00    +0.019 C 
ATOM     28  C   UNL     1       7.886  12.051  -0.893  0.00  0.00    +0.079 C 
ATOM     29  S   UNL     1       8.285  10.725  -2.093  0.00  0.00    -0.097 S 
ATOM     30  C   UNL     1       7.201   9.472  -1.456  0.00  0.00    +0.112 C 
ATOM     31  N   UNL     1       6.912   8.240  -1.802  0.00  0.00    -0.226 NA
ENDBRANCH  17  18
ENDBRANCH   6  17
TORSDOF 3
