REMARK  Name = ZINC33408178
REMARK  8 active torsions:
REMARK  status: ('A' for Active; 'I' for Inactive)
REMARK    1  A    between atoms: C_1  and  C_2
REMARK    2  A    between atoms: C_5  and  C_8
REMARK    3  A    between atoms: C_14  and  C_16
REMARK    4  A    between atoms: C_16  and  C_18
REMARK    5  A    between atoms: C_16  and  N_21
REMARK    6  A    between atoms: C_18  and  C_19
REMARK    7  A    between atoms: C_18  and  C_20
REMARK    8  A    between atoms: N_24  and  C_25
REMARK                            x       y       z     vdW  Elec       q    Type
REMARK                         _______ _______ _______ _____ _____    ______ ____
ROOT
ATOM      1  C   UNL     1      -3.559   1.893   0.067  0.00  0.00    +0.163 C 
ENDROOT
BRANCH   1   8
ATOM      2  C   UNL     1      -8.857   0.084  -2.960  0.00  0.00    +0.134 A 
ATOM      3  N   UNL     1      -7.798  -0.670  -2.692  0.00  0.00    -0.140 NA
ATOM      4  N   UNL     1      -6.795  -0.176  -2.105  0.00  0.00    -0.125 NA
ATOM      5  C   UNL     1      -6.759   1.092  -1.728  0.00  0.00    +0.188 A 
ATOM      6  S   UNL     1      -8.313   1.645  -2.277  0.00  0.00    -0.030 S 
ATOM      7  N   UNL     1      -5.751   1.792  -1.077  0.00  0.00    -0.262 N 
ATOM      8  C   UNL     1      -4.608   1.165  -0.735  0.00  0.00    +0.239 C 
ATOM      9  O   UNL     1      -4.423   0.014  -1.072  0.00  0.00    -0.273 OA
ATOM     10  H   UNL     1      -5.885   2.857  -0.841  0.00  0.00    +0.157 HD
BRANCH   2  15
ATOM     11  C   UNL     1     -13.796  -1.282  -5.579  0.00  0.00    +0.044 C 
ATOM     12  C   UNL     1     -12.502  -0.924  -4.893  0.00  0.00    -0.050 A 
ATOM     13  C   UNL     1     -11.525  -1.888  -4.720  0.00  0.00    +0.004 A 
ATOM     14  C   UNL     1     -10.339  -1.567  -4.093  0.00  0.00    +0.011 A 
ATOM     15  C   UNL     1     -10.126  -0.267  -3.633  0.00  0.00    +0.009 A 
ATOM     16  C   UNL     1     -11.118   0.699  -3.806  0.00  0.00    +0.011 A 
ATOM     17  C   UNL     1     -12.298   0.366  -4.439  0.00  0.00    +0.004 A 
ENDBRANCH   2  15
ENDBRANCH   1   8
BRANCH   1  18
ATOM     18  N   UNL     1      -2.243   1.311  -0.208  0.00  0.00    -0.288 N 
ATOM     19  C   UNL     1      -1.130   2.052  -0.039  0.00  0.00    +0.301 C 
ATOM     20  O   UNL     1      -1.219   3.204   0.341  0.00  0.00    -0.253 OA
ATOM     21  N   UNL     1       0.081   1.517  -0.292  0.00  0.00    -0.294 N 
ATOM     22  H   UNL     1      -2.163   0.269  -0.552  0.00  0.00    +0.151 HD
ATOM     23  H   UNL     1       0.161   0.474  -0.631  0.00  0.00    +0.151 HD
BRANCH  21  24
ATOM     24  C   UNL     1       1.290   2.325  -0.114  0.00  0.00    +0.037 C 
ATOM     25  C   UNL     1       1.224   3.550  -1.028  0.00  0.00    +0.029 C 
ATOM     26  C   UNL     1       2.486   4.394  -0.843  0.00  0.00    -0.008 C 
ATOM     27  C   UNL     1       3.716   3.556  -1.201  0.00  0.00    +0.007 C 
ATOM     28  C   UNL     1       3.782   2.331  -0.287  0.00  0.00    -0.008 C 
ATOM     29  C   UNL     1       2.519   1.488  -0.472  0.00  0.00    +0.029 C 
ATOM     30  C   UNL     1       3.882   2.786   1.170  0.00  0.00    +0.007 C 
ATOM     31  C   UNL     1       2.652   3.624   1.528  0.00  0.00    -0.008 C 
ATOM     32  C   UNL     1       2.586   4.849   0.615  0.00  0.00    +0.007 C 
ATOM     33  C   UNL     1       1.389   2.780   1.343  0.00  0.00    +0.029 C 
ENDBRANCH  21  24
ENDBRANCH   1  18
BRANCH   1  34
ATOM     34  C   UNL     1      -3.874   1.761   1.558  0.00  0.00    +0.012 C 
ATOM     35  C   UNL     1      -2.843   2.548   2.369  0.00  0.00    +0.009 C 
ATOM     36  C   UNL     1      -5.273   2.316   1.835  0.00  0.00    +0.009 C 
ENDBRANCH   1  34
TORSDOF 5
