REMARK  Name = ZINC39911535
REMARK  17 active torsions:
REMARK  status: ('A' for Active; 'I' for Inactive)
REMARK    1  A    between atoms: C_1  and  C_2
REMARK    2  A    between atoms: C_2  and  C_3
REMARK    3  A    between atoms: C_3  and  C_4
REMARK    4  A    between atoms: C_4  and  C_5
REMARK    5  A    between atoms: C_5  and  C_6
REMARK    6  A    between atoms: C_6  and  O_7
REMARK    7  A    between atoms: O_7  and  C_8
REMARK    8  A    between atoms: C_11  and  C_16
REMARK    9  A    between atoms: C_13  and  O_14
REMARK   10  A    between atoms: O_14  and  C_15
REMARK   11  A    between atoms: C_19  and  C_30
REMARK   12  A    between atoms: N_26  and  C_27
REMARK   13  A    between atoms: C_27  and  C_28
REMARK   14  A    between atoms: C_28  and  O_29
REMARK   15  A    between atoms: C_32  and  C_38
REMARK   16  A    between atoms: C_34  and  C_37
REMARK   17  A    between atoms: C_35  and  O_36
REMARK                            x       y       z     vdW  Elec       q    Type
REMARK                         _______ _______ _______ _____ _____    ______ ____
ROOT
ATOM      1  C   UNL     1       3.292  -9.935  -3.832  0.00  0.00    +0.141 C 
ATOM      2  C   UNL     1       4.497 -10.234  -2.983  0.00  0.00    +0.035 A 
ATOM      3  C   UNL     1       5.859 -10.014  -2.749  0.00  0.00    +0.102 A 
ATOM      4  N   UNL     1       6.198 -10.728  -1.694  0.00  0.00    -0.173 NA
ATOM      5  N   UNL     1       5.186 -11.377  -1.239  0.00  0.00    -0.272 N 
ATOM      6  H   UNL     1       5.202 -11.965  -0.468  0.00  0.00    +0.189 HD
ATOM      7  C   UNL     1       4.084 -11.113  -2.001  0.00  0.00    +0.126 A 
ATOM      8  C   UNL     1       2.655 -11.387  -2.192  0.00  0.00    +0.266 C 
ATOM      9  O   UNL     1       1.990 -12.125  -1.490  0.00  0.00    -0.268 OA
ATOM     10  N   UNL     1       2.184 -10.707  -3.255  0.00  0.00    -0.283 N 
ENDROOT
BRANCH   3  11
ATOM     11  C   UNL     1       6.757  -9.138  -3.542  0.00  0.00    +0.044 A 
ATOM     12  C   UNL     1       6.295  -8.541  -4.713  0.00  0.00    +0.017 A 
ATOM     13  C   UNL     1       7.134  -7.727  -5.447  0.00  0.00    -0.049 A 
ATOM     14  C   UNL     1       8.432  -7.502  -5.025  0.00  0.00    +0.010 A 
ATOM     15  C   UNL     1       8.900  -8.091  -3.866  0.00  0.00    -0.008 A 
ATOM     16  C   UNL     1       8.067  -8.905  -3.115  0.00  0.00    +0.129 A 
ATOM     17  C   UNL     1      10.316  -7.841  -3.413  0.00  0.00    +0.047 C 
ATOM     18  C   UNL     1       6.634  -7.082  -6.714  0.00  0.00    +0.044 C 
BRANCH  16  19
ATOM     19  O   UNL     1       8.523  -9.478  -1.972  0.00  0.00    -0.506 OA
ATOM     20  H   UNL     1       8.931 -10.345  -2.102  0.00  0.00    +0.292 HD
ENDBRANCH  16  19
ENDBRANCH   3  11
BRANCH   1  24
ATOM     21  C   UNL     1       2.400  -5.754  -3.704  0.00  0.00    +0.162 A 
ATOM     22  C   UNL     1       2.879  -6.328  -4.871  0.00  0.00    +0.050 A 
ATOM     23  C   UNL     1       3.167  -7.679  -4.909  0.00  0.00    +0.009 A 
ATOM     24  C   UNL     1       2.977  -8.462  -3.785  0.00  0.00    -0.019 A 
ATOM     25  C   UNL     1       2.499  -7.896  -2.618  0.00  0.00    +0.055 A 
ATOM     26  C   UNL     1       2.214  -6.541  -2.571  0.00  0.00    +0.162 A 
BRANCH  26  27
ATOM     27  O   UNL     1       1.749  -5.981  -1.422  0.00  0.00    -0.491 OA
ATOM     28  C   UNL     1       1.626  -6.840  -0.286  0.00  0.00    +0.277 C 
ENDBRANCH  26  27
BRANCH  21  29
ATOM     29  O   UNL     1       2.117  -4.425  -3.664  0.00  0.00    -0.488 OA
BRANCH  29  30
ATOM     30  C   UNL     1       2.331  -3.680  -4.865  0.00  0.00    +0.229 C 
BRANCH  30  31
ATOM     31  C   UNL     1       1.960  -2.215  -4.629  0.00  0.00    +0.041 C 
BRANCH  31  32
ATOM     32  C   UNL     1       2.190  -1.417  -5.914  0.00  0.00    +0.003 C 
BRANCH  32  33
ATOM     33  C   UNL     1       1.819   0.049  -5.678  0.00  0.00    -0.000 C 
BRANCH  33  35
ATOM     34  C   UNL     1       1.678   2.312  -6.728  0.00  0.00    +0.004 C 
ATOM     35  C   UNL     1       2.049   0.846  -6.964  0.00  0.00    -0.003 C 
ENDBRANCH  33  35
ENDBRANCH  32  33
ENDBRANCH  31  32
ENDBRANCH  30  31
ENDBRANCH  29  30
ENDBRANCH  21  29
ENDBRANCH   1  24
BRANCH  10  36
ATOM     36  C   UNL     1       0.806 -10.732  -3.750  0.00  0.00    +0.137 C 
BRANCH  36  37
ATOM     37  C   UNL     1       0.654 -11.853  -4.781  0.00  0.00    +0.175 C 
BRANCH  37  38
ATOM     38  O   UNL     1       0.850 -13.117  -4.142  0.00  0.00    -0.393 OA
ATOM     39  H   UNL     1       0.768 -13.875  -4.737  0.00  0.00    +0.209 HD
ENDBRANCH  37  38
ENDBRANCH  36  37
ENDBRANCH  10  36
TORSDOF 13
