REMARK  Name = ZINC23433301
REMARK  10 active torsions:
REMARK  status: ('A' for Active; 'I' for Inactive)
REMARK    1  A    between atoms: C_1  and  C_2
REMARK    2  A    between atoms: N_7  and  S_9
REMARK    3  A    between atoms: S_9  and  C_12
REMARK    4  A    between atoms: C_15  and  O_35
REMARK    5  A    between atoms: C_16  and  N_18
REMARK    6  A    between atoms: N_21  and  S_24
REMARK    7  A    between atoms: S_24  and  C_27
REMARK    8  A    between atoms: C_31  and  O_33
REMARK    9  A    between atoms: O_33  and  C_34
REMARK   10  A    between atoms: O_35  and  C_36
REMARK                            x       y       z     vdW  Elec       q    Type
REMARK                         _______ _______ _______ _____ _____    ______ ____
ROOT
ATOM      1  C   UNL     1       0.041  -2.775  -0.013  0.00  0.00    +0.107 A 
ATOM      2  C   UNL     1       1.227  -2.065  -0.021  0.00  0.00    +0.032 A 
ATOM      3  C   UNL     1       1.210  -0.682  -0.019  0.00  0.00    +0.049 A 
ATOM      4  C   UNL     1       0.002  -0.004   0.002  0.00  0.00    +0.141 A 
ATOM      5  C   UNL     1      -1.194  -0.719   0.010  0.00  0.00    +0.074 A 
ATOM      6  C   UNL     1      -1.169  -2.106   0.002  0.00  0.00    +0.055 A 
ENDROOT
BRANCH   5   7
ATOM      7  N   UNL     1      -2.417  -0.039   0.025  0.00  0.00    -0.324 N 
ATOM      8  C   UNL     1      -3.154  -0.310   1.267  0.00  0.00    +0.122 C 
ATOM      9  C   UNL     1      -4.395   0.587   1.327  0.00  0.00    +0.128 C 
ATOM     10  N   UNL     1      -5.169   0.398   0.090  0.00  0.00    -0.174 NA
ATOM     11  C   UNL     1      -4.465   0.518  -1.196  0.00  0.00    +0.128 C 
ATOM     12  C   UNL     1      -3.222  -0.376  -1.157  0.00  0.00    +0.122 C 
BRANCH  10  13
ATOM     13  S   UNL     1      -6.789   0.059   0.145  0.00  0.00    +0.061 S 
ATOM     14  O   UNL     1      -7.264   0.548   1.391  0.00  0.00    -0.153 OA
ATOM     15  O   UNL     1      -7.334   0.481  -1.097  0.00  0.00    -0.153 OA
BRANCH  13  16
ATOM     16  C   UNL     1      -6.952  -1.695   0.197  0.00  0.00    +0.109 A 
ATOM     17  C   UNL     1      -7.056  -2.414  -0.980  0.00  0.00    +0.029 A 
ATOM     18  C   UNL     1      -7.178  -3.791  -0.943  0.00  0.00    +0.005 A 
ATOM     19  C   UNL     1      -7.209  -4.450   0.271  0.00  0.00    +0.046 A 
ATOM     20  C   UNL     1      -7.112  -3.730   1.453  0.00  0.00    +0.122 A 
ATOM     21  C   UNL     1      -6.983  -2.349   1.413  0.00  0.00    +0.074 A 
BRANCH  20  22
ATOM     22  O   UNL     1      -7.142  -4.377   2.648  0.00  0.00    -0.495 OA
ATOM     23  C   UNL     1      -7.277  -5.799   2.613  0.00  0.00    +0.277 C 
ENDBRANCH  20  22
ENDBRANCH  13  16
ENDBRANCH  10  13
ENDBRANCH   5   7
BRANCH   1  24
ATOM     24  S   UNL     1       0.071  -4.536  -0.023  0.00  0.00    +0.061 S 
ATOM     25  O   UNL     1       1.328  -4.924   0.514  0.00  0.00    -0.153 OA
ATOM     26  O   UNL     1      -1.162  -4.966   0.537  0.00  0.00    -0.153 OA
BRANCH  24  32
ATOM     27  C   UNL     1       2.531  -4.680  -4.460  0.00  0.00    +0.009 C 
ATOM     28  C   UNL     1       1.284  -4.385  -3.624  0.00  0.00    +0.002 C 
ATOM     29  C   UNL     1       0.033  -4.754  -4.423  0.00  0.00    +0.006 C 
ATOM     30  C   UNL     1      -1.215  -4.428  -3.600  0.00  0.00    +0.017 C 
ATOM     31  C   UNL     1      -1.203  -5.262  -2.310  0.00  0.00    +0.109 C 
ATOM     32  N   UNL     1       0.064  -5.017  -1.607  0.00  0.00    -0.176 NA
ATOM     33  C   UNL     1       1.325  -5.213  -2.336  0.00  0.00    +0.112 C 
ENDBRANCH  24  32
ENDBRANCH   1  24
BRANCH   4  34
ATOM     34  O   UNL     1      -0.016   1.356   0.009  0.00  0.00    -0.493 OA
ATOM     35  C   UNL     1       1.248   2.022   0.001  0.00  0.00    +0.277 C 
ENDBRANCH   4  34
TORSDOF 7
