REMARK  Name = ZINC06826135
REMARK  9 active torsions:
REMARK  status: ('A' for Active; 'I' for Inactive)
REMARK    1  A    between atoms: C_1  and  C_2
REMARK    2  A    between atoms: C_4  and  C_7
REMARK    3  A    between atoms: N_9  and  N_10
REMARK    4  A    between atoms: N_10  and  C_11
REMARK    5  A    between atoms: C_11  and  N_13
REMARK    6  A    between atoms: N_13  and  C_14
REMARK    7  A    between atoms: C_15  and  C_22
REMARK    8  A    between atoms: C_22  and  O_24
REMARK    9  A    between atoms: O_24  and  C_25
REMARK                            x       y       z     vdW  Elec       q    Type
REMARK                         _______ _______ _______ _____ _____    ______ ____
ROOT
ATOM      1  C   UNL     1       1.141   2.071   0.002  0.00  0.00    +0.151 C 
ATOM      2  S   UNL     1       2.635   1.235  -0.017  0.00  0.00    -0.017 S 
ENDROOT
BRANCH   1   3
ATOM      3  N   UNL     1       1.123   3.418   0.010  0.00  0.00    -0.245 N 
ATOM      4  H   UNL     1       1.956   3.915   0.004  0.00  0.00    +0.172 HD
BRANCH   3   7
ATOM      5  C   UNL     1      -0.118   5.450   0.033  0.00  0.00    +0.261 C 
ATOM      6  O   UNL     1       0.927   6.072   0.026  0.00  0.00    -0.269 OA
ATOM      7  N   UNL     1      -0.100   4.102   0.025  0.00  0.00    -0.231 N 
ATOM      8  H   UNL     1      -0.933   3.606   0.030  0.00  0.00    +0.173 HD
BRANCH   5  12
ATOM      9  C   UNL     1      -3.038   9.638   0.083  0.00  0.00    +0.051 C 
ATOM     10  C   UNL     1      -2.682   8.174   0.072  0.00  0.00    -0.013 A 
ATOM     11  C   UNL     1      -1.459   7.609   0.062  0.00  0.00    +0.024 A 
ATOM     12  C   UNL     1      -1.403   6.168   0.049  0.00  0.00    +0.045 A 
ATOM     13  C   UNL     1      -2.605   5.493   0.057  0.00  0.00    +0.058 A 
ATOM     14  S   UNL     1      -3.776   6.769   0.075  0.00  0.00    -0.101 S 
ENDBRANCH   5  12
ENDBRANCH   3   7
ENDBRANCH   1   3
BRANCH   1  15
ATOM     15  N   UNL     1      -0.017   1.381   0.010  0.00  0.00    -0.290 N 
ATOM     16  H   UNL     1      -0.863   1.855   0.016  0.00  0.00    +0.154 HD
BRANCH  15  17
ATOM     17  C   UNL     1       0.002  -0.004   0.002  0.00  0.00    +0.086 A 
ATOM     18  C   UNL     1      -1.072  -0.880   0.013  0.00  0.00    +0.091 A 
ATOM     19  C   UNL     1      -0.776  -2.313  -0.002  0.00  0.00    -0.021 A 
ATOM     20  C   UNL     1       0.532  -2.626  -0.017  0.00  0.00    -0.004 A 
ATOM     21  S   UNL     1       1.372  -1.061  -0.016  0.00  0.00    -0.077 S 
ATOM     22  C   UNL     1       0.756  -4.114  -0.029  0.00  0.00    +0.043 C 
ATOM     23  C   UNL     1      -0.604  -4.708  -0.457  0.00  0.00    +0.010 C 
ATOM     24  C   UNL     1      -1.585  -3.611   0.001  0.00  0.00    +0.037 C 
BRANCH  18  25
ATOM     25  C   UNL     1      -2.451  -0.390   0.036  0.00  0.00    +0.342 C 
ATOM     26  O   UNL     1      -3.039  -0.182  -1.008  0.00  0.00    -0.245 OA
BRANCH  25  27
ATOM     27  O   UNL     1      -3.069  -0.170   1.214  0.00  0.00    -0.464 OA
ATOM     28  C   UNL     1      -4.436   0.316   1.160  0.00  0.00    +0.280 C 
ENDBRANCH  25  27
ENDBRANCH  18  25
ENDBRANCH  15  17
ENDBRANCH   1  15
TORSDOF 7
