REMARK  Name = ZINC39942496
REMARK  6 active torsions:
REMARK  status: ('A' for Active; 'I' for Inactive)
REMARK    1  A    between atoms: C_7  and  C_10
REMARK    2  A    between atoms: C_13  and  S_19
REMARK    3  A    between atoms: N_15  and  C_16
REMARK    4  A    between atoms: S_19  and  C_20
REMARK    5  A    between atoms: C_20  and  C_21
REMARK    6  A    between atoms: N_23  and  C_24
REMARK                            x       y       z     vdW  Elec       q    Type
REMARK                         _______ _______ _______ _____ _____    ______ ____
ROOT
ATOM      1  C   UNL     1       0.548  -3.235   0.024  0.00  0.00    +0.147 C 
ATOM      2  N   UNL     1      -0.691  -3.000   0.367  0.00  0.00    -0.169 NA
ATOM      3  N   UNL     1      -1.486  -4.143   0.219  0.00  0.00    -0.237 N 
ATOM      4  C   UNL     1      -0.599  -5.207  -0.280  0.00  0.00    +0.237 C 
ATOM      5  N   UNL     1       0.717  -4.557  -0.395  0.00  0.00    -0.282 N 
ATOM      6  H   UNL     1      -2.434  -4.219   0.409  0.00  0.00    +0.171 HD
ENDROOT
BRANCH   1  13
ATOM      7  C   UNL     1       0.657   1.039   1.542  0.00  0.00    +0.001 A 
ATOM      8  C   UNL     1       1.903   1.653   1.396  0.00  0.00    +0.002 A 
ATOM      9  C   UNL     1       2.959   1.004   0.848  0.00  0.00    +0.026 A 
ATOM     10  C   UNL     1       2.812  -0.336   0.405  0.00  0.00    +0.043 A 
ATOM     11  N   UNL     1       3.669  -1.170  -0.151  0.00  0.00    -0.380 N 
ATOM     12  C   UNL     1       2.999  -2.447  -0.416  0.00  0.00    +0.152 C 
ATOM     13  C   UNL     1       1.575  -2.280   0.067  0.00  0.00    +0.022 C 
ATOM     14  C   UNL     1       1.497  -0.978   0.562  0.00  0.00    +0.006 A 
ATOM     15  C   UNL     1       0.443  -0.241   1.142  0.00  0.00    +0.010 A 
ATOM     16  H   UNL     1       4.596  -0.970  -0.354  0.00  0.00    +0.160 HD
ENDBRANCH   1  13
BRANCH   5  17
ATOM     17  C   UNL     1       1.962  -5.177  -0.856  0.00  0.00    +0.078 C 
ATOM     18  C   UNL     1       1.891  -6.623  -1.350  0.00  0.00    +0.024 C 
ATOM     19  C   UNL     1       2.548  -6.305  -0.005  0.00  0.00    +0.024 C 
ENDBRANCH   5  17
BRANCH   4  20
ATOM     20  S   UNL     1      -0.536  -6.585   0.898  0.00  0.00    -0.109 S 
BRANCH  20  21
ATOM     21  C   UNL     1       0.065  -5.825   2.431  0.00  0.00    +0.168 C 
BRANCH  21  22
ATOM     22  C   UNL     1       0.165  -6.876   3.507  0.00  0.00    +0.227 C 
ATOM     23  O   UNL     1      -0.139  -8.024   3.263  0.00  0.00    -0.275 OA
ATOM     24  N   UNL     1       0.593  -6.539   4.740  0.00  0.00    -0.285 N 
ATOM     25  H   UNL     1       0.765  -5.610   4.957  0.00  0.00    +0.155 HD
BRANCH  24  26
ATOM     26  C   UNL     1       0.789  -7.532   5.709  0.00  0.00    +0.037 A 
ATOM     27  C   UNL     1       0.533  -7.258   7.045  0.00  0.00    +0.027 A 
ATOM     28  C   UNL     1       0.726  -8.236   8.002  0.00  0.00    +0.051 A 
ATOM     29  C   UNL     1       1.174  -9.493   7.630  0.00  0.00    +0.166 A 
ATOM     30  C   UNL     1       1.431  -9.772   6.290  0.00  0.00    +0.168 A 
ATOM     31  C   UNL     1       1.233  -8.792   5.331  0.00  0.00    +0.072 A 
ATOM     32  O   UNL     1       1.858 -11.064   6.187  0.00  0.00    -0.453 OA
ATOM     33  C   UNL     1       2.250 -11.447   7.518  0.00  0.00    +0.466 C 
ATOM     34  O   UNL     1       1.440 -10.613   8.367  0.00  0.00    -0.453 OA
ENDBRANCH  24  26
ENDBRANCH  21  22
ENDBRANCH  20  21
ENDBRANCH   4  20
TORSDOF 6
