REMARK  Name = ZINC28710359
REMARK  11 active torsions:
REMARK  status: ('A' for Active; 'I' for Inactive)
REMARK    1  A    between atoms: C_1  and  C_2
REMARK    2  A    between atoms: N_10  and  C_11
REMARK    3  A    between atoms: C_11  and  C_12
REMARK    4  A    between atoms: C_16  and  C_18
REMARK    5  A    between atoms: N_20  and  C_21
REMARK    6  A    between atoms: N_24  and  C_27
REMARK    7  A    between atoms: C_27  and  C_28
REMARK    8  A    between atoms: C_28  and  C_29
REMARK    9  A    between atoms: C_29  and  S_30
REMARK   10  A    between atoms: S_30  and  N_33
REMARK   11  A    between atoms: N_33  and  C_34
REMARK                            x       y       z     vdW  Elec       q    Type
REMARK                         _______ _______ _______ _____ _____    ______ ____
ROOT
ATOM      1  C   UNL     1      -0.018   1.503   0.010  0.00  0.00    +0.046 C 
ATOM      2  C   UNL     1       0.002  -0.004   0.002  0.00  0.00    -0.025 A 
ATOM      3  C   UNL     1       0.006  -0.689  -1.193  0.00  0.00    +0.005 A 
ATOM      4  C   UNL     1       0.024  -2.075  -1.210  0.00  0.00    +0.002 A 
ATOM      5  C   UNL     1       0.039  -2.788  -0.029  0.00  0.00    +0.028 A 
ATOM      6  C   UNL     1       0.036  -2.116   1.183  0.00  0.00    +0.069 A 
ATOM      7  C   UNL     1       0.023  -0.711   1.206  0.00  0.00    +0.068 A 
ATOM      8  N   UNL     1       0.030  -0.332   2.511  0.00  0.00    -0.327 N 
ATOM      9  C   UNL     1       0.052  -1.395   3.277  0.00  0.00    +0.175 A 
ATOM     10  N   UNL     1       0.047  -2.522   2.508  0.00  0.00    -0.307 N 
ATOM     11  N   UNL     1       0.066  -1.377   4.656  0.00  0.00    -0.314 N 
ATOM     12  H   UNL     1       0.082  -2.210   5.152  0.00  0.00    +0.149 HD
ATOM     13  H   UNL     1       0.021   0.585   2.828  0.00  0.00    +0.169 HD
ENDROOT
BRANCH  11  14
ATOM     14  C   UNL     1       0.055  -0.099   5.372  0.00  0.00    +0.070 C 
ATOM     15  C   UNL     1       1.488   0.424   5.507  0.00  0.00    +0.003 C 
ATOM     16  C   UNL     1       1.479   1.718   6.324  0.00  0.00    -0.077 C 
ATOM     17  N   UNL     1       0.925   1.454   7.658  0.00  0.00    +0.380 N 
ATOM     18  C   UNL     1      -0.473   1.021   7.540  0.00  0.00    -0.077 C 
ATOM     19  C   UNL     1      -0.538  -0.299   6.770  0.00  0.00    +0.003 C 
ATOM     20  H   UNL     1       1.464   0.730   8.108  0.00  0.00    -0.082 HD
BRANCH  17  21
ATOM     21  C   UNL     1       0.989   2.680   8.465  0.00  0.00    -0.077 C 
BRANCH  21  22
ATOM     22  C   UNL     1       0.529   2.377   9.892  0.00  0.00    +0.006 C 
BRANCH  22  23
ATOM     23  C   UNL     1       0.596   3.654  10.732  0.00  0.00    +0.183 C 
BRANCH  23  24
ATOM     24  S   UNL     1       0.050   3.294  12.424  0.00  0.00    +0.029 S 
ATOM     25  O   UNL     1      -1.336   2.984  12.435  0.00  0.00    -0.158 OA
ATOM     26  O   UNL     1       0.988   2.444  13.070  0.00  0.00    -0.158 OA
BRANCH  24  27
ATOM     27  N   UNL     1       0.167   4.739  13.225  0.00  0.00    -0.198 NA
ATOM     28  C   UNL     1      -0.686   5.864  12.835  0.00  0.00    +0.127 C 
ATOM     29  H   UNL     1       0.801   4.840  13.952  0.00  0.00    +0.147 HD
ENDBRANCH  24  27
ENDBRANCH  23  24
ENDBRANCH  22  23
ENDBRANCH  21  22
ENDBRANCH  17  21
ENDBRANCH  11  14
BRANCH  10  30
ATOM     30  C   UNL     1       0.067  -3.905   2.992  0.00  0.00    +0.182 C 
BRANCH  30  31
ATOM     31  C   UNL     1       1.494  -4.361   3.152  0.00  0.00    +0.083 A 
ATOM     32  C   UNL     1       2.211  -4.774   2.038  0.00  0.00    +0.200 A 
ATOM     33  C   UNL     1       3.528  -5.193   2.200  0.00  0.00    +0.054 A 
ATOM     34  C   UNL     1       4.071  -5.179   3.475  0.00  0.00    +0.024 A 
ATOM     35  C   UNL     1       3.293  -4.754   4.535  0.00  0.00    +0.013 A 
ATOM     36  N   UNL     1       2.050  -4.359   4.347  0.00  0.00    -0.358 N 
ATOM     37  C   UNL     1       3.877  -4.736   5.925  0.00  0.00    +0.063 C 
ATOM     38  O   UNL     1       1.635  -4.771   0.807  0.00  0.00    -0.286 OA
ATOM     39  H   UNL     1       1.529  -4.061   5.109  0.00  0.00    +0.165 HD
ENDBRANCH  30  31
ENDBRANCH  10  30
TORSDOF 8
