REMARK  Name = ZINC64678837
REMARK  8 active torsions:
REMARK  status: ('A' for Active; 'I' for Inactive)
REMARK    1  A    between atoms: C_1  and  C_2
REMARK    2  A    between atoms: C_7  and  C_8
REMARK    3  A    between atoms: C_8  and  C_9
REMARK    4  A    between atoms: N_11  and  C_12
REMARK    5  A    between atoms: N_11  and  C_13
REMARK    6  A    between atoms: C_13  and  C_14
REMARK    7  A    between atoms: C_14  and  C_15
REMARK    8  A    between atoms: C_18  and  C_21
REMARK                            x       y       z     vdW  Elec       q    Type
REMARK                         _______ _______ _______ _____ _____    ______ ____
ROOT
ATOM      1  C   UNL     1      -5.010   0.583   5.646  0.00  0.00    +0.139 C 
ATOM      2  N   UNL     1      -5.615   1.661   5.303  0.00  0.00    -0.072 NA
ATOM      3  O   UNL     1      -6.933   1.690   5.819  0.00  0.00    -0.367 OA
ATOM      4  C   UNL     1      -7.105   0.468   6.554  0.00  0.00    +0.318 C 
ATOM      5  N   UNL     1      -5.817  -0.229   6.407  0.00  0.00    -0.291 N 
ATOM      6  H   UNL     1      -5.583  -1.094   6.778  0.00  0.00    +0.151 HD
ENDROOT
BRANCH   4   7
ATOM      7  C   UNL     1      -7.397   0.765   8.026  0.00  0.00    +0.165 C 
ATOM      8  C   UNL     1      -7.600  -0.526   8.788  0.00  0.00    +0.012 C 
ATOM      9  C   UNL     1      -8.859  -0.476   9.280  0.00  0.00    -0.002 A 
ATOM     10  C   UNL     1      -9.646  -1.409  10.094  0.00  0.00    +0.029 A 
ATOM     11  C   UNL     1     -10.911  -1.075  10.439  0.00  0.00    +0.042 A 
ATOM     12  C   UNL     1     -11.488   0.140  10.038  0.00  0.00    +0.022 A 
ATOM     13  C   UNL     1     -10.827   1.048   9.289  0.00  0.00    +0.027 A 
ATOM     14  C   UNL     1      -9.491   0.799   8.870  0.00  0.00    +0.043 A 
ATOM     15  N   UNL     1      -8.654   1.511   8.152  0.00  0.00    -0.373 N 
ATOM     16 CL   UNL     1     -11.845  -2.177  11.402  0.00  0.00    -0.084 Cl
ATOM     17  H   UNL     1      -8.835   2.384   7.769  0.00  0.00    +0.160 HD
ENDBRANCH   4   7
BRANCH   1  18
ATOM     18  C   UNL     1      -3.593   0.246   5.258  0.00  0.00    +0.094 C 
BRANCH  18  19
ATOM     19  C   UNL     1      -3.012   1.381   4.413  0.00  0.00    +0.115 C 
BRANCH  19  22
ATOM     20  C   UNL     1      -1.391   0.382   2.893  0.00  0.00    +0.220 C 
ATOM     21  O   UNL     1      -2.312   0.049   2.177  0.00  0.00    -0.275 OA
ATOM     22  N   UNL     1      -1.635   1.054   4.036  0.00  0.00    -0.304 N 
ATOM     23  C   UNL     1      -0.523   1.456   4.900  0.00  0.00    +0.132 C 
BRANCH  20  24
ATOM     24  C   UNL     1       0.025   0.045   2.504  0.00  0.00    +0.131 C 
BRANCH  24  31
ATOM     25  C   UNL     1      -0.018   1.503   0.010  0.00  0.00    +0.044 C 
ATOM     26  C   UNL     1       0.002  -0.004   0.002  0.00  0.00    -0.047 A 
ATOM     27  C   UNL     1       0.006  -0.689  -1.199  0.00  0.00    +0.003 A 
ATOM     28  C   UNL     1       0.025  -2.071  -1.207  0.00  0.00    +0.000 A 
ATOM     29  C   UNL     1       0.040  -2.768  -0.013  0.00  0.00    +0.000 A 
ATOM     30  C   UNL     1       0.037  -2.084   1.188  0.00  0.00    +0.004 A 
ATOM     31  C   UNL     1       0.023  -0.702   1.195  0.00  0.00    -0.036 A 
ENDBRANCH  24  31
ENDBRANCH  20  24
ENDBRANCH  19  22
ENDBRANCH  18  19
ENDBRANCH   1  18
TORSDOF 6
