REMARK  Name = ZINC12331695
REMARK  10 active torsions:
REMARK  status: ('A' for Active; 'I' for Inactive)
REMARK    1  A    between atoms: C_1  and  C_2
REMARK    2  A    between atoms: C_7  and  C_19
REMARK    3  A    between atoms: C_15  and  O_18
REMARK    4  A    between atoms: C_19  and  N_20
REMARK    5  A    between atoms: N_20  and  C_21
REMARK    6  A    between atoms: C_21  and  C_22
REMARK    7  A    between atoms: C_22  and  C_23
REMARK    8  A    between atoms: C_23  and  N_24
REMARK    9  A    between atoms: C_30  and  C_32
REMARK   10  A    between atoms: C_35  and  C_37
REMARK                            x       y       z     vdW  Elec       q    Type
REMARK                         _______ _______ _______ _____ _____    ______ ____
ROOT
ATOM      1  C   UNL     1       3.487   2.689  -7.643  0.00  0.00    +0.044 C 
ATOM      2  C   UNL     1       3.168   2.418  -6.196  0.00  0.00    -0.048 A 
ATOM      3  C   UNL     1       3.857   1.415  -5.518  0.00  0.00    +0.004 A 
ATOM      4  C   UNL     1       3.591   1.146  -4.210  0.00  0.00    +0.010 A 
ATOM      5  C   UNL     1       2.610   1.888  -3.534  0.00  0.00    -0.001 A 
ATOM      6  C   UNL     1       2.309   1.641  -2.179  0.00  0.00    +0.018 A 
ATOM      7  C   UNL     1       1.341   2.393  -1.585  0.00  0.00    +0.008 A 
ATOM      8  C   UNL     1       0.682   3.390  -2.318  0.00  0.00    +0.104 A 
ATOM      9  C   UNL     1       1.908   2.908  -4.221  0.00  0.00    +0.048 A 
ATOM     10  C   UNL     1       2.211   3.157  -5.570  0.00  0.00    +0.029 A 
ATOM     11  N   UNL     1      -0.297   4.152  -1.699  0.00  0.00    -0.314 N 
ATOM     12  C   UNL     1       0.272   5.383  -1.136  0.00  0.00    +0.106 C 
ATOM     13  C   UNL     1      -0.802   6.125  -0.337  0.00  0.00    +0.021 C 
ATOM     14  C   UNL     1      -1.977   6.459  -1.260  0.00  0.00    +0.034 C 
ATOM     15  C   UNL     1      -2.521   5.164  -1.871  0.00  0.00    +0.132 C 
ATOM     16  C   UNL     1      -1.397   4.450  -2.625  0.00  0.00    +0.137 C 
ATOM     17  N   UNL     1       0.933   3.674  -3.621  0.00  0.00    -0.343 N 
ATOM     18  H   UNL     1       0.429   4.413  -4.126  0.00  0.00    +0.167 HD
ENDROOT
BRANCH  15  19
ATOM     19  O   UNL     1      -3.582   5.472  -2.776  0.00  0.00    -0.390 OA
ATOM     20  H   UNL     1      -4.330   5.927  -2.366  0.00  0.00    +0.210 HD
ENDBRANCH  15  19
BRANCH   7  21
ATOM     21  C   UNL     1       0.984   2.159  -0.139  0.00  0.00    +0.146 C 
BRANCH  21  22
ATOM     22  N   UNL     1      -0.220   1.328  -0.062  0.00  0.00    -0.292 N 
ATOM     23  C   UNL     1      -0.119  -0.013  -0.138  0.00  0.00    +0.266 C 
ATOM     24  O   UNL     1       0.959  -0.531  -0.363  0.00  0.00    -0.268 OA
BRANCH  23  25
ATOM     25  C   UNL     1      -1.313  -0.854   0.053  0.00  0.00    +0.133 A 
ATOM     26  C   UNL     1      -1.263  -2.213  -0.126  0.00  0.00    +0.080 A 
ATOM     27  S   UNL     1      -2.900  -2.669   0.224  0.00  0.00    -0.080 S 
ATOM     28  C   UNL     1      -3.530  -1.090   0.565  0.00  0.00    +0.076 A 
ATOM     29  N   UNL     1      -2.485  -0.321   0.402  0.00  0.00    -0.240 NA
ATOM     30  C   UNL     1      -4.933  -0.701   0.953  0.00  0.00    +0.073 C 
ENDBRANCH  23  25
BRANCH  22  31
ATOM     31  C   UNL     1      -1.535   1.956   0.090  0.00  0.00    +0.110 C 
BRANCH  31  32
ATOM     32  C   UNL     1      -1.889   2.044   1.576  0.00  0.00    +0.038 C 
BRANCH  32  33
ATOM     33  C   UNL     1      -3.261   2.700   1.736  0.00  0.00    +0.109 C 
BRANCH  33  34
ATOM     34  N   UNL     1      -3.600   2.783   3.159  0.00  0.00    -0.301 N 
ATOM     35  C   UNL     1      -4.325   1.744   3.900  0.00  0.00    +0.108 C 
ATOM     36  C   UNL     1      -4.064   2.048   5.394  0.00  0.00    +0.028 C 
ATOM     37  C   UNL     1      -3.785   3.569   5.359  0.00  0.00    +0.097 C 
ATOM     38  C   UNL     1      -3.293   3.824   3.952  0.00  0.00    +0.216 C 
ATOM     39  O   UNL     1      -2.707   4.823   3.591  0.00  0.00    -0.276 OA
ENDBRANCH  33  34
ENDBRANCH  32  33
ENDBRANCH  31  32
ENDBRANCH  22  31
ENDBRANCH  21  22
ENDBRANCH   7  21
TORSDOF 8
