REMARK  Name = ZINC36625723
REMARK  5 active torsions:
REMARK  status: ('A' for Active; 'I' for Inactive)
REMARK    1  A    between atoms: C_6  and  C_7
REMARK    2  A    between atoms: C_7  and  C_9
REMARK    3  A    between atoms: C_9  and  N_10
REMARK    4  A    between atoms: N_13  and  N_17
REMARK    5  A    between atoms: N_17  and  C_18
REMARK                            x       y       z     vdW  Elec       q    Type
REMARK                         _______ _______ _______ _____ _____    ______ ____
ROOT
ATOM      1  N   UNL     1      -2.608  -2.778   0.013  0.00  0.00    -0.230 N 
ATOM      2  C   UNL     1      -3.365  -3.056  -1.068  0.00  0.00    +0.197 A 
ATOM      3  S   UNL     1      -2.897  -2.875  -2.705  0.00  0.00    -0.010 S 
ATOM      4  N   UNL     1      -4.558  -3.502  -0.625  0.00  0.00    -0.206 N 
ATOM      5  C   UNL     1      -4.538  -3.500   0.750  0.00  0.00    +0.231 A 
ATOM      6  N   UNL     1      -3.374  -3.074   1.149  0.00  0.00    -0.133 NA
ATOM      7  N   UNL     1      -5.582  -3.892   1.575  0.00  0.00    -0.326 N 
ATOM      8  H   UNL     1      -6.415  -4.201   1.188  0.00  0.00    +0.145 HD
ATOM      9  H   UNL     1      -5.478  -3.857   2.538  0.00  0.00    +0.145 HD
ENDROOT
BRANCH   4  10
ATOM     10  N   UNL     1      -5.635  -3.899  -1.429  0.00  0.00    -0.249 N 
ATOM     11  H   UNL     1      -6.174  -3.232  -1.882  0.00  0.00    +0.173 HD
BRANCH  10  12
ATOM     12  C   UNL     1      -5.932  -5.256  -1.578  0.00  0.00    +0.047 A 
ATOM     13  C   UNL     1      -5.164  -6.213  -0.926  0.00  0.00    +0.026 A 
ATOM     14  C   UNL     1      -5.460  -7.553  -1.076  0.00  0.00    +0.022 A 
ATOM     15  C   UNL     1      -6.519  -7.944  -1.875  0.00  0.00    +0.041 A 
ATOM     16  C   UNL     1      -7.286  -6.994  -2.526  0.00  0.00    +0.022 A 
ATOM     17  C   UNL     1      -6.999  -5.652  -2.375  0.00  0.00    +0.026 A 
ATOM     18 CL   UNL     1      -6.888  -9.630  -2.061  0.00  0.00    -0.084 Cl
ENDBRANCH  10  12
ENDBRANCH   4  10
BRANCH   1  19
ATOM     19  C   UNL     1      -1.235  -2.267   0.002  0.00  0.00    +0.225 C 
BRANCH  19  20
ATOM     20  C   UNL     1      -1.260  -0.760   0.011  0.00  0.00    +0.184 C 
ATOM     21  O   UNL     1      -2.319  -0.171   0.024  0.00  0.00    -0.290 OA
BRANCH  20  27
ATOM     22  C   UNL     1      -0.017   1.395   0.010  0.00  0.00    +0.013 A 
ATOM     23  C   UNL     1       1.169   2.097   0.002  0.00  0.00    +0.020 A 
ATOM     24  C   UNL     1       2.378   1.420  -0.013  0.00  0.00    +0.041 A 
ATOM     25  C   UNL     1       2.405   0.035  -0.021  0.00  0.00    +0.020 A 
ATOM     26  C   UNL     1       1.227  -0.680  -0.013  0.00  0.00    +0.013 A 
ATOM     27  C   UNL     1       0.002  -0.004   0.002  0.00  0.00    +0.019 A 
ATOM     28 CL   UNL     1       3.867   2.313  -0.023  0.00  0.00    -0.084 Cl
ENDBRANCH  20  27
ENDBRANCH  19  20
ENDBRANCH   1  19
TORSDOF 5
