REMARK  Name = ZINC60975140
REMARK  7 active torsions:
REMARK  status: ('A' for Active; 'I' for Inactive)
REMARK    1  A    between atoms: C_1  and  C_2
REMARK    2  A    between atoms: N_6  and  C_8
REMARK    3  A    between atoms: C_8  and  C_9
REMARK    4  A    between atoms: C_8  and  C_10
REMARK    5  A    between atoms: C_10  and  N_11
REMARK    6  A    between atoms: N_14  and  C_15
REMARK    7  A    between atoms: C_15  and  C_16
REMARK                            x       y       z     vdW  Elec       q    Type
REMARK                         _______ _______ _______ _____ _____    ______ ____
ROOT
ATOM      1  N   UNL     1       0.065  -4.412   2.357  0.00  0.00    -0.301 N 
ATOM      2  C   UNL     1      -0.254  -5.715   2.492  0.00  0.00    +0.300 C 
ATOM      3  O   UNL     1       0.619  -6.537   2.691  0.00  0.00    -0.253 OA
ATOM      4  N   UNL     1      -1.541  -6.105   2.406  0.00  0.00    -0.296 N 
ATOM      5  H   UNL     1      -0.631  -3.756   2.198  0.00  0.00    +0.150 HD
ATOM      6  H   UNL     1      -2.238  -5.449   2.248  0.00  0.00    +0.150 HD
ENDROOT
BRANCH   1   7
ATOM      7  C   UNL     1       1.464  -3.988   2.450  0.00  0.00    +0.090 C 
BRANCH   7   8
ATOM      8  C   UNL     1       1.540  -2.461   2.378  0.00  0.00    -0.054 C 
ATOM      9  C   UNL     1       3.005  -2.022   2.389  0.00  0.00    -0.012 C 
BRANCH   8  15
ATOM     10  C   UNL     1       1.766  -2.557  -2.511  0.00  0.00    +0.005 C 
ATOM     11  C   UNL     1       0.961  -2.061  -1.308  0.00  0.00    -0.031 C 
ATOM     12  C   UNL     1       0.852  -0.535  -1.360  0.00  0.00    -0.001 C 
ATOM     13  C   UNL     1       0.113  -0.043  -0.112  0.00  0.00    -0.018 C 
ATOM     14  C   UNL     1       0.852  -0.530   1.136  0.00  0.00    -0.078 C 
ATOM     15  N   UNL     1       0.899  -1.997   1.140  0.00  0.00    +0.383 N 
ATOM     16  C   UNL     1       1.668  -2.473  -0.016  0.00  0.00    -0.075 C 
ATOM     17  H   UNL     1      -0.040  -2.363   1.092  0.00  0.00    -0.081 HD
ENDBRANCH   8  15
ENDBRANCH   7   8
ENDBRANCH   1   7
BRANCH   4  18
ATOM     18  C   UNL     1      -1.889  -7.521   2.554  0.00  0.00    +0.153 C 
BRANCH  18  19
ATOM     19  C   UNL     1      -3.403  -7.692   2.416  0.00  0.00    +0.228 C 
ATOM     20  C   UNL     1      -3.783  -9.158   2.663  0.00  0.00    +0.275 C 
ATOM     21  O   UNL     1      -5.201  -9.285   2.512  0.00  0.00    -0.485 OA
ATOM     22  C   UNL     1      -5.756  -8.690   1.421  0.00  0.00    +0.162 A 
ATOM     23  C   UNL     1      -7.028  -9.063   1.016  0.00  0.00    +0.049 A 
ATOM     24  C   UNL     1      -7.606  -8.466  -0.088  0.00  0.00    +0.004 A 
ATOM     25  C   UNL     1      -6.918  -7.494  -0.791  0.00  0.00    +0.004 A 
ATOM     26  C   UNL     1      -5.649  -7.119  -0.393  0.00  0.00    +0.049 A 
ATOM     27  C   UNL     1      -5.063  -7.715   0.713  0.00  0.00    +0.163 A 
ATOM     28  O   UNL     1      -3.809  -7.341   1.088  0.00  0.00    -0.480 OA
ENDBRANCH  18  19
ENDBRANCH   4  18
TORSDOF 5
