REMARK  Name = ZINC40688426
REMARK  7 active torsions:
REMARK  status: ('A' for Active; 'I' for Inactive)
REMARK    1  A    between atoms: C_1  and  C_2
REMARK    2  A    between atoms: C_2  and  C_3
REMARK    3  A    between atoms: C_6  and  N_9
REMARK    4  A    between atoms: C_11  and  N_29
REMARK    5  A    between atoms: C_12  and  N_16
REMARK    6  A    between atoms: C_19  and  C_22
REMARK    7  A    between atoms: C_22  and  C_23
REMARK                            x       y       z     vdW  Elec       q    Type
REMARK                         _______ _______ _______ _____ _____    ______ ____
ROOT
ATOM      1  N   UNL     1       0.349  -4.079   4.997  0.00  0.00    -0.298 N 
ATOM      2  C   UNL     1       0.949  -3.228   5.918  0.00  0.00    +0.149 A 
ATOM      3  C   UNL     1       1.646  -3.745   7.012  0.00  0.00    +0.106 A 
ATOM      4  C   UNL     1       2.230  -2.846   7.906  0.00  0.00    +0.147 A 
ATOM      5  N   UNL     1       2.100  -1.540   7.685  0.00  0.00    -0.219 NA
ATOM      6  C   UNL     1       1.433  -1.093   6.640  0.00  0.00    +0.225 A 
ATOM      7  N   UNL     1       0.872  -1.907   5.769  0.00  0.00    -0.219 NA
ATOM      8  H   UNL     1       0.333  -5.035   5.158  0.00  0.00    +0.154 HD
ENDROOT
BRANCH   1  12
ATOM      9  C   UNL     1      -1.382  -2.522   1.544  0.00  0.00    -0.048 A 
ATOM     10  C   UNL     1      -0.355  -1.839   2.169  0.00  0.00    +0.005 A 
ATOM     11  C   UNL     1       0.221  -2.352   3.314  0.00  0.00    +0.023 A 
ATOM     12  C   UNL     1      -0.233  -3.556   3.838  0.00  0.00    +0.032 A 
ATOM     13  C   UNL     1      -1.265  -4.239   3.208  0.00  0.00    +0.023 A 
ATOM     14  C   UNL     1      -1.840  -3.717   2.067  0.00  0.00    +0.005 A 
BRANCH   9  16
ATOM     15  C   UNL     1      -3.179  -1.050   0.675  0.00  0.00    +0.009 C 
ATOM     16  C   UNL     1      -2.008  -1.959   0.294  0.00  0.00    +0.032 C 
ENDBRANCH   9  16
ENDBRANCH   1  12
BRANCH   4  17
ATOM     17  N   UNL     1       2.935  -3.308   9.011  0.00  0.00    -0.314 N 
ATOM     18  C   UNL     1       4.356  -3.665   8.897  0.00  0.00    +0.107 C 
ATOM     19  C   UNL     1       5.145  -2.897   9.962  0.00  0.00    +0.023 C 
ATOM     20  C   UNL     1       4.536  -3.172  11.339  0.00  0.00    -0.004 C 
ATOM     21  C   UNL     1       3.086  -2.683  11.365  0.00  0.00    +0.023 C 
ATOM     22  C   UNL     1       2.276  -3.443  10.317  0.00  0.00    +0.107 C 
BRANCH  20  23
ATOM     23  C   UNL     1       5.343  -2.434  12.409  0.00  0.00    +0.038 C 
BRANCH  23  24
ATOM     24  C   UNL     1       4.821  -2.801  13.774  0.00  0.00    -0.047 A 
ATOM     25  C   UNL     1       3.805  -2.060  14.349  0.00  0.00    +0.003 A 
ATOM     26  C   UNL     1       3.327  -2.397  15.601  0.00  0.00    +0.000 A 
ATOM     27  C   UNL     1       3.862  -3.476  16.278  0.00  0.00    +0.000 A 
ATOM     28  C   UNL     1       4.877  -4.219  15.703  0.00  0.00    +0.000 A 
ATOM     29  C   UNL     1       5.353  -3.884  14.449  0.00  0.00    +0.003 A 
ENDBRANCH  23  24
ENDBRANCH  20  23
ENDBRANCH   4  17
BRANCH   3  30
ATOM     30  N   UNL     1       1.757  -5.131   7.206  0.00  0.00    -0.353 N 
ATOM     31  H   UNL     1       1.410  -5.744   6.539  0.00  0.00    +0.143 HD
ATOM     32  H   UNL     1       2.181  -5.476   8.007  0.00  0.00    +0.143 HD
ENDBRANCH   3  30
TORSDOF 6
