REMARK  Name = ZINC39528112
REMARK  7 active torsions:
REMARK  status: ('A' for Active; 'I' for Inactive)
REMARK    1  A    between atoms: C_4  and  C_7
REMARK    2  A    between atoms: C_7  and  C_8
REMARK    3  A    between atoms: C_10  and  C_30
REMARK    4  A    between atoms: C_13  and  N_14
REMARK    5  A    between atoms: C_18  and  S_21
REMARK    6  A    between atoms: S_21  and  C_24
REMARK    7  A    between atoms: C_35  and  O_36
REMARK                            x       y       z     vdW  Elec       q    Type
REMARK                         _______ _______ _______ _____ _____    ______ ____
ROOT
ATOM      1  C   UNL     1       4.263  -1.019   1.315  0.00  0.00    -0.021 A 
ATOM      2  C   UNL     1       5.122  -0.133   1.930  0.00  0.00    +0.014 A 
ATOM      3  C   UNL     1       5.622  -0.417   3.200  0.00  0.00    -0.014 A 
ATOM      4  C   UNL     1       5.252  -1.596   3.845  0.00  0.00    +0.010 A 
ATOM      5  C   UNL     1       4.394  -2.479   3.226  0.00  0.00    +0.024 A 
ATOM      6  C   UNL     1       3.892  -2.192   1.962  0.00  0.00    +0.033 A 
ENDROOT
BRANCH   6   7
ATOM      7  N   UNL     1       3.018  -3.085   1.339  0.00  0.00    -0.325 N 
ATOM      8  C   UNL     1       3.529  -4.230   0.571  0.00  0.00    +0.120 C 
ATOM      9  C   UNL     1       2.862  -4.228  -0.808  0.00  0.00    +0.101 C 
ATOM     10  N   UNL     1       1.403  -4.193  -0.643  0.00  0.00    -0.292 NA
ATOM     11  C   UNL     1       0.971  -2.956   0.021  0.00  0.00    +0.220 C 
ATOM     12  C   UNL     1       1.561  -2.910   1.440  0.00  0.00    +0.147 C 
ATOM     13  H   UNL     1       0.935  -4.310  -1.530  0.00  0.00    +0.124 HD
BRANCH  11  14
ATOM     14  S   UNL     1      -0.840  -2.922   0.119  0.00  0.00    +0.014 S 
ATOM     15  O   UNL     1      -1.329  -4.171   0.588  0.00  0.00    -0.168 OA
ATOM     16  O   UNL     1      -1.275  -1.705   0.710  0.00  0.00    -0.168 OA
BRANCH  14  17
ATOM     17  C   UNL     1      -1.382  -2.828  -1.555  0.00  0.00    +0.090 A 
ATOM     18  C   UNL     1      -1.563  -1.595  -2.155  0.00  0.00    +0.027 A 
ATOM     19  C   UNL     1      -1.989  -1.522  -3.468  0.00  0.00    +0.002 A 
ATOM     20  C   UNL     1      -2.232  -2.680  -4.182  0.00  0.00    +0.000 A 
ATOM     21  C   UNL     1      -2.050  -3.912  -3.583  0.00  0.00    +0.002 A 
ATOM     22  C   UNL     1      -1.620  -3.986  -2.271  0.00  0.00    +0.027 A 
ENDBRANCH  14  17
ENDBRANCH  11  14
ENDBRANCH   6   7
BRANCH   3  23
ATOM     23  C   UNL     1       6.546   0.534   3.863  0.00  0.00    +0.024 A 
ATOM     24  C   UNL     1       7.657   1.023   3.179  0.00  0.00    +0.012 A 
ATOM     25  C   UNL     1       8.514   1.908   3.801  0.00  0.00    +0.001 A 
ATOM     26  C   UNL     1       8.274   2.312   5.103  0.00  0.00    +0.004 A 
ATOM     27  C   UNL     1       7.175   1.834   5.790  0.00  0.00    +0.046 A 
ATOM     28  C   UNL     1       6.303   0.950   5.176  0.00  0.00    +0.125 A 
BRANCH  28  29
ATOM     29  O   UNL     1       5.219   0.483   5.849  0.00  0.00    -0.506 OA
ATOM     30  H   UNL     1       5.385  -0.330   6.347  0.00  0.00    +0.292 HD
ENDBRANCH  28  29
ENDBRANCH   3  23
BRANCH   1  31
ATOM     31  C   UNL     1       3.721  -0.713  -0.058  0.00  0.00    +0.072 C 
BRANCH  31  35
ATOM     32  C   UNL     1       5.575   2.828  -1.565  0.00  0.00    +0.000 A 
ATOM     33  C   UNL     1       6.193   1.602  -1.725  0.00  0.00    +0.000 A 
ATOM     34  C   UNL     1       5.594   0.456  -1.238  0.00  0.00    +0.004 A 
ATOM     35  C   UNL     1       4.376   0.536  -0.589  0.00  0.00    -0.043 A 
ATOM     36  C   UNL     1       3.758   1.762  -0.427  0.00  0.00    +0.004 A 
ATOM     37  C   UNL     1       4.357   2.908  -0.917  0.00  0.00    +0.000 A 
ENDBRANCH  31  35
ENDBRANCH   1  31
TORSDOF 7
