REMARK  Name = ZINC46568761
REMARK  6 active torsions:
REMARK  status: ('A' for Active; 'I' for Inactive)
REMARK    1  A    between atoms: C_1  and  C_2
REMARK    2  A    between atoms: C_2  and  C_15
REMARK    3  A    between atoms: N_3  and  N_4
REMARK    4  A    between atoms: N_4  and  C_5
REMARK    5  A    between atoms: C_8  and  S_11
REMARK    6  A    between atoms: S_11  and  N_14
REMARK                            x       y       z     vdW  Elec       q    Type
REMARK                         _______ _______ _______ _____ _____    ______ ____
ROOT
ATOM      1  N   UNL     1       0.024   0.035   2.340  0.00  0.00    -0.238 N 
ATOM      2  H   UNL     1       0.011   1.005   2.345  0.00  0.00    +0.174 HD
ENDROOT
BRANCH   1   3
ATOM      3  C   UNL     1       0.045  -0.669   3.544  0.00  0.00    +0.048 A 
ATOM      4  C   UNL     1       0.069  -2.059   3.538  0.00  0.00    +0.026 A 
ATOM      5  C   UNL     1       0.091  -2.752   4.732  0.00  0.00    +0.030 A 
ATOM      6  C   UNL     1       0.087  -2.066   5.933  0.00  0.00    +0.105 A 
ATOM      7  C   UNL     1       0.062  -0.683   5.943  0.00  0.00    +0.030 A 
ATOM      8  C   UNL     1       0.047   0.017   4.753  0.00  0.00    +0.026 A 
BRANCH   6   9
ATOM      9  S   UNL     1       0.113  -2.955   7.454  0.00  0.00    +0.056 S 
ATOM     10  O   UNL     1      -0.446  -2.095   8.437  0.00  0.00    -0.153 OA
ATOM     11  O   UNL     1      -0.416  -4.244   7.180  0.00  0.00    -0.153 OA
BRANCH   9  12
ATOM     12  N   UNL     1       1.702  -3.174   7.865  0.00  0.00    -0.204 NA
ATOM     13  H   UNL     1       1.958  -3.230   8.799  0.00  0.00    +0.144 HD
ATOM     14  H   UNL     1       2.377  -3.246   7.173  0.00  0.00    +0.144 HD
ENDBRANCH   9  12
ENDBRANCH   6   9
ENDBRANCH   1   3
BRANCH   1  17
ATOM     15  C   UNL     1      -0.018   1.503   0.010  0.00  0.00    +0.068 C 
ATOM     16  C   UNL     1       0.002  -0.004   0.002  0.00  0.00    +0.065 C 
ATOM     17  N   UNL     1       0.022  -0.659   1.123  0.00  0.00    -0.187 NA
BRANCH  16  18
ATOM     18  C   UNL     1      -0.000  -0.734  -1.279  0.00  0.00    +0.017 A 
ATOM     19  C   UNL     1      -0.015  -0.032  -2.487  0.00  0.00    +0.013 A 
ATOM     20  C   UNL     1      -0.017  -0.721  -3.682  0.00  0.00    +0.022 A 
ATOM     21  C   UNL     1      -0.003  -2.106  -3.687  0.00  0.00    +0.061 A 
ATOM     22  C   UNL     1       0.012  -2.809  -2.494  0.00  0.00    +0.078 A 
ATOM     23  C   UNL     1       0.019  -2.132  -1.290  0.00  0.00    +0.070 A 
ATOM     24 CL   UNL     1       0.045  -3.014   0.205  0.00  0.00    -0.081 Cl
ATOM     25 CL   UNL     1       0.029  -4.545  -2.512  0.00  0.00    -0.081 Cl
ATOM     26 CL   UNL     1      -0.006  -2.963  -5.197  0.00  0.00    -0.082 Cl
ENDBRANCH  16  18
ENDBRANCH   1  17
TORSDOF 5
