REMARK  Name = ZINC24843184
REMARK  8 active torsions:
REMARK  status: ('A' for Active; 'I' for Inactive)
REMARK    1  A    between atoms: C_1  and  C_2
REMARK    2  A    between atoms: C_9  and  C_16
REMARK    3  A    between atoms: C_11  and  O_12
REMARK    4  A    between atoms: C_16  and  O_17
REMARK    5  A    between atoms: O_17  and  C_18
REMARK    6  A    between atoms: C_18  and  C_20
REMARK    7  A    between atoms: N_25  and  C_26
REMARK    8  A    between atoms: C_26  and  C_27
REMARK                            x       y       z     vdW  Elec       q    Type
REMARK                         _______ _______ _______ _____ _____    ______ ____
ROOT
ATOM      1  C   UNL     1      -0.617   1.507  -2.165  0.00  0.00    +0.109 C 
ATOM      2  C   UNL     1      -0.606  -0.000  -2.168  0.00  0.00    +0.214 C 
ATOM      3  O   UNL     1      -1.141  -0.609  -3.070  0.00  0.00    -0.276 OA
ATOM      4  N   UNL     1       0.000  -0.672  -1.169  0.00  0.00    -0.286 N 
ATOM      5  C   UNL     1      -0.071  -2.064  -1.121  0.00  0.00    +0.037 A 
ATOM      6  C   UNL     1      -0.140  -2.712   0.113  0.00  0.00    +0.024 A 
ATOM      7  C   UNL     1      -0.216  -4.072   0.175  0.00  0.00    +0.014 A 
ATOM      8  C   UNL     1      -0.211  -4.825  -1.005  0.00  0.00    +0.024 A 
ATOM      9  C   UNL     1      -0.286  -6.287  -0.967  0.00  0.00    +0.007 A 
ATOM     10  C   UNL     1      -0.279  -6.961  -2.147  0.00  0.00    +0.095 A 
ATOM     11  C   UNL     1      -0.200  -6.248  -3.361  0.00  0.00    +0.285 A 
ATOM     12  O   UNL     1      -0.132  -4.908  -3.389  0.00  0.00    -0.425 OA
ATOM     13  C   UNL     1      -0.136  -4.178  -2.253  0.00  0.00    +0.141 A 
ATOM     14  C   UNL     1      -0.065  -2.794  -2.300  0.00  0.00    +0.070 A 
ATOM     15  H   UNL     1       0.550  -0.122  -0.391  0.00  0.00    +0.155 HD
ENDROOT
BRANCH  11  16
ATOM     16  O   UNL     1      -0.194  -6.865  -4.412  0.00  0.00    -0.480 OA
ATOM     17  H   UNL     1      -0.133  -6.323  -5.367  0.00  0.00    +0.295 HD
ENDBRANCH  11  16
BRANCH   9  18
ATOM     18  C   UNL     1      -0.369  -7.024   0.344  0.00  0.00    +0.269 C 
BRANCH  18  19
ATOM     19  O   UNL     1      -0.431  -8.452   0.094  0.00  0.00    -0.455 OA
BRANCH  19  20
ATOM     20  C   UNL     1      -0.509  -9.260   1.171  0.00  0.00    +0.359 C 
ATOM     21  O   UNL     1      -0.524  -8.782   2.289  0.00  0.00    -0.243 OA
BRANCH  20  22
ATOM     22  C   UNL     1      -0.576 -10.718   0.993  0.00  0.00    +0.157 A 
ATOM     23  C   UNL     1      -0.655 -11.550   2.083  0.00  0.00    +0.083 A 
ATOM     24  S   UNL     1      -0.707 -13.146   1.280  0.00  0.00    -0.060 S 
ATOM     25  C   UNL     1      -0.618 -12.557  -0.405  0.00  0.00    +0.159 A 
ATOM     26  N   UNL     1      -0.565 -11.253  -0.230  0.00  0.00    -0.218 NA
ATOM     27  N   UNL     1      -0.613 -13.282  -1.585  0.00  0.00    -0.320 N 
ATOM     28  H   UNL     1      -0.554 -12.760  -2.551  0.00  0.00    +0.148 HD
BRANCH  27  29
ATOM     29  C   UNL     1      -0.687 -14.745  -1.546  0.00  0.00    +0.130 C 
BRANCH  29  30
ATOM     30  C   UNL     1      -0.665 -15.286  -2.953  0.00  0.00    -0.016 C 
ATOM     31  C   UNL     1       0.234 -16.174  -3.299  0.00  0.00    +0.005 C 
ENDBRANCH  29  30
ENDBRANCH  27  29
ENDBRANCH  20  22
ENDBRANCH  19  20
ENDBRANCH  18  19
ENDBRANCH   9  18
TORSDOF 7
