REMARK  Name = ZINC43590184
REMARK  7 active torsions:
REMARK  status: ('A' for Active; 'I' for Inactive)
REMARK    1  A    between atoms: C_1  and  C_2
REMARK    2  A    between atoms: C_5  and  C_8
REMARK    3  A    between atoms: C_9  and  C_10
REMARK    4  A    between atoms: C_9  and  C_12
REMARK    5  A    between atoms: N_14  and  N_15
REMARK    6  A    between atoms: N_15  and  C_16
REMARK    7  A    between atoms: C_21  and  N_22
REMARK                            x       y       z     vdW  Elec       q    Type
REMARK                         _______ _______ _______ _____ _____    ______ ____
ROOT
ATOM      1  C   UNL     1       0.558  -6.365   1.143  0.00  0.00    +0.270 C 
ATOM      2  O   UNL     1       0.567  -6.959   0.081  0.00  0.00    -0.268 OA
ATOM      3  N   UNL     1       0.611  -7.053   2.300  0.00  0.00    -0.232 N 
ATOM      4  H   UNL     1       0.604  -6.579   3.147  0.00  0.00    +0.173 HD
ENDROOT
BRANCH   1   6
ATOM      5  C   UNL     1       0.435  -4.197  -0.011  0.00  0.00    +0.032 C 
ATOM      6  C   UNL     1       0.489  -4.894   1.162  0.00  0.00    +0.115 C 
BRANCH   5  11
ATOM      7  C   UNL     1       0.786   1.537   0.036  0.00  0.00    +0.044 C 
ATOM      8  C   UNL     1       0.694   0.033   0.024  0.00  0.00    -0.050 A 
ATOM      9  C   UNL     1      -0.013  -0.605  -0.981  0.00  0.00    +0.004 A 
ATOM     10  C   UNL     1      -0.103  -1.980  -1.000  0.00  0.00    +0.008 A 
ATOM     11  C   UNL     1       0.525  -2.733   0.001  0.00  0.00    -0.024 A 
ATOM     12  C   UNL     1       1.239  -2.079   1.013  0.00  0.00    +0.008 A 
ATOM     13  C   UNL     1       1.323  -0.703   1.014  0.00  0.00    +0.004 A 
ENDBRANCH   5  11
BRANCH   6  14
ATOM     14  C   UNL     1       0.478  -4.195   2.412  0.00  0.00    +0.104 C 
ATOM     15  N   UNL     1       0.470  -3.640   3.403  0.00  0.00    -0.191 NA
ENDBRANCH   6  14
ENDBRANCH   1   6
BRANCH   3  16
ATOM     16  N   UNL     1       0.677  -8.452   2.282  0.00  0.00    -0.262 N 
ATOM     17  H   UNL     1       0.684  -8.926   1.435  0.00  0.00    +0.170 HD
BRANCH  16  18
ATOM     18  C   UNL     1       0.732  -9.165   3.482  0.00  0.00    +0.075 A 
ATOM     19  C   UNL     1       0.620  -8.496   4.694  0.00  0.00    +0.027 A 
ATOM     20  C   UNL     1       0.674  -9.204   5.879  0.00  0.00    +0.002 A 
ATOM     21  C   UNL     1       0.840 -10.577   5.859  0.00  0.00    +0.002 A 
ATOM     22  C   UNL     1       0.952 -11.245   4.654  0.00  0.00    +0.034 A 
ATOM     23  C   UNL     1       0.893 -10.544   3.465  0.00  0.00    +0.148 A 
BRANCH  23  24
ATOM     24  N   UNL     1       1.007 -11.262   2.175  0.00  0.00    +0.058 N 
ATOM     25  O   UNL     1       0.334 -10.918   1.231  0.00  0.00    -0.126 OA
ATOM     26  O   UNL     1       1.773 -12.191   2.066  0.00  0.00    -0.126 OA
ENDBRANCH  23  24
ENDBRANCH  16  18
ENDBRANCH   3  16
TORSDOF 6
