REMARK  Name = ZINC27238087
REMARK  15 active torsions:
REMARK  status: ('A' for Active; 'I' for Inactive)
REMARK    1  A    between atoms: C_1  and  C_2
REMARK    2  A    between atoms: C_2  and  O_3
REMARK    3  A    between atoms: O_3  and  C_4
REMARK    4  A    between atoms: C_7  and  C_10
REMARK    5  A    between atoms: C_10  and  C_11
REMARK    6  A    between atoms: C_10  and  C_16
REMARK    7  A    between atoms: C_10  and  O_35
REMARK    8  A    between atoms: C_11  and  C_12
REMARK    9  A    between atoms: C_12  and  C_13
REMARK   10  A    between atoms: C_13  and  C_14
REMARK   11  A    between atoms: C_13  and  C_15
REMARK   12  A    between atoms: C_16  and  C_18
REMARK   13  A    between atoms: C_16  and  O_26
REMARK   14  A    between atoms: C_18  and  N_19
REMARK   15  A    between atoms: O_26  and  C_27
REMARK                            x       y       z     vdW  Elec       q    Type
REMARK                         _______ _______ _______ _____ _____    ______ ____
ROOT
ATOM      1  C   UNL     1       2.580  -2.398   0.613  0.00  0.00    +0.193 C 
ENDROOT
BRANCH   1   2
ATOM      2  C   UNL     1       1.495  -1.547  -0.051  0.00  0.00    +0.126 C 
BRANCH   2   6
ATOM      3  C   UNL     1       1.777   2.476   1.364  0.00  0.00    +0.121 A 
ATOM      4  C   UNL     1       0.548   1.958   0.983  0.00  0.00    +0.046 A 
ATOM      5  C   UNL     1       0.459   0.657   0.525  0.00  0.00    +0.010 A 
ATOM      6  C   UNL     1       1.595  -0.128   0.448  0.00  0.00    -0.012 A 
ATOM      7  C   UNL     1       2.821   0.386   0.828  0.00  0.00    +0.010 A 
ATOM      8  C   UNL     1       2.914   1.685   1.286  0.00  0.00    +0.046 A 
BRANCH   3   9
ATOM      9  O   UNL     1       1.867   3.755   1.814  0.00  0.00    -0.492 OA
BRANCH   9  11
ATOM     10  C   UNL     1       3.067   5.672   2.666  0.00  0.00    +0.048 C 
ATOM     11  C   UNL     1       3.164   4.221   2.190  0.00  0.00    +0.225 C 
ENDBRANCH   9  11
ENDBRANCH   3   9
ENDBRANCH   2   6
BRANCH   2  12
ATOM     12  O   UNL     1       0.209  -2.077   0.275  0.00  0.00    -0.380 OA
ATOM     13  H   UNL     1      -0.050  -3.107  -0.011  0.00  0.00    +0.211 HD
ENDBRANCH   2  12
BRANCH   2  14
ATOM     14  C   UNL     1       1.687  -1.569  -1.568  0.00  0.00    +0.043 C 
BRANCH  14  15
ATOM     15  C   UNL     1       0.588  -0.737  -2.233  0.00  0.00    +0.006 C 
BRANCH  15  16
ATOM     16  C   UNL     1       0.780  -0.758  -3.751  0.00  0.00    -0.017 C 
ATOM     17  C   UNL     1       0.579  -2.183  -4.270  0.00  0.00    +0.007 C 
ATOM     18  C   UNL     1      -0.241   0.172  -4.407  0.00  0.00    +0.007 C 
ENDBRANCH  15  16
ENDBRANCH  14  15
ENDBRANCH   2  14
ENDBRANCH   1   2
BRANCH   1  19
ATOM     19  C   UNL     1       2.349  -2.431   2.125  0.00  0.00    -0.030 C 
BRANCH  19  20
ATOM     20  N   UNL     1       3.466  -3.127   2.776  0.00  0.00    +0.382 N 
ATOM     21  C   UNL     1       3.461  -4.569   2.440  0.00  0.00    -0.079 C 
ATOM     22  C   UNL     1       4.411  -5.369   3.288  0.00  0.00    -0.019 C 
ATOM     23  C   UNL     1       3.633  -5.933   4.495  0.00  0.00    -0.002 C 
ATOM     24  C   UNL     1       3.425  -4.930   5.534  0.00  0.00    -0.002 C 
ATOM     25  C   UNL     1       2.599  -3.730   5.027  0.00  0.00    -0.019 C 
ATOM     26  C   UNL     1       3.502  -2.832   4.226  0.00  0.00    -0.079 C 
ATOM     27  H   UNL     1       4.412  -2.736   2.373  0.00  0.00    -0.082 HD
ENDBRANCH  19  20
ENDBRANCH   1  19
BRANCH   1  28
ATOM     28  O   UNL     1       2.526  -3.728   0.093  0.00  0.00    -0.486 OA
BRANCH  28  29
ATOM     29  C   UNL     1       3.323  -4.007  -0.972  0.00  0.00    +0.139 A 
ATOM     30  C   UNL     1       4.195  -3.044  -1.458  0.00  0.00    +0.048 A 
ATOM     31  C   UNL     1       5.008  -3.331  -2.538  0.00  0.00    +0.023 A 
ATOM     32  C   UNL     1       4.945  -4.575  -3.141  0.00  0.00    +0.043 A 
ATOM     33  C   UNL     1       4.072  -5.536  -2.662  0.00  0.00    +0.043 A 
ATOM     34  C   UNL     1       3.261  -5.254  -1.578  0.00  0.00    +0.084 A 
ATOM     35 CL   UNL     1       2.166  -6.459  -0.977  0.00  0.00    -0.080 Cl
ATOM     36 CL   UNL     1       5.963  -4.931  -4.502  0.00  0.00    -0.083 Cl
ENDBRANCH  28  29
ENDBRANCH   1  28
TORSDOF 12
