REMARK  Name = ZINC09193820
REMARK  12 active torsions:
REMARK  status: ('A' for Active; 'I' for Inactive)
REMARK    1  A    between atoms: C_1  and  C_2
REMARK    2  A    between atoms: C_5  and  C_8
REMARK    3  A    between atoms: C_8  and  C_10
REMARK    4  A    between atoms: C_8  and  N_20
REMARK    5  A    between atoms: N_12  and  C_13
REMARK    6  A    between atoms: C_13  and  C_14
REMARK    7  A    between atoms: N_20  and  C_21
REMARK    8  A    between atoms: C_21  and  C_22
REMARK    9  A    between atoms: C_22  and  C_23
REMARK   10  A    between atoms: C_28  and  C_29
REMARK   11  A    between atoms: C_30  and  C_32
REMARK   12  A    between atoms: C_32  and  N_33
REMARK                            x       y       z     vdW  Elec       q    Type
REMARK                         _______ _______ _______ _____ _____    ______ ____
ROOT
ATOM      1  N   UNL     1       0.315  -5.249  -2.094  0.00  0.00    -0.284 N 
ATOM      2  C   UNL     1       0.824  -4.025  -1.850  0.00  0.00    +0.238 C 
ATOM      3  O   UNL     1       0.489  -3.081  -2.535  0.00  0.00    -0.274 OA
ENDROOT
BRANCH   1   4
ATOM      4  C   UNL     1      -0.642  -5.439  -3.187  0.00  0.00    +0.192 C 
BRANCH   4   9
ATOM      5  C   UNL     1      -5.213  -2.000  -2.368  0.00  0.00    +0.044 C 
ATOM      6  C   UNL     1      -4.021  -2.897  -2.582  0.00  0.00    -0.050 A 
ATOM      7  C   UNL     1      -3.558  -3.138  -3.862  0.00  0.00    +0.004 A 
ATOM      8  C   UNL     1      -2.464  -3.960  -4.058  0.00  0.00    +0.006 A 
ATOM      9  C   UNL     1      -1.834  -4.542  -2.974  0.00  0.00    -0.018 A 
ATOM     10  C   UNL     1      -2.301  -4.306  -1.694  0.00  0.00    +0.006 A 
ATOM     11  C   UNL     1      -3.391  -3.479  -1.498  0.00  0.00    +0.004 A 
ENDBRANCH   4   9
BRANCH   4  12
ATOM     12  C   UNL     1      -1.094  -6.877  -3.214  0.00  0.00    +0.238 C 
ATOM     13  O   UNL     1      -1.512  -7.400  -2.203  0.00  0.00    -0.273 OA
ATOM     14  N   UNL     1      -1.033  -7.581  -4.362  0.00  0.00    -0.311 N 
ATOM     15  H   UNL     1      -0.699  -7.162  -5.170  0.00  0.00    +0.149 HD
BRANCH  14  16
ATOM     16  C   UNL     1      -1.472  -8.978  -4.388  0.00  0.00    +0.135 C 
BRANCH  16  17
ATOM     17  C   UNL     1      -1.300  -9.540  -5.801  0.00  0.00    +0.135 C 
ATOM     18  C   UNL     1      -1.837 -10.987  -5.873  0.00  0.00    +0.035 C 
ATOM     19  C   UNL     1      -0.852 -11.707  -6.821  0.00  0.00    +0.031 C 
ATOM     20  C   UNL     1       0.165 -10.610  -7.209  0.00  0.00    +0.160 C 
ATOM     21  O   UNL     1       0.102  -9.648  -6.132  0.00  0.00    -0.375 OA
ENDBRANCH  16  17
ENDBRANCH  14  16
ENDBRANCH   4  12
ENDBRANCH   1   4
BRANCH   1  22
ATOM     22  C   UNL     1       0.718  -6.388  -1.267  0.00  0.00    +0.113 C 
BRANCH  22  23
ATOM     23  C   UNL     1      -0.141  -6.429  -0.002  0.00  0.00    +0.054 C 
BRANCH  23  24
ATOM     24  C   UNL     1       0.201  -7.660   0.798  0.00  0.00    -0.043 A 
ATOM     25  C   UNL     1      -0.552  -8.810   0.653  0.00  0.00    +0.004 A 
ATOM     26  C   UNL     1      -0.236  -9.940   1.383  0.00  0.00    +0.000 A 
ATOM     27  C   UNL     1       0.828  -9.918   2.266  0.00  0.00    +0.000 A 
ATOM     28  C   UNL     1       1.578  -8.766   2.414  0.00  0.00    +0.003 A 
ATOM     29  C   UNL     1       1.264  -7.637   1.681  0.00  0.00    -0.047 A 
ATOM     30  C   UNL     1       2.082  -6.382   1.843  0.00  0.00    +0.044 C 
ENDBRANCH  23  24
ENDBRANCH  22  23
ENDBRANCH   1  22
BRANCH   2  31
ATOM     31  C   UNL     1       1.808  -3.829  -0.726  0.00  0.00    +0.241 C 
BRANCH  31  32
ATOM     32  N   UNL     1       2.208  -2.421  -0.668  0.00  0.00    -0.235 N 
ATOM     33  C   UNL     1       1.601  -1.422   0.057  0.00  0.00    +0.090 A 
ATOM     34  C   UNL     1       0.504  -1.377   0.910  0.00  0.00    +0.029 A 
ATOM     35  C   UNL     1       0.144  -0.195   1.493  0.00  0.00    +0.002 A 
ATOM     36  C   UNL     1       0.866   0.965   1.241  0.00  0.00    +0.002 A 
ATOM     37  C   UNL     1       1.946   0.948   0.408  0.00  0.00    +0.032 A 
ATOM     38  C   UNL     1       2.336  -0.252  -0.202  0.00  0.00    +0.113 A 
ATOM     39  N   UNL     1       3.333  -0.573  -1.051  0.00  0.00    -0.129 NA
ATOM     40  N   UNL     1       3.286  -1.826  -1.340  0.00  0.00    -0.064 NA
ENDBRANCH  31  32
ENDBRANCH   2  31
TORSDOF 10
