REMARK  Name = ZINC02353828
REMARK  6 active torsions:
REMARK  status: ('A' for Active; 'I' for Inactive)
REMARK    1  A    between atoms: C_1  and  O_2
REMARK    2  A    between atoms: O_2  and  C_3
REMARK    3  A    between atoms: C_5  and  C_11
REMARK    4  A    between atoms: C_8  and  O_9
REMARK    5  A    between atoms: N_12  and  N_13
REMARK    6  A    between atoms: C_14  and  C_16
REMARK                            x       y       z     vdW  Elec       q    Type
REMARK                         _______ _______ _______ _____ _____    ______ ____
ROOT
ATOM      1  N   UNL     1      -2.222   8.132   0.364  0.00  0.00    -0.204 N 
ATOM      2  C   UNL     1      -1.210   7.309   0.025  0.00  0.00    +0.276 C 
ATOM      3  O   UNL     1      -0.256   7.742  -0.587  0.00  0.00    -0.270 OA
ATOM      4  H   UNL     1      -2.985   7.786   0.854  0.00  0.00    +0.177 HD
ENDROOT
BRANCH   2   5
ATOM      5  C   UNL     1      -1.263   5.852   0.407  0.00  0.00    +0.297 C 
ATOM      6  C   UNL     1      -2.424   5.167  -0.326  0.00  0.00    +0.283 C 
ATOM      7  O   UNL     1      -2.437   3.785   0.048  0.00  0.00    -0.484 OA
ATOM      8  C   UNL     1      -1.241   3.136   0.030  0.00  0.00    +0.162 A 
ATOM      9  C   UNL     1      -1.219   1.749   0.017  0.00  0.00    +0.049 A 
ATOM     10  C   UNL     1      -0.013   1.076   0.008  0.00  0.00    +0.004 A 
ATOM     11  C   UNL     1       1.176   1.782   0.000  0.00  0.00    +0.004 A 
ATOM     12  C   UNL     1       1.161   3.164   0.007  0.00  0.00    +0.049 A 
ATOM     13  C   UNL     1      -0.046   3.846   0.020  0.00  0.00    +0.163 A 
ATOM     14  O   UNL     1      -0.045   5.207   0.019  0.00  0.00    -0.472 OA
ENDBRANCH   2   5
BRANCH   1  16
ATOM     15  C   UNL     1      -3.148  10.279   0.336  0.00  0.00    +0.138 C 
ATOM     16  N   UNL     1      -2.173   9.486   0.009  0.00  0.00    -0.188 NA
BRANCH  15  19
ATOM     17  C   UNL     1      -4.091  13.894  -0.040  0.00  0.00    +0.163 A 
ATOM     18  C   UNL     1      -4.145  12.558   0.313  0.00  0.00    +0.059 A 
ATOM     19  C   UNL     1      -3.096  11.704  -0.038  0.00  0.00    -0.001 A 
ATOM     20  C   UNL     1      -1.996  12.205  -0.738  0.00  0.00    +0.028 A 
ATOM     21  C   UNL     1      -1.952  13.538  -1.092  0.00  0.00    +0.063 A 
ATOM     22  C   UNL     1      -2.994  14.386  -0.743  0.00  0.00    +0.173 A 
ATOM     23 BR   UNL     1      -0.466  14.212  -2.047  0.00  0.00    -0.046 Br
BRANCH  17  25
ATOM     24  C   UNL     1      -6.204  14.156   1.020  0.00  0.00    +0.277 C 
ATOM     25  O   UNL     1      -5.111  14.728   0.300  0.00  0.00    -0.491 OA
ENDBRANCH  17  25
BRANCH  22  26
ATOM     26  O   UNL     1      -2.945  15.699  -1.089  0.00  0.00    -0.503 OA
ATOM     27  H   UNL     1      -2.524  16.265  -0.427  0.00  0.00    +0.292 HD
ENDBRANCH  22  26
ENDBRANCH  15  19
ENDBRANCH   1  16
TORSDOF 5
