REMARK  Name = ZINC03259925
REMARK  9 active torsions:
REMARK  status: ('A' for Active; 'I' for Inactive)
REMARK    1  A    between atoms: C_1  and  C_2
REMARK    2  A    between atoms: C_2  and  C_3
REMARK    3  A    between atoms: C_2  and  C_4
REMARK    4  A    between atoms: C_4  and  C_6
REMARK    5  A    between atoms: C_4  and  N_18
REMARK    6  A    between atoms: N_8  and  C_9
REMARK    7  A    between atoms: C_9  and  C_10
REMARK    8  A    between atoms: C_19  and  C_21
REMARK    9  A    between atoms: C_25  and  N_27
REMARK                            x       y       z     vdW  Elec       q    Type
REMARK                         _______ _______ _______ _____ _____    ______ ____
ROOT
ATOM      1  C   UNL     1      -1.387  -0.633  -0.055  0.00  0.00    +0.162 C 
ENDROOT
BRANCH   1   2
ATOM      2  C   UNL     1      -2.074  -0.231  -1.335  0.00  0.00    +0.234 C 
ATOM      3  O   UNL     1      -2.510  -1.081  -2.082  0.00  0.00    -0.274 OA
ATOM      4  N   UNL     1      -2.204   1.073  -1.649  0.00  0.00    -0.310 N 
ATOM      5  H   UNL     1      -1.924   1.754  -1.018  0.00  0.00    +0.149 HD
BRANCH   4   6
ATOM      6  C   UNL     1      -2.768   1.462  -2.944  0.00  0.00    +0.141 C 
BRANCH   6   7
ATOM      7  C   UNL     1      -2.804   2.965  -3.045  0.00  0.00    -0.012 A 
ATOM      8  C   UNL     1      -3.982   3.647  -2.804  0.00  0.00    +0.008 A 
ATOM      9  C   UNL     1      -4.015   5.025  -2.897  0.00  0.00    +0.020 A 
ATOM     10  C   UNL     1      -2.869   5.724  -3.231  0.00  0.00    +0.042 A 
ATOM     11  C   UNL     1      -1.690   5.043  -3.472  0.00  0.00    +0.040 A 
ATOM     12  C   UNL     1      -1.656   3.663  -3.374  0.00  0.00    +0.047 A 
ATOM     13 CL   UNL     1      -0.174   2.808  -3.671  0.00  0.00    -0.083 Cl
ATOM     14 CL   UNL     1      -2.911   7.456  -3.348  0.00  0.00    -0.083 Cl
ENDBRANCH   6   7
ENDBRANCH   4   6
ENDBRANCH   1   2
BRANCH   1  15
ATOM     15  N   UNL     1      -1.708  -2.029   0.254  0.00  0.00    -0.300 N 
ATOM     16  C   UNL     1      -1.655  -2.466   1.527  0.00  0.00    +0.245 C 
ATOM     17  O   UNL     1      -1.343  -1.703   2.420  0.00  0.00    -0.270 OA
ATOM     18  H   UNL     1      -1.957  -2.638  -0.459  0.00  0.00    +0.150 HD
BRANCH  16  19
ATOM     19  C   UNL     1      -1.979  -3.874   1.839  0.00  0.00    +0.039 A 
ATOM     20  C   UNL     1      -2.333  -4.755   0.815  0.00  0.00    +0.014 A 
ATOM     21  C   UNL     1      -2.633  -6.068   1.111  0.00  0.00    +0.023 A 
ATOM     22  C   UNL     1      -2.584  -6.513   2.422  0.00  0.00    +0.071 A 
ATOM     23  C   UNL     1      -2.234  -5.644   3.442  0.00  0.00    +0.145 A 
ATOM     24  C   UNL     1      -1.926  -4.331   3.157  0.00  0.00    +0.047 A 
ATOM     25 CL   UNL     1      -2.964  -8.167   2.788  0.00  0.00    -0.081 Cl
BRANCH  23  26
ATOM     26  N   UNL     1      -2.185  -6.128   4.840  0.00  0.00    +0.058 N 
ATOM     27  O   UNL     1      -1.880  -5.370   5.731  0.00  0.00    -0.126 OA
ATOM     28  O   UNL     1      -2.450  -7.280   5.091  0.00  0.00    -0.126 OA
ENDBRANCH  23  26
ENDBRANCH  16  19
ENDBRANCH   1  15
BRANCH   1  30
ATOM     29  C   UNL     1       0.819  -0.808   1.105  0.00  0.00    +0.009 C 
ATOM     30  C   UNL     1       0.126  -0.481  -0.219  0.00  0.00    +0.012 C 
ATOM     31  C   UNL     1       0.620  -1.442  -1.303  0.00  0.00    +0.009 C 
ENDBRANCH   1  30
TORSDOF 7
