REMARK  Name = ZINC06008019
REMARK  8 active torsions:
REMARK  status: ('A' for Active; 'I' for Inactive)
REMARK    1  A    between atoms: C_1  and  C_2
REMARK    2  A    between atoms: C_8  and  C_9
REMARK    3  A    between atoms: C_8  and  N_57
REMARK    4  A    between atoms: C_9  and  C_11
REMARK    5  A    between atoms: C_9  and  O_25
REMARK    6  A    between atoms: C_11  and  O_12
REMARK    7  A    between atoms: O_12  and  C_13
REMARK    8  A    between atoms: C_16  and  C_19
REMARK                            x       y       z     vdW  Elec       q    Type
REMARK                         _______ _______ _______ _____ _____    ______ ____
ROOT
ATOM      1  C   UNL     1       2.518  -2.668  -0.027  0.00  0.00    +0.258 C 
ENDROOT
BRANCH   1   2
ATOM      2  C   UNL     1       2.343  -4.188  -0.021  0.00  0.00    +0.135 C 
BRANCH   2   3
ATOM      3  O   UNL     1       1.757  -4.595   1.218  0.00  0.00    -0.390 OA
ATOM      4  H   UNL     1       2.284  -4.365   1.996  0.00  0.00    +0.210 HD
ENDBRANCH   2   3
BRANCH   2   5
ATOM      5  C   UNL     1       3.708  -4.859  -0.184  0.00  0.00    -0.044 C 
BRANCH   5  12
ATOM      6  C   UNL     1       2.158  -8.765  -2.742  0.00  0.00    +0.005 C 
ATOM      7  C   UNL     1       2.699  -8.279  -1.395  0.00  0.00    -0.031 C 
ATOM      8  C   UNL     1       3.988  -9.035  -1.060  0.00  0.00    -0.001 C 
ATOM      9  C   UNL     1       4.554  -8.502   0.259  0.00  0.00    -0.018 C 
ATOM     10  C   UNL     1       4.800  -6.997   0.131  0.00  0.00    -0.079 C 
ATOM     11  C   UNL     1       2.999  -6.781  -1.476  0.00  0.00    -0.076 C 
ATOM     12  N   UNL     1       3.518  -6.325  -0.168  0.00  0.00    +0.382 N 
ATOM     13  H   UNL     1       2.838  -6.565   0.562  0.00  0.00    -0.082 HD
ENDBRANCH   5  12
ENDBRANCH   2   5
ENDBRANCH   1   2
BRANCH   1  14
ATOM     14  O   UNL     1       1.235  -2.040   0.009  0.00  0.00    -0.489 OA
BRANCH  14  15
ATOM     15  C   UNL     1       1.213  -0.681   0.008  0.00  0.00    +0.121 A 
ATOM     16  C   UNL     1       0.002  -0.006   0.042  0.00  0.00    +0.046 A 
ATOM     17  C   UNL     1      -0.018   1.375   0.042  0.00  0.00    +0.007 A 
ATOM     18  C   UNL     1       1.168   2.085   0.008  0.00  0.00    -0.044 A 
ATOM     19  C   UNL     1       2.376   1.414  -0.026  0.00  0.00    +0.007 A 
ATOM     20  C   UNL     1       2.402   0.033  -0.026  0.00  0.00    +0.046 A 
BRANCH  18  21
ATOM     21  C   UNL     1       1.143   3.591   0.008  0.00  0.00    +0.019 C 
ATOM     22  C   UNL     1       1.821   4.113  -1.261  0.00  0.00    +0.008 C 
ATOM     23  C   UNL     1       1.795   5.642  -1.261  0.00  0.00    +0.001 C 
ATOM     24  C   UNL     1       2.543   6.165  -0.033  0.00  0.00    +0.000 C 
ATOM     25  C   UNL     1       1.866   5.644   1.236  0.00  0.00    +0.001 C 
ATOM     26  C   UNL     1       1.891   4.114   1.236  0.00  0.00    +0.008 C 
ENDBRANCH  18  21
ENDBRANCH  14  15
ENDBRANCH   1  14
TORSDOF 7
