REMARK  Name = ZINC33812213
REMARK  9 active torsions:
REMARK  status: ('A' for Active; 'I' for Inactive)
REMARK    1  A    between atoms: C_1  and  C_2
REMARK    2  A    between atoms: C_3  and  C_22
REMARK    3  A    between atoms: C_4  and  N_12
REMARK    4  A    between atoms: N_5  and  C_11
REMARK    5  A    between atoms: C_8  and  C_9
REMARK    6  A    between atoms: C_14  and  C_21
REMARK    7  A    between atoms: C_17  and  C_20
REMARK    8  A    between atoms: N_26  and  C_30
REMARK    9  A    between atoms: C_30  and  C_31
REMARK                            x       y       z     vdW  Elec       q    Type
REMARK                         _______ _______ _______ _____ _____    ______ ____
ROOT
ATOM      1  C   UNL     1       0.002   1.529   0.069  0.00  0.00    +0.046 C 
ATOM      2  C   UNL     1       0.015   0.023   0.031  0.00  0.00    -0.017 A 
ATOM      3  C   UNL     1      -1.185  -0.704   0.105  0.00  0.00    +0.019 A 
ATOM      4  C   UNL     1      -1.146  -2.107   0.067  0.00  0.00    +0.111 A 
ATOM      5  N   UNL     1       0.039  -2.762  -0.040  0.00  0.00    -0.298 N 
ATOM      6  C   UNL     1       1.201  -2.089  -0.113  0.00  0.00    +0.270 A 
ATOM      7  O   UNL     1       2.250  -2.703  -0.208  0.00  0.00    -0.266 OA
ATOM      8  C   UNL     1       1.216  -0.671  -0.084  0.00  0.00    +0.120 A 
ATOM      9  C   UNL     1       0.051  -4.226  -0.077  0.00  0.00    +0.154 C 
ENDROOT
BRANCH   4  10
ATOM     10  N   UNL     1      -2.308  -2.819   0.138  0.00  0.00    -0.315 N 
ATOM     11  C   UNL     1      -2.908  -3.145   1.439  0.00  0.00    +0.109 C 
ATOM     12  C   UNL     1      -4.364  -2.668   1.444  0.00  0.00    +0.004 C 
ATOM     13  C   UNL     1      -5.098  -3.272   0.245  0.00  0.00    +0.009 C 
ATOM     14  C   UNL     1      -4.439  -2.796  -1.052  0.00  0.00    +0.004 C 
ATOM     15  C   UNL     1      -2.987  -3.269  -1.085  0.00  0.00    +0.109 C 
ATOM     16  C   UNL     1      -5.194  -3.373  -2.250  0.00  0.00    +0.009 C 
ATOM     17  C   UNL     1      -5.043  -3.118   2.739  0.00  0.00    +0.009 C 
ENDBRANCH   4  10
BRANCH   3  18
ATOM     18  C   UNL     1      -2.466  -0.004   0.221  0.00  0.00    +0.032 C 
ATOM     19  C   UNL     1      -2.920   0.761  -0.809  0.00  0.00    +0.077 C 
ATOM     20  C   UNL     1      -4.066   1.611  -0.873  0.00  0.00    +0.258 C 
ATOM     21  O   UNL     1      -4.809   1.736   0.084  0.00  0.00    -0.269 OA
ATOM     22  N   UNL     1      -4.295   2.258  -2.003  0.00  0.00    -0.253 N 
ATOM     23  C   UNL     1      -3.470   2.119  -3.064  0.00  0.00    +0.121 C 
ATOM     24  S   UNL     1      -3.574   2.854  -4.607  0.00  0.00    -0.027 S 
ATOM     25  S   UNL     1      -2.239   0.982  -2.447  0.00  0.00    -0.061 S 
BRANCH  22  26
ATOM     26  C   UNL     1      -5.462   3.138  -2.106  0.00  0.00    +0.146 C 
BRANCH  26  27
ATOM     27  C   UNL     1      -5.074   4.552  -1.668  0.00  0.00    +0.136 C 
ATOM     28  C   UNL     1      -6.324   5.458  -1.657  0.00  0.00    +0.035 C 
ATOM     29  C   UNL     1      -5.765   6.796  -2.213  0.00  0.00    +0.031 C 
ATOM     30  C   UNL     1      -4.707   6.278  -3.219  0.00  0.00    +0.160 C 
ATOM     31  O   UNL     1      -4.140   5.110  -2.600  0.00  0.00    -0.375 OA
ENDBRANCH  26  27
ENDBRANCH  22  26
ENDBRANCH   3  18
BRANCH   8  32
ATOM     32  C   UNL     1       2.456   0.040  -0.167  0.00  0.00    +0.105 C 
ATOM     33  N   UNL     1       3.440   0.604  -0.233  0.00  0.00    -0.191 NA
ENDBRANCH   8  32
TORSDOF 5
