REMARK  Name = ZINC38741877
REMARK  5 active torsions:
REMARK  status: ('A' for Active; 'I' for Inactive)
REMARK    1  A    between atoms: C_1  and  C_2
REMARK    2  A    between atoms: C_2  and  O_3
REMARK    3  A    between atoms: O_3  and  C_4
REMARK    4  A    between atoms: C_7  and  N_10
REMARK    5  A    between atoms: C_21  and  C_24
REMARK                            x       y       z     vdW  Elec       q    Type
REMARK                         _______ _______ _______ _____ _____    ______ ____
ROOT
ATOM      1  N   UNL     1       1.102  -5.936  -1.834  0.00  0.00    -0.301 N 
ATOM      2  C   UNL     1       1.650  -6.453  -2.997  0.00  0.00    +0.130 C 
ATOM      3  N   UNL     1       2.192  -5.771  -3.972  0.00  0.00    -0.165 NA
ATOM      4  N   UNL     1       2.578  -6.580  -5.068  0.00  0.00    -0.187 N 
ATOM      5  C   UNL     1       1.790  -7.787  -4.927  0.00  0.00    +0.119 C 
ATOM      6  C   UNL     1       1.742  -7.892  -3.372  0.00  0.00    +0.143 C 
ATOM      7  C   UNL     1       0.615  -8.829  -3.080  0.00  0.00    +0.146 C 
ATOM      8  O   UNL     1      -0.352  -8.511  -2.430  0.00  0.00    -0.297 OA
ATOM      9  C   UNL     1       0.793 -10.223  -3.677  0.00  0.00    +0.086 C 
ATOM     10  C   UNL     1       1.148 -10.142  -5.159  0.00  0.00    +0.064 C 
ATOM     11  C   UNL     1       2.268  -9.123  -5.426  0.00  0.00    +0.037 C 
ATOM     12  C   UNL     1       3.497  -6.285  -6.050  0.00  0.00    +0.217 A 
ATOM     13  N   UNL     1       4.217  -5.125  -6.128  0.00  0.00    -0.325 N 
ATOM     14  H   UNL     1       4.172  -4.377  -5.513  0.00  0.00    +0.169 HD
ATOM     15  C   UNL     1       5.023  -5.219  -7.251  0.00  0.00    +0.067 A 
ATOM     16  C   UNL     1       5.954  -4.375  -7.839  0.00  0.00    +0.028 A 
ATOM     17  C   UNL     1       6.609  -4.769  -8.987  0.00  0.00    +0.002 A 
ATOM     18  C   UNL     1       6.343  -6.005  -9.559  0.00  0.00    +0.002 A 
ATOM     19  C   UNL     1       5.423  -6.855  -8.989  0.00  0.00    +0.030 A 
ATOM     20  C   UNL     1       4.750  -6.471  -7.825  0.00  0.00    +0.091 A 
ATOM     21  N   UNL     1       3.816  -7.075  -7.045  0.00  0.00    -0.213 NA
ATOM     22  H   UNL     1       0.797  -6.535  -1.134  0.00  0.00    +0.153 HD
ENDROOT
BRANCH   1  26
ATOM     23  C   UNL     1       0.759  -1.811  -1.344  0.00  0.00    +0.121 A 
ATOM     24  C   UNL     1       0.797  -2.357  -2.619  0.00  0.00    +0.047 A 
ATOM     25  C   UNL     1       0.910  -3.724  -2.782  0.00  0.00    +0.027 A 
ATOM     26  C   UNL     1       0.987  -4.552  -1.670  0.00  0.00    +0.032 A 
ATOM     27  C   UNL     1       0.949  -4.004  -0.394  0.00  0.00    +0.027 A 
ATOM     28  C   UNL     1       0.841  -2.637  -0.232  0.00  0.00    +0.047 A 
BRANCH  23  29
ATOM     29  O   UNL     1       0.647  -0.466  -1.184  0.00  0.00    -0.492 OA
BRANCH  29  31
ATOM     30  C   UNL     1       0.447   1.802  -1.995  0.00  0.00    +0.048 C 
ATOM     31  C   UNL     1       0.567   0.325  -2.372  0.00  0.00    +0.225 C 
ENDBRANCH  29  31
ENDBRANCH  23  29
ENDBRANCH   1  26
BRANCH  10  32
ATOM     32  C   UNL     1       1.601 -11.501  -5.628  0.00  0.00    +0.108 A 
ATOM     33  C   UNL     1       1.027 -12.229  -6.603  0.00  0.00    +0.045 A 
ATOM     34  C   UNL     1       1.770 -13.426  -6.711  0.00  0.00    +0.041 A 
ATOM     35  C   UNL     1       2.754 -13.359  -5.796  0.00  0.00    +0.195 A 
ATOM     36  O   UNL     1       2.650 -12.188  -5.147  0.00  0.00    -0.468 OA
ENDBRANCH  10  32
TORSDOF 4
