REMARK  Name = ZINC09947371
REMARK  8 active torsions:
REMARK  status: ('A' for Active; 'I' for Inactive)
REMARK    1  A    between atoms: C_1  and  C_2
REMARK    2  A    between atoms: C_7  and  N_12
REMARK    3  A    between atoms: C_9  and  C_11
REMARK    4  A    between atoms: C_13  and  C_15
REMARK    5  A    between atoms: C_15  and  S_16
REMARK    6  A    between atoms: S_16  and  C_17
REMARK    7  A    between atoms: N_30  and  C_31
REMARK    8  A    between atoms: C_31  and  C_32
REMARK                            x       y       z     vdW  Elec       q    Type
REMARK                         _______ _______ _______ _____ _____    ______ ____
ROOT
ATOM      1  C   UNL     1       2.217   6.828  -3.655  0.00  0.00    +0.198 A 
ATOM      2  N   UNL     1       1.540   7.268  -2.622  0.00  0.00    -0.120 NA
ATOM      3  N   UNL     1       1.673   6.335  -1.586  0.00  0.00    -0.109 NA
ATOM      4  C   UNL     1       2.429   5.350  -2.018  0.00  0.00    +0.240 A 
ATOM      5  N   UNL     1       2.784   5.631  -3.309  0.00  0.00    -0.256 N 
ATOM      6  C   UNL     1       3.593   4.753  -4.028  0.00  0.00    +0.064 A 
ATOM      7  C   UNL     1       3.959   5.028  -5.337  0.00  0.00    +0.027 A 
ATOM      8  C   UNL     1       4.762   4.141  -6.027  0.00  0.00    +0.002 A 
ATOM      9  C   UNL     1       5.207   2.976  -5.422  0.00  0.00    +0.001 A 
ATOM     10  C   UNL     1       4.853   2.686  -4.121  0.00  0.00    +0.015 A 
ATOM     11  C   UNL     1       4.043   3.574  -3.415  0.00  0.00    +0.064 A 
ATOM     12  C   UNL     1       3.647   3.304  -2.020  0.00  0.00    +0.263 A 
ATOM     13  O   UNL     1       4.022   2.295  -1.455  0.00  0.00    -0.267 OA
ATOM     14  N   UNL     1       2.858   4.194  -1.384  0.00  0.00    -0.272 N 
ENDROOT
BRANCH   1  15
ATOM     15  S   UNL     1       2.369   7.635  -5.213  0.00  0.00    -0.076 S 
BRANCH  15  16
ATOM     16  C   UNL     1       1.395   9.152  -5.019  0.00  0.00    +0.173 C 
BRANCH  16  18
ATOM     17  N   UNL     1       0.785  11.120  -6.387  0.00  0.00    -0.312 N 
ATOM     18  C   UNL     1       1.442   9.947  -6.298  0.00  0.00    +0.224 C 
ATOM     19  O   UNL     1       2.071   9.530  -7.248  0.00  0.00    -0.275 OA
ATOM     20  H   UNL     1       0.282  11.454  -5.628  0.00  0.00    +0.149 HD
BRANCH  17  26
ATOM     21  C   UNL     1       0.384  15.656  -8.314  0.00  0.00    +0.008 C 
ATOM     22  C   UNL     1       0.631  14.178  -8.622  0.00  0.00    -0.009 C 
ATOM     23  C   UNL     1      -0.449  13.668  -9.579  0.00  0.00    +0.003 C 
ATOM     24  C   UNL     1      -0.202  12.191  -9.887  0.00  0.00    +0.002 C 
ATOM     25  C   UNL     1      -0.250  11.384  -8.588  0.00  0.00    +0.022 C 
ATOM     26  C   UNL     1       0.831  11.893  -7.631  0.00  0.00    +0.076 C 
ATOM     27  C   UNL     1       0.583  13.371  -7.323  0.00  0.00    +0.009 C 
ATOM     28  C   UNL     1      -0.792  13.533  -6.672  0.00  0.00    +0.009 C 
ENDBRANCH  17  26
ENDBRANCH  16  18
ENDBRANCH  15  16
ENDBRANCH   1  15
BRANCH  14  29
ATOM     29  C   UNL     1       2.451   3.937  -0.001  0.00  0.00    +0.163 C 
BRANCH  29  30
ATOM     30  C   UNL     1       1.156   3.165   0.008  0.00  0.00    -0.028 A 
ATOM     31  C   UNL     1       1.175   1.783   0.000  0.00  0.00    +0.005 A 
ATOM     32  C   UNL     1      -0.013   1.076   0.008  0.00  0.00    +0.000 A 
ATOM     33  C   UNL     1      -1.219   1.751   0.017  0.00  0.00    +0.000 A 
ATOM     34  C   UNL     1      -1.238   3.133   0.030  0.00  0.00    +0.000 A 
ATOM     35  C   UNL     1      -0.050   3.840   0.023  0.00  0.00    +0.005 A 
ENDBRANCH  29  30
ENDBRANCH  14  29
TORSDOF 6
