REMARK  Name = ZINC53231734
REMARK  8 active torsions:
REMARK  status: ('A' for Active; 'I' for Inactive)
REMARK    1  A    between atoms: C_3  and  C_8
REMARK    2  A    between atoms: C_8  and  N_9
REMARK    3  A    between atoms: N_9  and  C_10
REMARK    4  A    between atoms: N_9  and  C_24
REMARK    5  A    between atoms: C_10  and  C_11
REMARK    6  A    between atoms: N_13  and  C_14
REMARK    7  A    between atoms: C_17  and  S_20
REMARK    8  A    between atoms: S_20  and  N_23
REMARK                            x       y       z     vdW  Elec       q    Type
REMARK                         _______ _______ _______ _____ _____    ______ ____
ROOT
ATOM      1  C   UNL     1       5.029   4.587   0.719  0.00  0.00    +0.201 C 
ATOM      2  O   UNL     1       3.902   4.850   0.358  0.00  0.00    -0.278 OA
ATOM      3  N   UNL     1       6.023   5.478   0.527  0.00  0.00    -0.287 N 
ATOM      4  H   UNL     1       6.910   5.297   0.876  0.00  0.00    +0.155 HD
ENDROOT
BRANCH   3   5
ATOM      5  C   UNL     1       5.775   6.662  -0.175  0.00  0.00    +0.033 A 
ATOM      6  C   UNL     1       4.548   7.301  -0.051  0.00  0.00    +0.025 A 
ATOM      7  C   UNL     1       4.306   8.470  -0.746  0.00  0.00    +0.030 A 
ATOM      8  C   UNL     1       5.285   9.004  -1.564  0.00  0.00    +0.105 A 
ATOM      9  C   UNL     1       6.507   8.371  -1.690  0.00  0.00    +0.030 A 
ATOM     10  C   UNL     1       6.757   7.205  -0.993  0.00  0.00    +0.025 A 
BRANCH   8  11
ATOM     11  S   UNL     1       4.972  10.496  -2.448  0.00  0.00    +0.056 S 
ATOM     12  O   UNL     1       5.849  10.496  -3.567  0.00  0.00    -0.153 OA
ATOM     13  O   UNL     1       3.562  10.599  -2.586  0.00  0.00    -0.153 OA
BRANCH  11  14
ATOM     14  N   UNL     1       5.445  11.750  -1.476  0.00  0.00    -0.204 NA
ATOM     15  H   UNL     1       5.770  12.574  -1.871  0.00  0.00    +0.144 HD
ATOM     16  H   UNL     1       5.397  11.661  -0.511  0.00  0.00    +0.144 HD
ENDBRANCH  11  14
ENDBRANCH   8  11
ENDBRANCH   3   5
BRANCH   1  17
ATOM     17  C   UNL     1       5.320   3.265   1.381  0.00  0.00    +0.020 C 
BRANCH  17  18
ATOM     18  N   UNL     1       4.118   2.422   1.339  0.00  0.00    +0.390 N 
ATOM     19  H   UNL     1       3.337   2.929   1.729  0.00  0.00    -0.080 HD
BRANCH  18  20
ATOM     20  C   UNL     1       4.349   1.200   2.122  0.00  0.00    -0.068 C 
ATOM     21  C   UNL     1       3.250   0.767   3.095  0.00  0.00    -0.017 C 
ATOM     22  C   UNL     1       4.557   1.357   3.630  0.00  0.00    -0.017 C 
ENDBRANCH  18  20
BRANCH  18  23
ATOM     23  C   UNL     1       3.821   2.061  -0.054  0.00  0.00    -0.042 C 
BRANCH  23  26
ATOM     24  C   UNL     1       0.137   1.283  -0.327  0.00  0.00    +0.003 A 
ATOM     25  C   UNL     1       1.329   1.980  -0.275  0.00  0.00    +0.002 A 
ATOM     26  C   UNL     1       2.522   1.300  -0.110  0.00  0.00    -0.061 A 
ATOM     27  C   UNL     1       2.523  -0.077   0.003  0.00  0.00    +0.040 A 
ATOM     28  C   UNL     1       1.329  -0.776  -0.049  0.00  0.00    +0.124 A 
ATOM     29  C   UNL     1       0.135  -0.095  -0.213  0.00  0.00    +0.038 A 
ATOM     30  F   UNL     1       1.329  -2.123   0.061  0.00  0.00    -0.205 F 
ENDBRANCH  23  26
ENDBRANCH  18  23
ENDBRANCH  17  18
ENDBRANCH   1  17
TORSDOF 8
