REMARK  Name = ZINC01163020
REMARK  8 active torsions:
REMARK  status: ('A' for Active; 'I' for Inactive)
REMARK    1  A    between atoms: C_1  and  O_2
REMARK    2  A    between atoms: O_2  and  C_3
REMARK    3  A    between atoms: C_6  and  N_9
REMARK    4  A    between atoms: C_13  and  C_14
REMARK    5  A    between atoms: C_18  and  O_22
REMARK    6  A    between atoms: C_19  and  O_20
REMARK    7  A    between atoms: O_20  and  C_21
REMARK    8  A    between atoms: O_22  and  C_23
REMARK                            x       y       z     vdW  Elec       q    Type
REMARK                         _______ _______ _______ _____ _____    ______ ____
ROOT
ATOM      1  N   UNL     1       0.958   2.120  -0.207  0.00  0.00    -0.217 N 
ATOM      2  C   UNL     1       0.296   1.264   0.598  0.00  0.00    +0.262 C 
ATOM      3  O   UNL     1      -0.297   1.663   1.582  0.00  0.00    -0.269 OA
ATOM      4  C   UNL     1       0.306  -0.171   0.248  0.00  0.00    +0.100 C 
ATOM      5  C   UNL     1      -0.349  -1.107   1.024  0.00  0.00    +0.030 C 
ATOM      6  C   UNL     1       1.048  -0.559  -0.968  0.00  0.00    +0.255 C 
ATOM      7  O   UNL     1       1.103  -1.722  -1.321  0.00  0.00    -0.270 OA
ATOM      8  N   UNL     1       1.664   0.410  -1.675  0.00  0.00    -0.263 N 
ATOM      9  C   UNL     1       1.612   1.695  -1.297  0.00  0.00    +0.150 C 
ATOM     10  S   UNL     1       2.424   2.856  -2.259  0.00  0.00    -0.018 S 
ATOM     11  H   UNL     1       2.156   0.172  -2.477  0.00  0.00    +0.157 HD
ENDROOT
BRANCH   5  12
ATOM     12  C   UNL     1      -0.151  -2.534   0.771  0.00  0.00    +0.022 A 
ATOM     13  C   UNL     1       1.145  -3.056   0.643  0.00  0.00    +0.027 A 
ATOM     14  C   UNL     1       1.325  -4.399   0.405  0.00  0.00    +0.022 A 
ATOM     15  C   UNL     1       0.230  -5.244   0.291  0.00  0.00    +0.064 A 
ATOM     16  C   UNL     1      -1.056  -4.747   0.414  0.00  0.00    +0.163 A 
ATOM     17  C   UNL     1      -1.259  -3.393   0.660  0.00  0.00    +0.169 A 
ATOM     18 BR   UNL     1       3.073  -5.098   0.234  0.00  0.00    -0.050 Br
BRANCH  17  19
ATOM     19  O   UNL     1      -2.518  -2.903   0.786  0.00  0.00    -0.491 OA
ATOM     20  C   UNL     1      -3.162  -2.453  -0.407  0.00  0.00    +0.277 C 
ENDBRANCH  17  19
BRANCH  16  21
ATOM     21  O   UNL     1      -2.122  -5.584   0.300  0.00  0.00    -0.491 OA
ATOM     22  C   UNL     1      -1.841  -6.963   0.053  0.00  0.00    +0.277 C 
ENDBRANCH  16  21
ENDBRANCH   5  12
BRANCH   1  26
ATOM     23  C   UNL     1       0.972   6.187   0.718  0.00  0.00    +0.120 A 
ATOM     24  C   UNL     1      -0.035   5.660  -0.077  0.00  0.00    +0.047 A 
ATOM     25  C   UNL     1      -0.041   4.314  -0.384  0.00  0.00    +0.027 A 
ATOM     26  C   UNL     1       0.963   3.488   0.104  0.00  0.00    +0.043 A 
ATOM     27  C   UNL     1       1.967   4.014   0.905  0.00  0.00    +0.027 A 
ATOM     28  C   UNL     1       1.975   5.362   1.205  0.00  0.00    +0.047 A 
BRANCH  23  30
ATOM     29  C   UNL     1       2.044   7.987   1.842  0.00  0.00    +0.277 C 
ATOM     30  O   UNL     1       0.977   7.513   1.019  0.00  0.00    -0.495 OA
ENDBRANCH  23  30
ENDBRANCH   1  26
TORSDOF 5
