REMARK  Name = ZINC06252539
REMARK  7 active torsions:
REMARK  status: ('A' for Active; 'I' for Inactive)
REMARK    1  A    between atoms: C_4  and  C_7
REMARK    2  A    between atoms: C_10  and  O_13
REMARK    3  A    between atoms: O_13  and  C_14
REMARK    4  A    between atoms: C_14  and  C_15
REMARK    5  A    between atoms: N_17  and  N_18
REMARK    6  A    between atoms: C_19  and  C_20
REMARK    7  A    between atoms: C_25  and  O_26
REMARK                            x       y       z     vdW  Elec       q    Type
REMARK                         _______ _______ _______ _____ _____    ______ ____
ROOT
ATOM      1  C   UNL     1      -1.179   7.736   0.054  0.00  0.00    +0.270 C 
ATOM      2  O   UNL     1      -0.064   8.215   0.046  0.00  0.00    -0.270 OA
ATOM      3  N   UNL     1      -2.259   8.542   0.069  0.00  0.00    -0.204 N 
ATOM      4  H   UNL     1      -3.150   8.159   0.075  0.00  0.00    +0.177 HD
ENDROOT
BRANCH   3   5
ATOM      5  N   UNL     1      -2.094   9.933   0.074  0.00  0.00    -0.188 NA
ATOM      6  C   UNL     1      -3.134  10.710   0.088  0.00  0.00    +0.142 C 
BRANCH   6   7
ATOM      7  C   UNL     1      -2.961  12.173   0.094  0.00  0.00    +0.039 A 
ATOM      8  C   UNL     1      -4.077  13.013   0.109  0.00  0.00    +0.033 A 
ATOM      9  C   UNL     1      -3.909  14.382   0.115  0.00  0.00    +0.043 A 
ATOM     10  C   UNL     1      -2.635  14.929   0.106  0.00  0.00    +0.043 A 
ATOM     11  C   UNL     1      -1.523  14.108   0.091  0.00  0.00    +0.084 A 
ATOM     12  C   UNL     1      -1.675  12.730   0.090  0.00  0.00    +0.144 A 
ATOM     13 CL   UNL     1       0.068  14.805   0.080  0.00  0.00    -0.080 Cl
ATOM     14 CL   UNL     1      -5.297  15.424   0.133  0.00  0.00    -0.083 Cl
BRANCH  12  15
ATOM     15  O   UNL     1      -0.582  11.923   0.081  0.00  0.00    -0.505 OA
ATOM     16  H   UNL     1      -0.270  11.694  -0.805  0.00  0.00    +0.292 HD
ENDBRANCH  12  15
ENDBRANCH   6   7
ENDBRANCH   3   5
BRANCH   1  17
ATOM     17  C   UNL     1      -1.356   6.239   0.048  0.00  0.00    +0.326 C 
BRANCH  17  18
ATOM     18  O   UNL     1      -0.074   5.608   0.033  0.00  0.00    -0.483 OA
BRANCH  18  22
ATOM     19  C   UNL     1      -0.018   1.479   0.010  0.00  0.00    -0.018 A 
ATOM     20  C   UNL     1      -1.234   2.161   0.020  0.00  0.00    +0.012 A 
ATOM     21  C   UNL     1      -1.249   3.540   0.033  0.00  0.00    +0.046 A 
ATOM     22  C   UNL     1      -0.056   4.249   0.025  0.00  0.00    +0.121 A 
ATOM     23  C   UNL     1       1.157   3.573   0.010  0.00  0.00    +0.046 A 
ATOM     24  C   UNL     1       1.179   2.194   0.003  0.00  0.00    +0.012 A 
BRANCH  19  28
ATOM     25  C   UNL     1       0.040  -2.772  -0.014  0.00  0.00    +0.000 A 
ATOM     26  C   UNL     1      -1.169  -2.100   0.002  0.00  0.00    +0.001 A 
ATOM     27  C   UNL     1      -1.194  -0.720   0.010  0.00  0.00    +0.008 A 
ATOM     28  C   UNL     1       0.002  -0.004   0.002  0.00  0.00    -0.018 A 
ATOM     29  C   UNL     1       1.217  -0.687  -0.019  0.00  0.00    +0.008 A 
ATOM     30  C   UNL     1       1.230  -2.067  -0.022  0.00  0.00    +0.001 A 
ENDBRANCH  19  28
ENDBRANCH  18  22
ENDBRANCH  17  18
ENDBRANCH   1  17
TORSDOF 7
