REMARK  Name = ZINC65435593
REMARK  6 active torsions:
REMARK  status: ('A' for Active; 'I' for Inactive)
REMARK    1  A    between atoms: C_1  and  C_2
REMARK    2  A    between atoms: C_7  and  C_13
REMARK    3  A    between atoms: C_9  and  C_12
REMARK    4  A    between atoms: C_13  and  N_14
REMARK    5  A    between atoms: C_23  and  C_27
REMARK    6  A    between atoms: C_24  and  N_26
REMARK                            x       y       z     vdW  Elec       q    Type
REMARK                         _______ _______ _______ _____ _____    ______ ____
ROOT
ATOM      1  N   UNL     1      -1.125  -6.424   1.028  0.00  0.00    -0.297 NA
ATOM      2  C   UNL     1      -1.222  -6.067  -0.393  0.00  0.00    +0.103 C 
ATOM      3  C   UNL     1      -0.975  -7.315  -1.248  0.00  0.00    +0.123 C 
ATOM      4  N   UNL     1      -1.897  -8.372  -0.808  0.00  0.00    -0.299 N 
ATOM      5  C   UNL     1      -1.956  -8.692   0.627  0.00  0.00    +0.123 C 
ATOM      6  C   UNL     1      -2.165  -7.390   1.407  0.00  0.00    +0.103 C 
ATOM      7  C   UNL     1      -2.689  -9.049  -1.719  0.00  0.00    +0.197 A 
ATOM      8  N   UNL     1      -2.524  -8.819  -3.014  0.00  0.00    -0.334 N 
ATOM      9  C   UNL     1      -3.263  -9.447  -3.917  0.00  0.00    +0.092 A 
ATOM     10  C   UNL     1      -4.217 -10.353  -3.497  0.00  0.00    +0.005 A 
ATOM     11  C   UNL     1      -4.368 -10.575  -2.127  0.00  0.00    +0.124 A 
ATOM     12  N   UNL     1      -3.589  -9.913  -1.276  0.00  0.00    -0.201 NA
ATOM     13  C   UNL     1      -5.075 -11.086  -4.495  0.00  0.00    +0.049 C 
ATOM     14  H   UNL     1      -1.853  -8.181  -3.305  0.00  0.00    +0.168 HD
ENDROOT
BRANCH  11  15
ATOM     15  N   UNL     1      -5.312 -11.475  -1.660  0.00  0.00    -0.343 N 
ATOM     16  H   UNL     1      -5.874 -11.956  -2.287  0.00  0.00    +0.144 HD
ATOM     17  H   UNL     1      -5.411 -11.623  -0.707  0.00  0.00    +0.144 HD
ENDBRANCH  11  15
BRANCH   1  18
ATOM     18  C   UNL     1      -1.185  -5.226   1.877  0.00  0.00    +0.113 C 
BRANCH  18  25
ATOM     19  C   UNL     1       3.702  -2.232   6.001  0.00  0.00    +0.044 C 
ATOM     20  C   UNL     1       2.926  -3.267   5.227  0.00  0.00    -0.050 A 
ATOM     21  C   UNL     1       3.613  -4.339   4.641  0.00  0.00    +0.005 A 
ATOM     22  C   UNL     1       2.991  -5.305   3.934  0.00  0.00    +0.026 A 
ATOM     23  C   UNL     1       1.581  -5.268   3.753  0.00  0.00    +0.043 A 
ATOM     24  N   UNL     1       0.760  -6.071   3.120  0.00  0.00    -0.376 N 
ATOM     25  C   UNL     1      -0.604  -5.548   3.255  0.00  0.00    +0.120 C 
ATOM     26  C   UNL     1      -0.484  -4.286   4.080  0.00  0.00    -0.040 C 
ATOM     27  C   UNL     1       0.831  -4.146   4.362  0.00  0.00    -0.001 A 
ATOM     28  C   UNL     1       1.583  -3.140   5.121  0.00  0.00    +0.013 A 
ATOM     29  C   UNL     1      -1.604  -3.370   4.503  0.00  0.00    +0.042 C 
ATOM     30  H   UNL     1       1.013  -6.876   2.641  0.00  0.00    +0.160 HD
ENDBRANCH  18  25
ENDBRANCH   1  18
TORSDOF 3
