REMARK  Name = ZINC39683740
REMARK  5 active torsions:
REMARK  status: ('A' for Active; 'I' for Inactive)
REMARK    1  A    between atoms: C_5  and  C_7
REMARK    2  A    between atoms: C_7  and  C_8
REMARK    3  A    between atoms: C_8  and  N_9
REMARK    4  A    between atoms: C_10  and  C_12
REMARK    5  A    between atoms: C_23  and  C_25
REMARK                            x       y       z     vdW  Elec       q    Type
REMARK                         _______ _______ _______ _____ _____    ______ ____
ROOT
ATOM      1  C   UNL     1       1.527  -6.429   2.524  0.00  0.00    +0.100 C 
ATOM      2  C   UNL     1       2.700  -6.911   1.641  0.00  0.00    +0.121 C 
ATOM      3  N   UNL     1       3.814  -7.139   2.592  0.00  0.00    -0.297 N 
ATOM      4  C   UNL     1       3.166  -7.742   3.781  0.00  0.00    +0.115 C 
ATOM      5  C   UNL     1       1.835  -6.979   3.926  0.00  0.00    -0.004 C 
ATOM      6  C   UNL     1       1.990  -5.833   4.921  0.00  0.00    -0.010 C 
ATOM      7  C   UNL     1       2.240  -6.407   6.319  0.00  0.00    -0.082 C 
ATOM      8  N   UNL     1       1.114  -7.267   6.704  0.00  0.00    +0.379 N 
ATOM      9  C   UNL     1       1.029  -8.417   5.796  0.00  0.00    -0.082 C 
ATOM     10  C   UNL     1       0.728  -7.928   4.377  0.00  0.00    -0.010 C 
ATOM     11  C   UNL     1       5.121  -6.861   2.415  0.00  0.00    +0.260 C 
ATOM     12  O   UNL     1       5.486  -6.274   1.418  0.00  0.00    -0.271 OA
ATOM     13  H   UNL     1       1.252  -7.595   7.649  0.00  0.00    -0.086 HD
ATOM     14  H   UNL     1       0.257  -6.738   6.656  0.00  0.00    -0.086 HD
ENDROOT
BRANCH  11  15
ATOM     15  C   UNL     1       6.128  -7.278   3.456  0.00  0.00    +0.296 C 
ATOM     16  C   UNL     1       6.258  -8.807   3.466  0.00  0.00    +0.283 C 
ATOM     17  O   UNL     1       7.230  -9.167   4.453  0.00  0.00    -0.484 OA
ATOM     18  C   UNL     1       8.392  -8.459   4.454  0.00  0.00    +0.162 A 
ATOM     19  C   UNL     1       9.500  -8.969   5.115  0.00  0.00    +0.049 A 
ATOM     20  C   UNL     1      10.686  -8.260   5.128  0.00  0.00    +0.004 A 
ATOM     21  C   UNL     1      10.772  -7.041   4.482  0.00  0.00    +0.004 A 
ATOM     22  C   UNL     1       9.673  -6.527   3.820  0.00  0.00    +0.049 A 
ATOM     23  C   UNL     1       8.480  -7.235   3.802  0.00  0.00    +0.163 A 
ATOM     24  O   UNL     1       7.408  -6.720   3.140  0.00  0.00    -0.473 OA
ENDBRANCH  11  15
BRANCH   1  26
ATOM     25  N   UNL     1       0.294  -4.292   2.706  0.00  0.00    -0.315 N 
ATOM     26  C   UNL     1       1.475  -4.923   2.550  0.00  0.00    +0.218 C 
ATOM     27  O   UNL     1       2.496  -4.279   2.432  0.00  0.00    -0.275 OA
ATOM     28  H   UNL     1      -0.522  -4.807   2.801  0.00  0.00    +0.149 HD
BRANCH  25  29
ATOM     29  C   UNL     1       0.244  -2.828   2.733  0.00  0.00    +0.109 C 
BRANCH  29  30
ATOM     30  C   UNL     1      -1.204  -2.370   2.920  0.00  0.00    +0.055 C 
BRANCH  30  35
ATOM     31  C   UNL     1      -1.283   1.188   4.180  0.00  0.00    +0.000 A 
ATOM     32  C   UNL     1      -1.351   1.899   2.996  0.00  0.00    +0.001 A 
ATOM     33  C   UNL     1      -1.371   1.229   1.787  0.00  0.00    +0.015 A 
ATOM     34  C   UNL     1      -1.323  -0.154   1.762  0.00  0.00    +0.021 A 
ATOM     35  C   UNL     1      -1.255  -0.865   2.946  0.00  0.00    -0.032 A 
ATOM     36  C   UNL     1      -1.235  -0.194   4.155  0.00  0.00    +0.005 A 
ATOM     37 BR   UNL     1      -1.351  -1.071   0.109  0.00  0.00    -0.050 Br
ENDBRANCH  30  35
ENDBRANCH  29  30
ENDBRANCH  25  29
ENDBRANCH   1  26
TORSDOF 5
