REMARK  Name = ZINC00803083
REMARK  6 active torsions:
REMARK  status: ('A' for Active; 'I' for Inactive)
REMARK    1  A    between atoms: C_1  and  O_2
REMARK    2  A    between atoms: O_2  and  C_3
REMARK    3  A    between atoms: C_6  and  C_11
REMARK    4  A    between atoms: C_8  and  O_9
REMARK    5  A    between atoms: O_9  and  C_10
REMARK    6  A    between atoms: C_14  and  C_22
REMARK                            x       y       z     vdW  Elec       q    Type
REMARK                         _______ _______ _______ _____ _____    ______ ____
ROOT
ATOM      1  C   UNL     1       2.507  -2.501  -4.386  0.00  0.00    +0.143 C 
ATOM      2  C   UNL     1       3.978  -2.068  -4.452  0.00  0.00    +0.058 C 
ATOM      3  C   UNL     1       4.589  -2.514  -5.785  0.00  0.00    +0.106 C 
ATOM      4  N   UNL     1       3.872  -1.837  -6.883  0.00  0.00    -0.307 N 
ATOM      5  C   UNL     1       2.488  -1.790  -6.774  0.00  0.00    +0.215 A 
ATOM      6  N   UNL     1       1.839  -2.100  -5.624  0.00  0.00    -0.226 N 
ATOM      7  N   UNL     1       0.476  -1.951  -5.882  0.00  0.00    -0.156 NA
ATOM      8  C   UNL     1       0.367  -1.573  -7.131  0.00  0.00    +0.247 A 
ATOM      9  N   UNL     1       1.593  -1.472  -7.670  0.00  0.00    -0.202 NA
ATOM     10  H   UNL     1       4.341  -1.447  -7.637  0.00  0.00    +0.149 HD
ENDROOT
BRANCH   3  11
ATOM     11  C   UNL     1       6.048  -2.139  -5.822  0.00  0.00    -0.027 A 
ATOM     12  C   UNL     1       6.421  -0.842  -6.121  0.00  0.00    +0.008 A 
ATOM     13  C   UNL     1       7.758  -0.496  -6.155  0.00  0.00    +0.038 A 
ATOM     14  C   UNL     1       8.726  -1.451  -5.890  0.00  0.00    +0.123 A 
ATOM     15  C   UNL     1       8.352  -2.750  -5.591  0.00  0.00    +0.038 A 
ATOM     16  C   UNL     1       7.014  -3.091  -5.552  0.00  0.00    +0.008 A 
ATOM     17  F   UNL     1      10.034  -1.114  -5.923  0.00  0.00    -0.205 F 
ENDBRANCH   3  11
BRANCH   1  21
ATOM     18  C   UNL     1       0.606  -0.608  -1.056  0.00  0.00    +0.162 A 
ATOM     19  C   UNL     1       1.173   0.159  -2.062  0.00  0.00    +0.050 A 
ATOM     20  C   UNL     1       1.787  -0.456  -3.137  0.00  0.00    +0.009 A 
ATOM     21  C   UNL     1       1.837  -1.836  -3.212  0.00  0.00    -0.019 A 
ATOM     22  C   UNL     1       1.273  -2.606  -2.212  0.00  0.00    +0.055 A 
ATOM     23  C   UNL     1       0.662  -1.996  -1.129  0.00  0.00    +0.162 A 
BRANCH  18  25
ATOM     24  C   UNL     1      -0.017   1.425   0.010  0.00  0.00    +0.277 C 
ATOM     25  O   UNL     1       0.002  -0.004   0.002  0.00  0.00    -0.491 OA
ENDBRANCH  18  25
BRANCH  23  26
ATOM     26  O   UNL     1       0.112  -2.753  -0.142  0.00  0.00    -0.491 OA
ATOM     27  C   UNL     1       0.206  -4.171  -0.283  0.00  0.00    +0.277 C 
ENDBRANCH  23  26
ENDBRANCH   1  21
TORSDOF 4
