REMARK  Name = ZINC03184350
REMARK  5 active torsions:
REMARK  status: ('A' for Active; 'I' for Inactive)
REMARK    1  A    between atoms: C_4  and  C_7
REMARK    2  A    between atoms: C_7  and  C_9
REMARK    3  A    between atoms: C_7  and  N_16
REMARK    4  A    between atoms: C_17  and  C_19
REMARK    5  A    between atoms: C_22  and  N_25
REMARK                            x       y       z     vdW  Elec       q    Type
REMARK                         _______ _______ _______ _____ _____    ______ ____
ROOT
ATOM      1  C   UNL     1      -2.597   4.183   0.037  0.00  0.00    +0.134 C 
ENDROOT
BRANCH   1   2
ATOM      2  C   UNL     1      -2.400   5.548   0.644  0.00  0.00    -0.023 A 
ATOM      3  C   UNL     1      -1.261   6.276   0.354  0.00  0.00    +0.007 A 
ATOM      4  C   UNL     1      -1.083   7.530   0.907  0.00  0.00    +0.015 A 
ATOM      5  C   UNL     1      -2.039   8.053   1.758  0.00  0.00    +0.018 A 
ATOM      6  C   UNL     1      -3.176   7.322   2.052  0.00  0.00    +0.015 A 
ATOM      7  C   UNL     1      -3.357   6.070   1.495  0.00  0.00    +0.007 A 
ATOM      8 BR   UNL     1      -1.792   9.765   2.521  0.00  0.00    -0.050 Br
ENDBRANCH   1   2
BRANCH   1  12
ATOM      9  C   UNL     1      -4.029   4.597  -3.966  0.00  0.00    +0.000 A 
ATOM     10  C   UNL     1      -4.912   4.307  -2.943  0.00  0.00    +0.000 A 
ATOM     11  C   UNL     1      -4.449   4.173  -1.647  0.00  0.00    +0.006 A 
ATOM     12  C   UNL     1      -3.102   4.329  -1.375  0.00  0.00    -0.023 A 
ATOM     13  C   UNL     1      -2.220   4.624  -2.398  0.00  0.00    +0.006 A 
ATOM     14  C   UNL     1      -2.683   4.754  -3.694  0.00  0.00    +0.000 A 
ENDBRANCH   1  12
BRANCH   1  15
ATOM     15  N   UNL     1      -1.320   3.464   0.027  0.00  0.00    -0.301 N 
ATOM     16  C   UNL     1      -1.305   2.116   0.020  0.00  0.00    +0.245 C 
ATOM     17  O   UNL     1      -2.351   1.497   0.021  0.00  0.00    -0.270 OA
ATOM     18  H   UNL     1      -0.486   3.958   0.026  0.00  0.00    +0.150 HD
BRANCH  16  19
ATOM     19  C   UNL     1      -0.017   1.391   0.010  0.00  0.00    +0.037 A 
ATOM     20  C   UNL     1       1.186   2.100   0.002  0.00  0.00    +0.015 A 
ATOM     21  C   UNL     1       2.385   1.417  -0.013  0.00  0.00    +0.033 A 
ATOM     22  C   UNL     1       2.396   0.034  -0.021  0.00  0.00    +0.126 A 
ATOM     23  C   UNL     1       1.208  -0.674  -0.013  0.00  0.00    +0.033 A 
ATOM     24  C   UNL     1       0.002  -0.004   0.002  0.00  0.00    +0.015 A 
BRANCH  22  25
ATOM     25  N   UNL     1       3.686  -0.692  -0.038  0.00  0.00    +0.056 N 
ATOM     26  O   UNL     1       3.700  -1.910  -0.044  0.00  0.00    -0.126 OA
ATOM     27  O   UNL     1       4.734  -0.071  -0.045  0.00  0.00    -0.126 OA
ENDBRANCH  22  25
ENDBRANCH  16  19
ENDBRANCH   1  15
TORSDOF 5
