REMARK  Name = ZINC20549019
REMARK  6 active torsions:
REMARK  status: ('A' for Active; 'I' for Inactive)
REMARK    1  A    between atoms: C_1  and  O_2
REMARK    2  A    between atoms: O_2  and  C_3
REMARK    3  A    between atoms: C_8  and  C_9
REMARK    4  A    between atoms: C_9  and  C_11
REMARK    5  A    between atoms: C_9  and  N_21
REMARK    6  A    between atoms: C_13  and  N_18
REMARK                            x       y       z     vdW  Elec       q    Type
REMARK                         _______ _______ _______ _____ _____    ______ ____
ROOT
ATOM      1  C   UNL     1       1.151   3.593   0.010  0.00  0.00    -0.010 C 
ENDROOT
BRANCH   1   7
ATOM      2  C   UNL     1       1.974   4.222   2.293  0.00  0.00    +0.122 A 
ATOM      3  C   UNL     1       1.751   4.680   3.583  0.00  0.00    +0.047 A 
ATOM      4  C   UNL     1       0.469   4.989   3.994  0.00  0.00    +0.023 A 
ATOM      5  C   UNL     1      -0.592   4.846   3.117  0.00  0.00    +0.041 A 
ATOM      6  C   UNL     1      -0.371   4.395   1.828  0.00  0.00    +0.025 A 
ATOM      7  C   UNL     1       0.910   4.085   1.414  0.00  0.00    -0.015 A 
ATOM      8 CL   UNL     1      -2.203   5.235   3.635  0.00  0.00    -0.084 Cl
BRANCH   2  10
ATOM      9  C   UNL     1       4.282   4.079   2.847  0.00  0.00    +0.277 C 
ATOM     10  O   UNL     1       3.235   3.913   1.889  0.00  0.00    -0.495 OA
ENDBRANCH   2  10
ENDBRANCH   1   7
BRANCH   1  11
ATOM     11  C   UNL     1       1.171   2.086   0.002  0.00  0.00    -0.054 A 
ATOM     12  C   UNL     1       2.377   1.411  -0.013  0.00  0.00    +0.035 A 
ATOM     13  C   UNL     1       2.397   0.029  -0.021  0.00  0.00    +0.128 A 
ATOM     14  C   UNL     1       1.210  -0.679  -0.013  0.00  0.00    +0.052 A 
ATOM     15  C   UNL     1       0.002  -0.004   0.002  0.00  0.00    +0.043 A 
ATOM     16  C   UNL     1      -0.017   1.379   0.010  0.00  0.00    +0.022 A 
ATOM     17 CL   UNL     1      -1.489  -0.893   0.011  0.00  0.00    -0.083 Cl
BRANCH  13  18
ATOM     18  N   UNL     1       3.689  -0.692  -0.036  0.00  0.00    +0.056 N 
ATOM     19  O   UNL     1       3.706  -1.910  -0.043  0.00  0.00    -0.126 OA
ATOM     20  O   UNL     1       4.735  -0.068  -0.043  0.00  0.00    -0.126 OA
ENDBRANCH  13  18
ENDBRANCH   1  11
BRANCH   1  21
ATOM     21  N   UNL     1       0.075   4.073  -0.868  0.00  0.00    +0.385 N 
ATOM     22  H   UNL     1       0.250   3.714  -1.893  0.00  0.00    -0.089 HD
ATOM     23  H   UNL     1       0.060   5.173  -0.862  0.00  0.00    -0.089 HD
ATOM     24  H   UNL     1      -0.891   3.692  -0.506  0.00  0.00    -0.089 HD
ENDBRANCH   1  21
TORSDOF 5
