REMARK  Name = ZINC53116712
REMARK  7 active torsions:
REMARK  status: ('A' for Active; 'I' for Inactive)
REMARK    1  A    between atoms: C_1  and  C_2
REMARK    2  A    between atoms: C_7  and  C_9
REMARK    3  A    between atoms: C_7  and  N_11
REMARK    4  A    between atoms: C_9  and  O_10
REMARK    5  A    between atoms: N_11  and  C_12
REMARK    6  A    between atoms: C_12  and  C_13
REMARK    7  A    between atoms: C_17  and  N_19
REMARK                            x       y       z     vdW  Elec       q    Type
REMARK                         _______ _______ _______ _____ _____    ______ ____
ROOT
ATOM      1  N   UNL     1       1.387  -2.632   0.099  0.00  0.00    +0.387 N 
ATOM      2  H   UNL     1       1.221  -3.628   0.097  0.00  0.00    -0.085 HD
ATOM      3  H   UNL     1       1.024  -2.229  -0.752  0.00  0.00    -0.085 HD
ENDROOT
BRANCH   1   9
ATOM      4  C   UNL     1       0.397   1.544  -0.153  0.00  0.00    +0.007 C 
ATOM      5  C   UNL     1       0.240   0.023  -0.095  0.00  0.00    -0.015 C 
ATOM      6  C   UNL     1      -1.246  -0.339  -0.125  0.00  0.00    +0.003 C 
ATOM      7  C   UNL     1      -1.402  -1.860  -0.067  0.00  0.00    -0.001 C 
ATOM      8  C   UNL     1      -0.775  -2.388   1.224  0.00  0.00    -0.010 C 
ATOM      9  C   UNL     1       0.711  -2.026   1.255  0.00  0.00    -0.044 C 
ATOM     10  C   UNL     1       0.868  -0.505   1.197  0.00  0.00    -0.007 C 
BRANCH   9  11
ATOM     11  C   UNL     1       1.339  -2.555   2.546  0.00  0.00    +0.143 C 
BRANCH  11  12
ATOM     12  O   UNL     1       1.310  -3.983   2.541  0.00  0.00    -0.396 OA
ATOM     13  H   UNL     1       1.692  -4.388   3.331  0.00  0.00    +0.209 HD
ENDBRANCH  11  12
ENDBRANCH   9  11
ENDBRANCH   1   9
BRANCH   1  14
ATOM     14  C   UNL     1       2.830  -2.376   0.186  0.00  0.00    -0.046 C 
BRANCH  14  15
ATOM     15  C   UNL     1       3.506  -2.881  -1.063  0.00  0.00    -0.062 A 
ATOM     16  C   UNL     1       3.969  -4.182  -1.120  0.00  0.00    +0.003 A 
ATOM     17  C   UNL     1       4.589  -4.646  -2.265  0.00  0.00    +0.018 A 
ATOM     18  C   UNL     1       4.745  -3.808  -3.354  0.00  0.00    +0.048 A 
ATOM     19  C   UNL     1       4.281  -2.506  -3.297  0.00  0.00    +0.140 A 
ATOM     20  C   UNL     1       3.657  -2.045  -2.153  0.00  0.00    +0.035 A 
ATOM     21 BR   UNL     1       5.593  -4.441  -4.921  0.00  0.00    -0.048 Br
BRANCH  19  22
ATOM     22  N   UNL     1       4.449  -1.608  -4.462  0.00  0.00    +0.058 N 
ATOM     23  O   UNL     1       4.043  -0.470  -4.411  0.00  0.00    -0.126 OA
ATOM     24  O   UNL     1       4.991  -2.013  -5.464  0.00  0.00    -0.126 OA
ENDBRANCH  19  22
ENDBRANCH  14  15
ENDBRANCH   1  14
TORSDOF 6
