REMARK  Name = ZINC40381754
REMARK  5 active torsions:
REMARK  status: ('A' for Active; 'I' for Inactive)
REMARK    1  A    between atoms: C_1  and  N_2
REMARK    2  A    between atoms: N_2  and  C_3
REMARK    3  A    between atoms: C_6  and  S_9
REMARK    4  A    between atoms: S_9  and  N_12
REMARK    5  A    between atoms: C_13  and  C_15
REMARK                            x       y       z     vdW  Elec       q    Type
REMARK                         _______ _______ _______ _____ _____    ______ ____
ROOT
ATOM      1  C   UNL     1      -0.052  -0.701   1.214  0.00  0.00    +0.036 A 
ATOM      2  C   UNL     1       0.331  -2.033   1.121  0.00  0.00    +0.025 A 
ATOM      3  C   UNL     1       0.492  -2.785   2.268  0.00  0.00    +0.030 A 
ATOM      4  C   UNL     1       0.271  -2.214   3.508  0.00  0.00    +0.105 A 
ATOM      5  C   UNL     1      -0.111  -0.888   3.604  0.00  0.00    +0.030 A 
ATOM      6  C   UNL     1      -0.268  -0.129   2.461  0.00  0.00    +0.025 A 
ENDROOT
BRANCH   1   8
ATOM      7  C   UNL     1      -0.444   1.507   0.155  0.00  0.00    +0.138 C 
ATOM      8  N   UNL     1      -0.216   0.063   0.054  0.00  0.00    -0.268 N 
ATOM      9  C   UNL     1      -0.163  -0.528  -1.156  0.00  0.00    +0.286 C 
ATOM     10  O   UNL     1      -0.090  -1.740  -1.238  0.00  0.00    -0.266 OA
BRANCH   9  11
ATOM     11  C   UNL     1      -0.194   0.289  -2.372  0.00  0.00    +0.191 A 
ATOM     12  C   UNL     1      -0.265  -0.181  -3.653  0.00  0.00    +0.056 A 
ATOM     13  C   UNL     1      -0.270   0.941  -4.495  0.00  0.00    +0.058 A 
ATOM     14  C   UNL     1      -0.202   2.034  -3.701  0.00  0.00    +0.171 A 
ATOM     15  O   UNL     1      -0.162   1.637  -2.423  0.00  0.00    -0.444 OA
ATOM     16 BR   UNL     1      -0.175   3.829  -4.299  0.00  0.00    -0.008 Br
ENDBRANCH   9  11
ENDBRANCH   1   8
BRANCH   4  17
ATOM     17  S   UNL     1       0.477  -3.177   4.969  0.00  0.00    +0.056 S 
ATOM     18  O   UNL     1      -0.318  -2.564   5.975  0.00  0.00    -0.153 OA
ATOM     19  O   UNL     1       0.308  -4.535   4.587  0.00  0.00    -0.153 OA
BRANCH  17  20
ATOM     20  N   UNL     1       2.054  -3.012   5.446  0.00  0.00    -0.204 NA
ATOM     21  H   UNL     1       2.661  -2.457   4.931  0.00  0.00    +0.144 HD
ATOM     22  H   UNL     1       2.372  -3.471   6.240  0.00  0.00    +0.144 HD
ENDBRANCH  17  20
ENDBRANCH   4  17
TORSDOF 4
