REMARK  Name = ZINC66606017
REMARK  7 active torsions:
REMARK  status: ('A' for Active; 'I' for Inactive)
REMARK    1  A    between atoms: C_1  and  C_2
REMARK    2  A    between atoms: C_2  and  C_4
REMARK    3  A    between atoms: C_2  and  N_19
REMARK    4  A    between atoms: C_4  and  C_5
REMARK    5  A    between atoms: N_7  and  C_8
REMARK    6  A    between atoms: C_8  and  C_9
REMARK    7  A    between atoms: C_20  and  C_22
REMARK                            x       y       z     vdW  Elec       q    Type
REMARK                         _______ _______ _______ _____ _____    ______ ____
ROOT
ATOM      1  C   UNL     1      -1.414  -2.036   0.129  0.00  0.00    +0.215 C 
ATOM      2  O   UNL     1      -0.356  -2.625   0.196  0.00  0.00    -0.276 OA
ATOM      3  N   UNL     1      -2.572  -2.725   0.157  0.00  0.00    -0.310 N 
ATOM      4  H   UNL     1      -3.418  -2.254   0.104  0.00  0.00    +0.149 HD
ENDROOT
BRANCH   1   5
ATOM      5  C   UNL     1      -1.433  -0.534   0.013  0.00  0.00    +0.117 C 
BRANCH   5   7
ATOM      6  C   UNL     1      -0.019   1.526   0.010  0.00  0.00    +0.028 C 
ATOM      7  C   UNL     1       0.002  -0.004   0.002  0.00  0.00    +0.079 C 
BRANCH   7   8
ATOM      8  N   UNL     1       0.688  -0.476  -1.203  0.00  0.00    -0.312 N 
ATOM      9  C   UNL     1       2.031  -0.587  -1.215  0.00  0.00    +0.216 C 
ATOM     10  O   UNL     1       2.672  -0.295  -0.228  0.00  0.00    -0.276 OA
ATOM     11  H   UNL     1       0.175  -0.710  -1.993  0.00  0.00    +0.149 HD
BRANCH   9  12
ATOM     12  C   UNL     1       2.736  -1.073  -2.455  0.00  0.00    +0.075 C 
ATOM     13  C   UNL     1       2.247  -2.480  -2.801  0.00  0.00    +0.013 C 
ATOM     14  C   UNL     1       2.963  -2.974  -4.060  0.00  0.00    +0.001 C 
ATOM     15  C   UNL     1       4.472  -3.006  -3.809  0.00  0.00    +0.000 C 
ATOM     16  C   UNL     1       4.961  -1.599  -3.462  0.00  0.00    +0.001 C 
ATOM     17  C   UNL     1       4.245  -1.105  -2.204  0.00  0.00    +0.013 C 
ENDBRANCH   9  12
ENDBRANCH   7   8
ENDBRANCH   5   7
ENDBRANCH   1   5
BRANCH   3  18
ATOM     18  C   UNL     1      -2.552  -4.186   0.270  0.00  0.00    +0.161 C 
BRANCH  18  19
ATOM     19  C   UNL     1      -3.966  -4.707   0.280  0.00  0.00    +0.077 A 
ATOM     20  C   UNL     1      -4.648  -5.158  -0.795  0.00  0.00    +0.117 A 
ATOM     21  N   UNL     1      -5.888  -5.537  -0.358  0.00  0.00    -0.305 N 
ATOM     22  C   UNL     1      -6.974  -6.058  -1.001  0.00  0.00    +0.112 A 
ATOM     23  C   UNL     1      -8.102  -6.350  -0.318  0.00  0.00    +0.058 A 
ATOM     24  C   UNL     1      -8.171  -6.121   1.067  0.00  0.00    +0.025 A 
ATOM     25  C   UNL     1      -7.096  -5.602   1.719  0.00  0.00    +0.048 A 
ATOM     26  C   UNL     1      -5.926  -5.303   0.992  0.00  0.00    +0.138 A 
ATOM     27  N   UNL     1      -4.752  -4.806   1.355  0.00  0.00    -0.231 NA
ATOM     28 CL   UNL     1      -9.473  -7.011  -1.154  0.00  0.00    -0.082 Cl
ENDBRANCH  18  19
ENDBRANCH   3  18
TORSDOF 6
