REMARK  Name = ZINC39883175
REMARK  6 active torsions:
REMARK  status: ('A' for Active; 'I' for Inactive)
REMARK    1  A    between atoms: C_8  and  C_11
REMARK    2  A    between atoms: C_11  and  C_12
REMARK    3  A    between atoms: N_14  and  C_15
REMARK    4  A    between atoms: C_16  and  C_24
REMARK    5  A    between atoms: N_26  and  C_27
REMARK    6  A    between atoms: C_27  and  C_28
REMARK                            x       y       z     vdW  Elec       q    Type
REMARK                         _______ _______ _______ _____ _____    ______ ____
ROOT
ATOM      1  C   UNL     1       4.982  -3.936  -3.030  0.00  0.00    +0.084 A 
ATOM      2  C   UNL     1       5.433  -5.168  -3.478  0.00  0.00    +0.069 A 
ATOM      3  C   UNL     1       5.389  -5.411  -4.909  0.00  0.00    -0.023 A 
ATOM      4  C   UNL     1       4.901  -4.378  -5.630  0.00  0.00    -0.004 A 
ATOM      5  S   UNL     1       4.512  -3.138  -4.431  0.00  0.00    -0.077 S 
ATOM      6  C   UNL     1       4.731  -4.320  -7.117  0.00  0.00    +0.043 C 
ATOM      7  C   UNL     1       5.544  -5.465  -7.740  0.00  0.00    +0.005 C 
ATOM      8  C   UNL     1       5.235  -6.760  -6.984  0.00  0.00    +0.005 C 
ATOM      9  C   UNL     1       5.840  -6.700  -5.580  0.00  0.00    +0.037 C 
ENDROOT
BRANCH   1  12
ATOM     10  C   UNL     1       4.448  -2.238  -1.468  0.00  0.00    +0.222 C 
ATOM     11  O   UNL     1       4.067  -1.534  -2.379  0.00  0.00    -0.275 OA
ATOM     12  N   UNL     1       4.926  -3.472  -1.725  0.00  0.00    -0.279 N 
ATOM     13  H   UNL     1       5.230  -4.036  -0.996  0.00  0.00    +0.155 HD
BRANCH  10  14
ATOM     14  C   UNL     1       4.386  -1.734  -0.049  0.00  0.00    +0.135 C 
BRANCH  14  22
ATOM     15  C   UNL     1      -0.017   1.384   0.010  0.00  0.00    +0.023 A 
ATOM     16  C   UNL     1       1.159   2.103   0.002  0.00  0.00    +0.048 A 
ATOM     17  C   UNL     1       2.379   1.439  -0.013  0.00  0.00    +0.135 A 
ATOM     18  C   UNL     1       2.398   0.035  -0.021  0.00  0.00    +0.025 A 
ATOM     19  C   UNL     1       1.202  -0.682  -0.013  0.00  0.00    +0.032 A 
ATOM     20  C   UNL     1       0.002  -0.004   0.002  0.00  0.00    +0.042 A 
ATOM     21 CL   UNL     1      -1.491  -0.889   0.012  0.00  0.00    -0.084 Cl
ATOM     22  C   UNL     1       3.817  -0.339  -0.036  0.00  0.00    +0.007 A 
ATOM     23  C   UNL     1       4.506   0.811  -0.037  0.00  0.00    +0.200 A 
ATOM     24  O   UNL     1       3.661   1.857  -0.023  0.00  0.00    -0.463 OA
ENDBRANCH  14  22
ENDBRANCH  10  14
ENDBRANCH   1  12
BRANCH   2  25
ATOM     25  C   UNL     1       5.936  -6.182  -2.546  0.00  0.00    +0.247 C 
ATOM     26  O   UNL     1       5.171  -6.996  -2.062  0.00  0.00    -0.270 OA
ATOM     27  N   UNL     1       7.244  -6.214  -2.225  0.00  0.00    -0.309 N 
ATOM     28  H   UNL     1       7.854  -5.565  -2.611  0.00  0.00    +0.149 HD
BRANCH  27  29
ATOM     29  C   UNL     1       7.746  -7.227  -1.294  0.00  0.00    +0.136 C 
BRANCH  29  30
ATOM     30  C   UNL     1       9.253  -7.043  -1.103  0.00  0.00    +0.135 C 
ATOM     31  C   UNL     1       9.811  -8.179  -0.219  0.00  0.00    +0.035 C 
ATOM     32  C   UNL     1      10.846  -7.430   0.665  0.00  0.00    +0.031 C 
ATOM     33  C   UNL     1      10.150  -6.056   0.831  0.00  0.00    +0.160 C 
ATOM     34  O   UNL     1       9.509  -5.804  -0.432  0.00  0.00    -0.375 OA
ENDBRANCH  29  30
ENDBRANCH  27  29
ENDBRANCH   2  25
TORSDOF 6
