REMARK  Name = ZINC39777212
REMARK  6 active torsions:
REMARK  status: ('A' for Active; 'I' for Inactive)
REMARK    1  A    between atoms: C_1  and  C_2
REMARK    2  A    between atoms: C_2  and  O_3
REMARK    3  A    between atoms: O_3  and  C_4
REMARK    4  A    between atoms: C_4  and  C_6
REMARK    5  A    between atoms: C_8  and  N_17
REMARK    6  A    between atoms: C_19  and  C_28
REMARK                            x       y       z     vdW  Elec       q    Type
REMARK                         _______ _______ _______ _____ _____    ______ ____
ROOT
ATOM      1  N   UNL     1       3.075  -0.677  -3.451  0.00  0.00    -0.342 N 
ATOM      2  C   UNL     1       3.764   0.357  -3.050  0.00  0.00    +0.207 A 
ATOM      3  C   UNL     1       3.921   1.550  -3.911  0.00  0.00    +0.078 A 
ATOM      4  C   UNL     1       4.138   2.754  -3.284  0.00  0.00    +0.028 A 
ATOM      5  C   UNL     1       4.196   2.753  -1.819  0.00  0.00    +0.018 A 
ATOM      6  C   UNL     1       4.145   3.953  -1.101  0.00  0.00    +0.011 A 
ATOM      7  C   UNL     1       4.198   3.925   0.275  0.00  0.00    +0.001 A 
ATOM      8  C   UNL     1       4.301   2.718   0.949  0.00  0.00    +0.004 A 
ATOM      9  C   UNL     1       4.353   1.526   0.254  0.00  0.00    +0.047 A 
ATOM     10  C   UNL     1       4.303   1.531  -1.132  0.00  0.00    +0.137 A 
ATOM     11  O   UNL     1       4.355   0.372  -1.827  0.00  0.00    -0.439 OA
ATOM     12  H   UNL     1       2.659  -0.672  -4.328  0.00  0.00    +0.164 HD
ENDROOT
BRANCH   3  13
ATOM     13  C   UNL     1       3.848   1.452  -5.380  0.00  0.00    +0.144 A 
ATOM     14  N   UNL     1       3.987   2.502  -6.249  0.00  0.00    -0.338 N 
ATOM     15  H   UNL     1       4.148   3.428  -6.011  0.00  0.00    +0.167 HD
ATOM     16  C   UNL     1       3.855   1.995  -7.527  0.00  0.00    +0.066 A 
ATOM     17  C   UNL     1       3.899   2.557  -8.796  0.00  0.00    +0.028 A 
ATOM     18  C   UNL     1       3.725   1.756  -9.905  0.00  0.00    +0.002 A 
ATOM     19  C   UNL     1       3.507   0.393  -9.761  0.00  0.00    +0.002 A 
ATOM     20  C   UNL     1       3.460  -0.179  -8.522  0.00  0.00    +0.030 A 
ATOM     21  C   UNL     1       3.634   0.614  -7.382  0.00  0.00    +0.089 A 
ATOM     22  N   UNL     1       3.645   0.344  -6.054  0.00  0.00    -0.228 NA
ENDBRANCH   3  13
BRANCH   1  24
ATOM     23  C   UNL     1       1.468  -2.353  -2.550  0.00  0.00    +0.157 C 
ATOM     24  C   UNL     1       2.929  -1.844  -2.578  0.00  0.00    +0.162 C 
ATOM     25  S   UNL     1       3.731  -3.337  -3.302  0.00  0.00    -0.104 S 
ATOM     26  C   UNL     1       2.488  -4.532  -2.871  0.00  0.00    -0.012 C 
ATOM     27  C   UNL     1       1.407  -3.859  -2.501  0.00  0.00    -0.044 C 
ATOM     28  C   UNL     1       0.146  -4.590  -2.044  0.00  0.00    +0.032 C 
ATOM     29  C   UNL     1       0.199  -6.036  -2.536  0.00  0.00    +0.005 C 
ATOM     30  C   UNL     1       1.526  -6.673  -2.111  0.00  0.00    +0.005 C 
ATOM     31  C   UNL     1       2.652  -6.026  -2.920  0.00  0.00    +0.042 C 
BRANCH  23  32
ATOM     32  C   UNL     1       0.775  -1.794  -1.334  0.00  0.00    +0.317 C 
ATOM     33  O   UNL     1       0.314  -2.540  -0.504  0.00  0.00    -0.250 OA
BRANCH  32  34
ATOM     34  O   UNL     1       0.671  -0.465  -1.174  0.00  0.00    -0.464 OA
BRANCH  34  36
ATOM     35  C   UNL     1      -0.019   1.526   0.010  0.00  0.00    +0.048 C 
ATOM     36  C   UNL     1       0.002  -0.004   0.002  0.00  0.00    +0.229 C 
ENDBRANCH  34  36
ENDBRANCH  32  34
ENDBRANCH  23  32
ENDBRANCH   1  24
TORSDOF 5
