REMARK  Name = ZINC20512669
REMARK  6 active torsions:
REMARK  status: ('A' for Active; 'I' for Inactive)
REMARK    1  A    between atoms: C_1  and  C_2
REMARK    2  A    between atoms: C_2  and  C_4
REMARK    3  A    between atoms: C_2  and  N_14
REMARK    4  A    between atoms: C_15  and  C_17
REMARK    5  A    between atoms: C_17  and  C_18
REMARK    6  A    between atoms: C_18  and  N_19
REMARK                            x       y       z     vdW  Elec       q    Type
REMARK                         _______ _______ _______ _____ _____    ______ ____
ROOT
ATOM      1  N   UNL     1      -0.011   0.966   0.007  0.00  0.00    -0.312 N 
ATOM      2  C   UNL     1      -1.187   1.624   0.017  0.00  0.00    +0.215 C 
ATOM      3  O   UNL     1      -1.204   2.837   0.023  0.00  0.00    -0.276 OA
ATOM      4  H   UNL     1       0.004  -0.134   0.006  0.00  0.00    +0.149 HD
ENDROOT
BRANCH   1   6
ATOM      5  C   UNL     1       1.635   2.077   1.435  0.00  0.00    +0.028 C 
ATOM      6  C   UNL     1       1.248   1.716  -0.001  0.00  0.00    +0.076 C 
BRANCH   6   7
ATOM      7  C   UNL     1       2.349   0.857  -0.625  0.00  0.00    -0.010 C 
ATOM      8  C   UNL     1       1.961   0.495  -2.061  0.00  0.00    +0.012 C 
ATOM      9  C   UNL     1       3.062  -0.364  -2.686  0.00  0.00    -0.010 C 
ATOM     10  C   UNL     1       4.377   0.419  -2.694  0.00  0.00    +0.007 C 
ATOM     11  C   UNL     1       4.764   0.781  -1.259  0.00  0.00    -0.010 C 
ATOM     12  C   UNL     1       3.663   1.640  -0.634  0.00  0.00    +0.012 C 
ATOM     13  C   UNL     1       4.939  -0.500  -0.440  0.00  0.00    +0.007 C 
ATOM     14  C   UNL     1       3.624  -1.283  -0.431  0.00  0.00    -0.010 C 
ATOM     15  C   UNL     1       3.237  -1.644  -1.867  0.00  0.00    +0.007 C 
ATOM     16  C   UNL     1       2.523  -0.424   0.194  0.00  0.00    +0.012 C 
ENDBRANCH   6   7
ENDBRANCH   1   6
BRANCH   2  17
ATOM     17  C   UNL     1      -2.482   0.853   0.018  0.00  0.00    +0.117 C 
BRANCH  17  18
ATOM     18  C   UNL     1      -3.658   1.831   0.029  0.00  0.00    +0.136 C 
BRANCH  18  19
ATOM     19  N   UNL     1      -4.917   1.081   0.031  0.00  0.00    -0.289 N 
ATOM     20  C   UNL     1      -5.503   0.722   1.240  0.00  0.00    +0.160 A 
ATOM     21  C   UNL     1      -6.702   0.007   1.259  0.00  0.00    +0.090 A 
ATOM     22  C   UNL     1      -7.269  -0.339   2.479  0.00  0.00    +0.031 A 
ATOM     23  C   UNL     1      -6.615   0.041   3.642  0.00  0.00    +0.022 A 
ATOM     24  C   UNL     1      -5.431   0.746   3.550  0.00  0.00    +0.113 A 
ATOM     25  N   UNL     1      -4.915   1.063   2.378  0.00  0.00    -0.236 NA
ATOM     26  N   UNL     1      -7.331  -0.357   0.066  0.00  0.00    -0.309 N 
ATOM     27  C   UNL     1      -8.476  -1.037  -0.193  0.00  0.00    +0.092 A 
ATOM     28  C   UNL     1      -8.642  -1.125  -1.535  0.00  0.00    +0.020 A 
ATOM     29  C   UNL     1      -7.563  -0.477  -2.146  0.00  0.00    +0.033 A 
ATOM     30  C   UNL     1      -6.754  -0.003  -1.137  0.00  0.00    +0.112 A 
ATOM     31  C   UNL     1      -5.499   0.751  -1.138  0.00  0.00    +0.277 A 
ATOM     32  O   UNL     1      -4.981   1.074  -2.192  0.00  0.00    -0.265 OA
ENDBRANCH  18  19
ENDBRANCH  17  18
ENDBRANCH   2  17
TORSDOF 5
