REMARK  Name = ZINC59791098
REMARK  10 active torsions:
REMARK  status: ('A' for Active; 'I' for Inactive)
REMARK    1  A    between atoms: C_3  and  N_33
REMARK    2  A    between atoms: C_6  and  C_7
REMARK    3  A    between atoms: C_10  and  S_13
REMARK    4  A    between atoms: N_11  and  N_12
REMARK    5  A    between atoms: S_13  and  C_14
REMARK    6  A    between atoms: C_14  and  C_15
REMARK    7  A    between atoms: C_15  and  C_16
REMARK    8  A    between atoms: N_18  and  C_19
REMARK    9  A    between atoms: C_22  and  S_25
REMARK   10  A    between atoms: S_25  and  N_28
REMARK                            x       y       z     vdW  Elec       q    Type
REMARK                         _______ _______ _______ _____ _____    ______ ____
ROOT
ATOM      1  C   UNL     1      -5.303  -3.557  -0.054  0.00  0.00    +0.086 C 
ENDROOT
BRANCH   1   2
ATOM      2  S   UNL     1      -3.556  -3.904  -0.398  0.00  0.00    -0.084 S 
BRANCH   2   6
ATOM      3  C   UNL     1      -1.266  -0.763   0.006  0.00  0.00    +0.182 A 
ATOM      4  N   UNL     1      -2.456  -0.292   0.296  0.00  0.00    -0.127 NA
ATOM      5  N   UNL     1      -3.333  -1.227   0.205  0.00  0.00    -0.121 NA
ATOM      6  C   UNL     1      -2.756  -2.353  -0.149  0.00  0.00    +0.209 A 
ATOM      7  N   UNL     1      -1.423  -2.097  -0.293  0.00  0.00    -0.224 N 
BRANCH   3  13
ATOM      8  C   UNL     1      -0.017   1.392   0.012  0.00  0.00    +0.014 A 
ATOM      9  C   UNL     1       1.170   2.095   0.003  0.00  0.00    +0.033 A 
ATOM     10  C   UNL     1       2.377   1.420  -0.021  0.00  0.00    +0.126 A 
ATOM     11  C   UNL     1       2.403   0.036  -0.038  0.00  0.00    +0.033 A 
ATOM     12  C   UNL     1       1.223  -0.679  -0.030  0.00  0.00    +0.014 A 
ATOM     13  C   UNL     1       0.002  -0.004  -0.004  0.00  0.00    +0.021 A 
BRANCH  10  14
ATOM     14  N   UNL     1       3.647   2.181  -0.031  0.00  0.00    +0.056 N 
ATOM     15  O   UNL     1       3.628   3.390  -0.017  0.00  0.00    -0.126 OA
ATOM     16  O   UNL     1       4.704   1.593  -0.052  0.00  0.00    -0.126 OA
ENDBRANCH  10  14
ENDBRANCH   3  13
BRANCH   7  17
ATOM     17  N   UNL     1      -0.447  -2.982  -0.656  0.00  0.00    -0.295 N 
ATOM     18  H   UNL     1      -0.051  -3.435   0.153  0.00  0.00    +0.163 HD
ATOM     19  H   UNL     1      -0.800  -3.660  -1.314  0.00  0.00    +0.163 HD
ENDBRANCH   7  17
ENDBRANCH   2   6
ENDBRANCH   1   2
BRANCH   1  20
ATOM     20  C   UNL     1      -6.122  -4.836  -0.236  0.00  0.00    +0.107 C 
BRANCH  20  21
ATOM     21  C   UNL     1      -7.573  -4.548   0.050  0.00  0.00    +0.218 C 
ATOM     22  O   UNL     1      -7.919  -3.429   0.366  0.00  0.00    -0.275 OA
ATOM     23  N   UNL     1      -8.488  -5.533  -0.048  0.00  0.00    -0.285 N 
ATOM     24  H   UNL     1      -8.224  -6.411  -0.366  0.00  0.00    +0.155 HD
BRANCH  23  25
ATOM     25  C   UNL     1      -9.819  -5.290   0.310  0.00  0.00    +0.033 A 
ATOM     26  C   UNL     1     -10.570  -6.290   0.914  0.00  0.00    +0.025 A 
ATOM     27  C   UNL     1     -11.883  -6.047   1.266  0.00  0.00    +0.030 A 
ATOM     28  C   UNL     1     -12.450  -4.810   1.017  0.00  0.00    +0.106 A 
ATOM     29  C   UNL     1     -11.705  -3.813   0.415  0.00  0.00    +0.030 A 
ATOM     30  C   UNL     1     -10.389  -4.048   0.067  0.00  0.00    +0.025 A 
BRANCH  28  31
ATOM     31  S   UNL     1     -14.126  -4.505   1.468  0.00  0.00    +0.061 S 
ATOM     32  O   UNL     1     -14.585  -3.449   0.634  0.00  0.00    -0.153 OA
ATOM     33  O   UNL     1     -14.770  -5.770   1.518  0.00  0.00    -0.153 OA
BRANCH  31  34
ATOM     34  N   UNL     1     -14.117  -3.916   3.015  0.00  0.00    -0.177 NA
ATOM     35  C   UNL     1     -14.196  -4.725   4.240  0.00  0.00    +0.109 C 
ATOM     36  C   UNL     1     -14.181  -3.749   5.436  0.00  0.00    +0.018 C 
ATOM     37  C   UNL     1     -14.665  -2.418   4.804  0.00  0.00    +0.018 C 
ATOM     38  C   UNL     1     -14.024  -2.494   3.393  0.00  0.00    +0.109 C 
ENDBRANCH  31  34
ENDBRANCH  28  31
ENDBRANCH  23  25
ENDBRANCH  20  21
ENDBRANCH   1  20
TORSDOF 10
