REMARK  Name = ZINC12041926
REMARK  10 active torsions:
REMARK  status: ('A' for Active; 'I' for Inactive)
REMARK    1  A    between atoms: C_1  and  C_2
REMARK    2  A    between atoms: C_8  and  N_28
REMARK    3  A    between atoms: C_10  and  C_12
REMARK    4  A    between atoms: C_12  and  N_64
REMARK    5  A    between atoms: C_16  and  C_19
REMARK    6  A    between atoms: N_28  and  C_29
REMARK    7  A    between atoms: C_29  and  C_30
REMARK    8  A    between atoms: C_30  and  C_31
REMARK    9  A    between atoms: C_31  and  O_32
REMARK   10  A    between atoms: O_32  and  C_33
REMARK                            x       y       z     vdW  Elec       q    Type
REMARK                         _______ _______ _______ _____ _____    ______ ____
ROOT
ATOM      1  C   UNL     1      15.905  -0.072  -3.527  0.00  0.00    +0.044 C 
ATOM      2  C   UNL     1      14.420   0.164  -3.436  0.00  0.00    -0.050 A 
ATOM      3  C   UNL     1      13.541  -0.783  -3.956  0.00  0.00    +0.005 A 
ATOM      4  C   UNL     1      12.192  -0.601  -3.889  0.00  0.00    +0.029 A 
ATOM      5  C   UNL     1      11.679   0.557  -3.289  0.00  0.00    +0.076 A 
ATOM      6  C   UNL     1      12.574   1.519  -2.761  0.00  0.00    +0.040 A 
ATOM      7  C   UNL     1      13.954   1.301  -2.845  0.00  0.00    +0.016 A 
ATOM      8  C   UNL     1      12.030   2.680  -2.160  0.00  0.00    +0.130 A 
ATOM      9  N   UNL     1      10.710   2.809  -2.127  0.00  0.00    -0.219 NA
ATOM     10  C   UNL     1       9.913   1.880  -2.629  0.00  0.00    +0.115 A 
ATOM     11  N   UNL     1      10.360   0.785  -3.197  0.00  0.00    -0.234 NA
ENDROOT
BRANCH   8  12
ATOM     12  N   UNL     1      12.850   3.652  -1.628  0.00  0.00    -0.328 N 
ATOM     13  H   UNL     1      13.814   3.546  -1.662  0.00  0.00    +0.147 HD
BRANCH  12  14
ATOM     14  C   UNL     1      12.266   4.846  -1.011  0.00  0.00    +0.105 C 
BRANCH  14  15
ATOM     15  C   UNL     1      13.385   5.758  -0.504  0.00  0.00    +0.047 C 
BRANCH  15  16
ATOM     16  C   UNL     1      12.775   7.004   0.140  0.00  0.00    +0.161 C 
BRANCH  16  17
ATOM     17  O   UNL     1      13.820   7.856   0.613  0.00  0.00    -0.383 OA
ATOM     18  C   UNL     1      13.356   9.055   1.236  0.00  0.00    +0.193 C 
ENDBRANCH  16  17
ENDBRANCH  15  16
ENDBRANCH  14  15
ENDBRANCH  12  14
ENDBRANCH   8  12
BRANCH  10  19
ATOM     19  C   UNL     1       8.423   2.092  -2.550  0.00  0.00    -0.001 C 
BRANCH  19  25
ATOM     20  C   UNL     1       8.430   2.241  -0.134  0.00  0.00    -0.078 C 
ATOM     21  C   UNL     1       7.997   1.526   1.148  0.00  0.00    -0.018 C 
ATOM     22  C   UNL     1       6.467   1.465   1.200  0.00  0.00    +0.009 C 
ATOM     23  C   UNL     1       5.951   0.746  -0.049  0.00  0.00    +0.059 C 
ATOM     24  C   UNL     1       6.444   1.483  -1.297  0.00  0.00    -0.065 C 
ATOM     25  N   UNL     1       7.922   1.486  -1.300  0.00  0.00    +0.385 N 
ATOM     26  H   UNL     1       8.257   0.517  -1.241  0.00  0.00    -0.081 HD
BRANCH  23  27
ATOM     27  C   UNL     1       4.444   0.733  -0.035  0.00  0.00    +0.198 A 
ATOM     28  N   UNL     1       3.710  -0.339  -0.034  0.00  0.00    -0.213 NA
ATOM     29  C   UNL     1       2.400   0.026  -0.021  0.00  0.00    +0.110 A 
ATOM     30  C   UNL     1       1.199  -0.685  -0.013  0.00  0.00    +0.031 A 
ATOM     31  C   UNL     1       0.002  -0.004   0.002  0.00  0.00    +0.002 A 
ATOM     32  C   UNL     1      -0.017   1.383   0.010  0.00  0.00    +0.004 A 
ATOM     33  C   UNL     1       1.162   2.099   0.002  0.00  0.00    +0.048 A 
ATOM     34  C   UNL     1       2.376   1.429  -0.013  0.00  0.00    +0.155 A 
ATOM     35  O   UNL     1       3.667   1.828  -0.022  0.00  0.00    -0.440 OA
ENDBRANCH  23  27
ENDBRANCH  19  25
ENDBRANCH  10  19
TORSDOF 8
