REMARK  Name = ZINC44164193
REMARK  6 active torsions:
REMARK  status: ('A' for Active; 'I' for Inactive)
REMARK    1  A    between atoms: C_6  and  C_7
REMARK    2  A    between atoms: C_7  and  C_8
REMARK    3  A    between atoms: C_8  and  N_9
REMARK    4  A    between atoms: C_10  and  C_12
REMARK    5  A    between atoms: C_17  and  C_20
REMARK    6  A    between atoms: C_23  and  N_26
REMARK                            x       y       z     vdW  Elec       q    Type
REMARK                         _______ _______ _______ _____ _____    ______ ____
ROOT
ATOM      1  C   UNL     1      -4.889  -2.887  -2.575  0.00  0.00    +0.027 C 
ATOM      2  C   UNL     1      -4.681  -4.226  -1.858  0.00  0.00    +0.062 C 
ATOM      3  S   UNL     1      -6.276  -5.100  -1.806  0.00  0.00    -0.163 S 
ATOM      4  C   UNL     1      -6.837  -5.010  -3.535  0.00  0.00    +0.058 C 
ATOM      5  C   UNL     1      -6.723  -3.554  -4.001  0.00  0.00    -0.030 C 
ATOM      6  N   UNL     1      -5.323  -3.125  -3.953  0.00  0.00    +0.392 N 
ATOM      7  H   UNL     1      -5.221  -2.273  -4.484  0.00  0.00    -0.084 HD
ATOM      8  H   UNL     1      -4.743  -3.841  -4.363  0.00  0.00    -0.084 HD
ENDROOT
BRANCH   5   9
ATOM      9  C   UNL     1      -7.232  -3.439  -5.415  0.00  0.00    -0.060 A 
ATOM     10  C   UNL     1      -6.422  -3.812  -6.472  0.00  0.00    +0.004 A 
ATOM     11  C   UNL     1      -6.885  -3.709  -7.769  0.00  0.00    +0.023 A 
ATOM     12  C   UNL     1      -8.166  -3.230  -8.011  0.00  0.00    +0.030 A 
ATOM     13  C   UNL     1      -8.977  -2.857  -6.947  0.00  0.00    +0.023 A 
ATOM     14  C   UNL     1      -8.510  -2.968  -5.652  0.00  0.00    +0.004 A 
BRANCH  12  15
ATOM     15  N   UNL     1      -8.638  -3.124  -9.322  0.00  0.00    -0.330 N 
ATOM     16  C   UNL     1      -7.889  -3.488 -10.534  0.00  0.00    +0.105 C 
ATOM     17  C   UNL     1      -8.796  -3.178 -11.743  0.00  0.00    +0.020 C 
ATOM     18  C   UNL     1      -9.788  -2.128 -11.173  0.00  0.00    +0.020 C 
ATOM     19  C   UNL     1      -9.970  -2.634  -9.718  0.00  0.00    +0.105 C 
ENDBRANCH  12  15
ENDBRANCH   5   9
BRANCH   1  21
ATOM     20  N   UNL     1      -3.004  -1.778  -1.420  0.00  0.00    -0.316 N 
ATOM     21  C   UNL     1      -3.595  -2.116  -2.584  0.00  0.00    +0.200 C 
ATOM     22  O   UNL     1      -3.084  -1.800  -3.637  0.00  0.00    -0.278 OA
ATOM     23  H   UNL     1      -3.413  -2.030  -0.578  0.00  0.00    +0.149 HD
BRANCH  20  24
ATOM     24  C   UNL     1      -1.745  -1.028  -1.429  0.00  0.00    +0.109 C 
BRANCH  24  25
ATOM     25  C   UNL     1      -1.293  -0.775   0.011  0.00  0.00    +0.054 C 
BRANCH  25  31
ATOM     26  C   UNL     1      -0.017   1.378   0.010  0.00  0.00    +0.005 A 
ATOM     27  C   UNL     1       1.171   2.086   0.002  0.00  0.00    +0.020 A 
ATOM     28  C   UNL     1       2.378   1.410  -0.013  0.00  0.00    +0.041 A 
ATOM     29  C   UNL     1       2.396   0.027  -0.021  0.00  0.00    +0.020 A 
ATOM     30  C   UNL     1       1.208  -0.679  -0.013  0.00  0.00    +0.005 A 
ATOM     31  C   UNL     1       0.002  -0.004   0.002  0.00  0.00    -0.046 A 
ATOM     32 CL   UNL     1       3.870   2.298  -0.023  0.00  0.00    -0.084 Cl
ENDBRANCH  25  31
ENDBRANCH  24  25
ENDBRANCH  20  24
ENDBRANCH   1  21
TORSDOF 6
