REMARK  Name = ZINC02205731
REMARK  10 active torsions:
REMARK  status: ('A' for Active; 'I' for Inactive)
REMARK    1  A    between atoms: C_1  and  C_2
REMARK    2  A    between atoms: N_16  and  C_28
REMARK    3  A    between atoms: C_17  and  C_19
REMARK    4  A    between atoms: C_22  and  O_27
REMARK    5  A    between atoms: C_23  and  O_25
REMARK    6  A    between atoms: O_25  and  C_26
REMARK    7  A    between atoms: C_28  and  C_29
REMARK    8  A    between atoms: C_29  and  C_30
REMARK    9  A    between atoms: C_33  and  O_36
REMARK   10  A    between atoms: O_36  and  C_37
REMARK                            x       y       z     vdW  Elec       q    Type
REMARK                         _______ _______ _______ _____ _____    ______ ____
ROOT
ATOM      1  C   UNL     1      -1.738  -8.183  -1.091  0.00  0.00    +0.045 C 
ATOM      2  C   UNL     1      -0.958  -6.977  -0.634  0.00  0.00    -0.029 A 
ATOM      3  C   UNL     1      -1.445  -5.714  -0.892  0.00  0.00    +0.051 A 
ATOM      4  C   UNL     1      -0.733  -4.594  -0.475  0.00  0.00    +0.140 A 
ATOM      5  C   UNL     1       0.482  -4.774   0.209  0.00  0.00    +0.066 A 
ATOM      6  C   UNL     1       0.965  -6.056   0.465  0.00  0.00    +0.035 A 
ATOM      7  C   UNL     1       0.242  -7.151   0.042  0.00  0.00    +0.045 A 
ATOM      8 CL   UNL     1       0.834  -8.753   0.355  0.00  0.00    -0.083 Cl
ATOM      9  C   UNL     1       1.221  -3.572   0.643  0.00  0.00    +0.199 A 
ATOM     10  O   UNL     1       2.280  -3.653   1.239  0.00  0.00    -0.287 OA
ATOM     11  C   UNL     1       0.618  -2.276   0.319  0.00  0.00    +0.072 A 
ATOM     12  C   UNL     1      -0.562  -2.229  -0.347  0.00  0.00    +0.199 A 
ATOM     13  O   UNL     1      -1.199  -3.356  -0.721  0.00  0.00    -0.450 OA
ATOM     14  C   UNL     1      -0.933  -0.804  -0.537  0.00  0.00    +0.283 C 
ATOM     15  O   UNL     1      -1.939  -0.418  -1.099  0.00  0.00    -0.267 OA
ATOM     16  N   UNL     1       0.002  -0.004   0.002  0.00  0.00    -0.283 N 
ATOM     17  C   UNL     1       1.050  -0.857   0.576  0.00  0.00    +0.145 C 
ENDROOT
BRANCH  17  18
ATOM     18  C   UNL     1       2.369  -0.583  -0.099  0.00  0.00    -0.019 A 
ATOM     19  C   UNL     1       2.415  -0.372  -1.465  0.00  0.00    +0.009 A 
ATOM     20  C   UNL     1       3.622  -0.119  -2.089  0.00  0.00    +0.049 A 
ATOM     21  C   UNL     1       4.791  -0.078  -1.345  0.00  0.00    +0.158 A 
ATOM     22  C   UNL     1       4.745  -0.291   0.029  0.00  0.00    +0.162 A 
ATOM     23  C   UNL     1       3.531  -0.537   0.649  0.00  0.00    +0.055 A 
BRANCH  22  24
ATOM     24  O   UNL     1       5.890  -0.251   0.763  0.00  0.00    -0.491 OA
ATOM     25  C   UNL     1       5.767  -0.478   2.168  0.00  0.00    +0.277 C 
ENDBRANCH  22  24
BRANCH  21  26
ATOM     26  O   UNL     1       5.979   0.171  -1.958  0.00  0.00    -0.503 OA
ATOM     27  H   UNL     1       6.209   1.109  -2.004  0.00  0.00    +0.292 HD
ENDBRANCH  21  26
ENDBRANCH  17  18
BRANCH  16  28
ATOM     28  C   UNL     1      -0.018   1.461   0.010  0.00  0.00    +0.114 C 
BRANCH  28  29
ATOM     29  C   UNL     1      -0.734   1.954   1.269  0.00  0.00    +0.054 C 
BRANCH  29  30
ATOM     30  C   UNL     1      -0.754   3.461   1.277  0.00  0.00    -0.046 A 
ATOM     31  C   UNL     1       0.277   4.162   1.875  0.00  0.00    +0.007 A 
ATOM     32  C   UNL     1       0.263   5.543   1.879  0.00  0.00    +0.046 A 
ATOM     33  C   UNL     1      -0.792   6.227   1.292  0.00  0.00    +0.120 A 
ATOM     34  C   UNL     1      -1.828   5.521   0.698  0.00  0.00    +0.046 A 
ATOM     35  C   UNL     1      -1.807   4.140   0.692  0.00  0.00    +0.007 A 
BRANCH  33  36
ATOM     36  O   UNL     1      -0.810   7.586   1.300  0.00  0.00    -0.495 OA
ATOM     37  C   UNL     1       0.290   8.246   1.929  0.00  0.00    +0.277 C 
ENDBRANCH  33  36
ENDBRANCH  29  30
ENDBRANCH  28  29
ENDBRANCH  16  28
TORSDOF 7
