REMARK  Name = ZINC61818211
REMARK  6 active torsions:
REMARK  status: ('A' for Active; 'I' for Inactive)
REMARK    1  A    between atoms: C_1  and  C_2
REMARK    2  A    between atoms: C_2  and  C_21
REMARK    3  A    between atoms: N_5  and  C_8
REMARK    4  A    between atoms: C_8  and  C_9
REMARK    5  A    between atoms: N_11  and  C_12
REMARK    6  A    between atoms: C_15  and  N_19
REMARK                            x       y       z     vdW  Elec       q    Type
REMARK                         _______ _______ _______ _____ _____    ______ ____
ROOT
ATOM      1  C   UNL     1       0.636  -5.214   2.002  0.00  0.00    +0.201 C 
ATOM      2  O   UNL     1       1.834  -5.052   2.107  0.00  0.00    -0.278 OA
ATOM      3  N   UNL     1      -0.074  -5.689   3.045  0.00  0.00    -0.285 N 
ATOM      4  H   UNL     1      -1.040  -5.750   2.986  0.00  0.00    +0.155 HD
ENDROOT
BRANCH   3   5
ATOM      5  C   UNL     1       0.584  -6.095   4.215  0.00  0.00    +0.070 A 
ATOM      6  C   UNL     1       0.792  -5.187   5.245  0.00  0.00    +0.065 A 
ATOM      7  C   UNL     1       1.440  -5.587   6.398  0.00  0.00    +0.044 A 
ATOM      8  C   UNL     1       1.885  -6.897   6.526  0.00  0.00    +0.027 A 
ATOM      9  C   UNL     1       1.678  -7.804   5.495  0.00  0.00    +0.044 A 
ATOM     10  C   UNL     1       1.024  -7.406   4.345  0.00  0.00    +0.065 A 
ATOM     11 CL   UNL     1       0.758  -8.543   3.060  0.00  0.00    -0.082 Cl
ATOM     12 CL   UNL     1       0.237  -3.550   5.085  0.00  0.00    -0.082 Cl
BRANCH   8  13
ATOM     13  N   UNL     1       2.541  -7.302   7.693  0.00  0.00    -0.358 N 
ATOM     14  H   UNL     1       2.686  -6.668   8.413  0.00  0.00    +0.142 HD
ATOM     15  H   UNL     1       2.851  -8.216   7.782  0.00  0.00    +0.142 HD
ENDBRANCH   8  13
ENDBRANCH   3   5
BRANCH   1  16
ATOM     16  C   UNL     1      -0.058  -4.885   0.705  0.00  0.00    +0.019 C 
BRANCH  16  21
ATOM     17  C   UNL     1       3.352  -3.821  -3.740  0.00  0.00    +0.011 C 
ATOM     18  C   UNL     1       2.292  -4.429  -2.821  0.00  0.00    -0.038 C 
ATOM     19  C   UNL     1       1.249  -3.365  -2.468  0.00  0.00    -0.012 C 
ATOM     20  C   UNL     1       0.236  -3.957  -1.485  0.00  0.00    -0.078 C 
ATOM     21  N   UNL     1       0.928  -4.389  -0.265  0.00  0.00    +0.385 N 
ATOM     22  C   UNL     1       1.879  -5.461  -0.585  0.00  0.00    -0.078 C 
ATOM     23  C   UNL     1       2.955  -4.927  -1.533  0.00  0.00    -0.012 C 
ATOM     24  C   UNL     1       1.609  -5.601  -3.530  0.00  0.00    +0.011 C 
ATOM     25  H   UNL     1       1.425  -3.607   0.134  0.00  0.00    -0.081 HD
ENDBRANCH  16  21
ENDBRANCH   1  16
TORSDOF 4
