REMARK  Name = ZINC11789003
REMARK  8 active torsions:
REMARK  status: ('A' for Active; 'I' for Inactive)
REMARK    1  A    between atoms: C_1  and  C_2
REMARK    2  A    between atoms: C_2  and  C_3
REMARK    3  A    between atoms: C_3  and  C_4
REMARK    4  A    between atoms: C_4  and  C_18
REMARK    5  A    between atoms: N_7  and  C_11
REMARK    6  A    between atoms: C_11  and  C_12
REMARK    7  A    between atoms: C_23  and  C_24
REMARK    8  A    between atoms: C_23  and  N_68
REMARK                            x       y       z     vdW  Elec       q    Type
REMARK                         _______ _______ _______ _____ _____    ______ ____
ROOT
ATOM      1  C   UNL     1      -5.908   6.190   3.738  0.00  0.00    +0.018 C 
ATOM      2  C   UNL     1      -5.573   7.477   2.980  0.00  0.00    -0.013 C 
ATOM      3  C   UNL     1      -5.268   7.138   1.519  0.00  0.00    -0.078 C 
ATOM      4  C   UNL     1      -4.453   4.942   2.138  0.00  0.00    -0.078 C 
ATOM      5  C   UNL     1      -4.733   5.215   3.617  0.00  0.00    -0.013 C 
ATOM      6  N   UNL     1      -4.113   6.217   1.471  0.00  0.00    +0.382 N 
ATOM      7  H   UNL     1      -3.321   6.649   1.962  0.00  0.00    -0.081 HD
ENDROOT
BRANCH   1   8
ATOM      8  C   UNL     1      -6.156   6.514   5.212  0.00  0.00    +0.115 C 
ATOM      9  C   UNL     1      -7.227   7.578   5.351  0.00  0.00    +0.247 C 
ATOM     10  O   UNL     1      -8.382   7.506   4.991  0.00  0.00    -0.273 OA
ATOM     11  N   UNL     1      -6.627   8.622   5.957  0.00  0.00    -0.222 N 
ATOM     12  C   UNL     1      -5.339   8.367   6.218  0.00  0.00    +0.309 C 
ATOM     13  O   UNL     1      -4.591   9.157   6.760  0.00  0.00    -0.252 OA
ATOM     14  N   UNL     1      -4.965   7.141   5.812  0.00  0.00    -0.285 N 
ATOM     15  H   UNL     1      -4.084   6.745   5.899  0.00  0.00    +0.151 HD
BRANCH   8  16
ATOM     16  C   UNL     1      -6.545   5.250   5.982  0.00  0.00    +0.035 C 
BRANCH  16  18
ATOM     17  C   UNL     1      -7.176   4.338   8.220  0.00  0.00    +0.004 C 
ATOM     18  C   UNL     1      -6.787   5.602   7.451  0.00  0.00    -0.001 C 
ENDBRANCH  16  18
ENDBRANCH   8  16
BRANCH  11  19
ATOM     19  C   UNL     1      -7.301   9.879   6.289  0.00  0.00    +0.149 C 
BRANCH  19  20
ATOM     20  C   UNL     1      -7.169  10.854   5.117  0.00  0.00    +0.136 C 
ATOM     21  C   UNL     1      -7.814  12.216   5.475  0.00  0.00    +0.035 C 
ATOM     22  C   UNL     1      -7.039  13.168   4.524  0.00  0.00    +0.031 C 
ATOM     23  C   UNL     1      -5.639  12.519   4.480  0.00  0.00    +0.160 C 
ATOM     24  O   UNL     1      -5.785  11.148   4.867  0.00  0.00    -0.375 OA
ENDBRANCH  19  20
ENDBRANCH  11  19
ENDBRANCH   1   8
BRANCH   6  25
ATOM     25  C   UNL     1      -3.727   5.965   0.067  0.00  0.00    -0.043 C 
BRANCH  25  26
ATOM     26  C   UNL     1      -2.424   5.206   0.051  0.00  0.00    -0.063 A 
ATOM     27  C   UNL     1      -1.221   5.909   0.042  0.00  0.00    +0.002 A 
ATOM     28  C   UNL     1      -0.028   5.255   0.029  0.00  0.00    +0.009 A 
ATOM     29  C   UNL     1      -0.005   3.850   0.021  0.00  0.00    -0.018 A 
ATOM     30  C   UNL     1       1.208   3.139   0.006  0.00  0.00    +0.008 A 
ATOM     31  C   UNL     1       1.191   1.779   0.000  0.00  0.00    +0.001 A 
ATOM     32  C   UNL     1      -0.013   1.076   0.008  0.00  0.00    +0.001 A 
ATOM     33  C   UNL     1      -1.206   1.730   0.017  0.00  0.00    +0.008 A 
ATOM     34  C   UNL     1      -1.229   3.135   0.030  0.00  0.00    -0.018 A 
ATOM     35  C   UNL     1      -2.441   3.845   0.045  0.00  0.00    +0.010 A 
ENDBRANCH  25  26
ENDBRANCH   6  25
TORSDOF 7
