REMARK  Name = ZINC09192298
REMARK  14 active torsions:
REMARK  status: ('A' for Active; 'I' for Inactive)
REMARK    1  A    between atoms: C_1  and  C_2
REMARK    2  A    between atoms: C_2  and  O_3
REMARK    3  A    between atoms: O_3  and  C_4
REMARK    4  A    between atoms: C_7  and  C_10
REMARK    5  A    between atoms: C_17  and  N_37
REMARK    6  A    between atoms: C_18  and  C_35
REMARK    7  A    between atoms: C_19  and  C_21
REMARK    8  A    between atoms: C_23  and  O_33
REMARK    9  A    between atoms: C_24  and  O_29
REMARK   10  A    between atoms: C_25  and  O_27
REMARK   11  A    between atoms: O_27  and  C_28
REMARK   12  A    between atoms: O_29  and  C_30
REMARK   13  A    between atoms: C_30  and  C_32
REMARK   14  A    between atoms: O_33  and  C_34
REMARK                            x       y       z     vdW  Elec       q    Type
REMARK                         _______ _______ _______ _____ _____    ______ ____
ROOT
ATOM      1  C   UNL     1       1.113  -5.985   1.762  0.00  0.00    +0.074 A 
ATOM      2  C   UNL     1       1.001  -6.704   2.905  0.00  0.00    +0.054 A 
ATOM      3  C   UNL     1       1.194  -8.063   2.588  0.00  0.00    +0.245 A 
ATOM      4  N   UNL     1       1.414  -8.158   1.308  0.00  0.00    -0.135 NA
ATOM      5  N   UNL     1       1.364  -6.870   0.751  0.00  0.00    -0.273 N 
ATOM      6  H   UNL     1       1.489  -6.647  -0.185  0.00  0.00    +0.189 HD
ATOM      7  O   UNL     1       1.138  -9.039   3.535  0.00  0.00    -0.421 OA
ATOM      8  C   UNL     1       0.627  -8.709   4.737  0.00  0.00    +0.201 C 
ATOM      9  C   UNL     1       0.410  -7.444   5.155  0.00  0.00    +0.098 C 
ATOM     10  C   UNL     1       0.724  -6.235   4.311  0.00  0.00    +0.102 C 
ENDROOT
BRANCH   1  14
ATOM     11  C   UNL     1       0.734  -1.769   1.385  0.00  0.00    +0.121 A 
ATOM     12  C   UNL     1       1.796  -2.426   0.779  0.00  0.00    +0.046 A 
ATOM     13  C   UNL     1       1.923  -3.793   0.899  0.00  0.00    +0.013 A 
ATOM     14  C   UNL     1       0.981  -4.518   1.631  0.00  0.00    +0.000 A 
ATOM     15  C   UNL     1      -0.085  -3.854   2.239  0.00  0.00    +0.013 A 
ATOM     16  C   UNL     1      -0.202  -2.486   2.119  0.00  0.00    +0.046 A 
BRANCH  11  17
ATOM     17  O   UNL     1       0.612  -0.421   1.265  0.00  0.00    -0.492 OA
BRANCH  17  19
ATOM     18  C   UNL     1       1.308   1.754   0.474  0.00  0.00    +0.048 C 
ATOM     19  C   UNL     1       1.610   0.254   0.496  0.00  0.00    +0.225 C 
ENDBRANCH  17  19
ENDBRANCH  11  17
ENDBRANCH   1  14
BRANCH  10  20
ATOM     20  C   UNL     1       1.938  -5.532   4.861  0.00  0.00    -0.027 A 
ATOM     21  C   UNL     1       3.157  -6.183   4.892  0.00  0.00    +0.054 A 
ATOM     22  C   UNL     1       4.276  -5.540   5.397  0.00  0.00    +0.166 A 
ATOM     23  C   UNL     1       4.172  -4.238   5.873  0.00  0.00    +0.214 A 
ATOM     24  C   UNL     1       2.944  -3.586   5.840  0.00  0.00    +0.166 A 
ATOM     25  C   UNL     1       1.831  -4.235   5.328  0.00  0.00    +0.054 A 
BRANCH  24  26
ATOM     26  O   UNL     1       2.836  -2.313   6.304  0.00  0.00    -0.491 OA
ATOM     27  C   UNL     1       1.544  -1.706   6.239  0.00  0.00    +0.277 C 
ENDBRANCH  24  26
BRANCH  22  28
ATOM     28  O   UNL     1       5.475  -6.182   5.428  0.00  0.00    -0.491 OA
ATOM     29  C   UNL     1       5.508  -7.518   4.923  0.00  0.00    +0.277 C 
ENDBRANCH  22  28
BRANCH  23  30
ATOM     30  O   UNL     1       5.268  -3.603   6.370  0.00  0.00    -0.419 OA
BRANCH  30  31
ATOM     31  C   UNL     1       6.025  -2.894   5.519  0.00  0.00    +0.309 C 
ATOM     32  O   UNL     1       5.725  -2.833   4.347  0.00  0.00    -0.251 OA
ATOM     33  C   UNL     1       7.250  -2.173   6.022  0.00  0.00    +0.136 C 
ENDBRANCH  30  31
ENDBRANCH  23  30
ENDBRANCH  10  20
BRANCH   8  34
ATOM     34  N   UNL     1       0.305  -9.730   5.596  0.00  0.00    -0.328 N 
ATOM     35  H   UNL     1       0.448 -10.651   5.330  0.00  0.00    +0.145 HD
ATOM     36  H   UNL     1      -0.066  -9.530   6.470  0.00  0.00    +0.145 HD
ENDBRANCH   8  34
BRANCH   9  37
ATOM     37  C   UNL     1      -0.145  -7.241   6.460  0.00  0.00    +0.101 C 
ATOM     38  N   UNL     1      -0.584  -7.080   7.495  0.00  0.00    -0.191 NA
ENDBRANCH   9  37
TORSDOF 10
