REMARK  Name = ZINC39966828
REMARK  10 active torsions:
REMARK  status: ('A' for Active; 'I' for Inactive)
REMARK    1  A    between atoms: C_1  and  C_2
REMARK    2  A    between atoms: C_2  and  C_3
REMARK    3  A    between atoms: C_2  and  C_4
REMARK    4  A    between atoms: C_7  and  N_10
REMARK    5  A    between atoms: C_11  and  C_13
REMARK    6  A    between atoms: C_13  and  S_14
REMARK    7  A    between atoms: S_14  and  C_15
REMARK    8  A    between atoms: C_18  and  C_27
REMARK    9  A    between atoms: N_19  and  C_20
REMARK   10  A    between atoms: C_20  and  C_21
REMARK                            x       y       z     vdW  Elec       q    Type
REMARK                         _______ _______ _______ _____ _____    ______ ____
ROOT
ATOM      1  C   UNL     1      -9.270  -4.392  -2.426  0.00  0.00    +0.192 A 
ATOM      2  N   UNL     1     -10.175  -4.003  -1.559  0.00  0.00    -0.122 NA
ATOM      3  N   UNL     1     -11.313  -4.531  -1.841  0.00  0.00    -0.128 NA
ATOM      4  C   UNL     1     -11.203  -5.289  -2.907  0.00  0.00    +0.166 A 
ATOM      5  N   UNL     1      -9.893  -5.220  -3.319  0.00  0.00    -0.300 N 
ENDROOT
BRANCH   4   6
ATOM      6  C   UNL     1     -12.285  -6.067  -3.548  0.00  0.00    +0.030 A 
ATOM      7  C   UNL     1     -12.463  -6.010  -4.899  0.00  0.00    +0.057 A 
ATOM      8  S   UNL     1     -13.857  -7.101  -5.132  0.00  0.00    -0.101 S 
ATOM      9  C   UNL     1     -14.098  -7.556  -3.434  0.00  0.00    -0.006 A 
ATOM     10  C   UNL     1     -13.136  -6.874  -2.766  0.00  0.00    -0.026 A 
ATOM     11  C   UNL     1     -12.989  -6.958  -1.249  0.00  0.00    +0.036 C 
ATOM     12  C   UNL     1     -13.534  -8.290  -0.747  0.00  0.00    +0.005 C 
ATOM     13  C   UNL     1     -15.022  -8.175  -0.420  0.00  0.00    +0.001 C 
ATOM     14  C   UNL     1     -15.811  -7.837  -1.681  0.00  0.00    +0.005 C 
ATOM     15  C   UNL     1     -15.122  -8.492  -2.877  0.00  0.00    +0.043 C 
ENDBRANCH   4   6
BRANCH   1  16
ATOM     16  S   UNL     1      -7.570  -3.928  -2.441  0.00  0.00    -0.077 S 
BRANCH  16  17
ATOM     17  C   UNL     1      -7.402  -2.830  -1.006  0.00  0.00    +0.173 C 
BRANCH  17  19
ATOM     18  N   UNL     1      -5.614  -1.524   0.096  0.00  0.00    -0.285 N 
ATOM     19  C   UNL     1      -5.976  -2.355  -0.902  0.00  0.00    +0.227 C 
ATOM     20  O   UNL     1      -5.153  -2.721  -1.715  0.00  0.00    -0.275 OA
ATOM     21  H   UNL     1      -6.253  -1.289   0.787  0.00  0.00    +0.155 HD
BRANCH  18  25
ATOM     22  C   UNL     1      -1.753   0.038   0.209  0.00  0.00    -0.045 A 
ATOM     23  C   UNL     1      -2.369  -0.191  -1.007  0.00  0.00    +0.006 A 
ATOM     24  C   UNL     1      -3.649  -0.709  -1.048  0.00  0.00    +0.023 A 
ATOM     25  C   UNL     1      -4.317  -1.000   0.134  0.00  0.00    +0.033 A 
ATOM     26  C   UNL     1      -3.695  -0.769   1.354  0.00  0.00    +0.023 A 
ATOM     27  C   UNL     1      -2.414  -0.256   1.388  0.00  0.00    +0.006 A 
BRANCH  22  29
ATOM     28  C   UNL     1       0.598  -0.343  -0.482  0.00  0.00    +0.012 C 
ATOM     29  C   UNL     1      -0.356   0.602   0.250  0.00  0.00    +0.013 C 
ATOM     30  C   UNL     1      -0.340   1.972  -0.431  0.00  0.00    +0.012 C 
ENDBRANCH  22  29
ENDBRANCH  18  25
ENDBRANCH  17  19
ENDBRANCH  16  17
ENDBRANCH   1  16
BRANCH   5  31
ATOM     31  C   UNL     1      -9.289  -5.895  -4.471  0.00  0.00    +0.157 C 
BRANCH  31  32
ATOM     32  C   UNL     1      -8.725  -7.248  -4.031  0.00  0.00    +0.138 C 
ATOM     33  C   UNL     1      -8.163  -8.018  -5.252  0.00  0.00    +0.035 C 
ATOM     34  C   UNL     1      -7.128  -8.949  -4.563  0.00  0.00    +0.031 C 
ATOM     35  C   UNL     1      -6.613  -8.066  -3.406  0.00  0.00    +0.160 C 
ATOM     36  O   UNL     1      -7.603  -7.059  -3.155  0.00  0.00    -0.375 OA
ENDBRANCH  31  32
ENDBRANCH   5  31
TORSDOF 8
