REMARK  Name = ZINC63262059
REMARK  5 active torsions:
REMARK  status: ('A' for Active; 'I' for Inactive)
REMARK    1  A    between atoms: C_1  and  C_2
REMARK    2  A    between atoms: C_9  and  N_12
REMARK    3  A    between atoms: C_13  and  C_15
REMARK    4  A    between atoms: C_15  and  S_16
REMARK    5  A    between atoms: S_16  and  C_17
REMARK                            x       y       z     vdW  Elec       q    Type
REMARK                         _______ _______ _______ _____ _____    ______ ____
ROOT
ATOM      1  N   UNL     1       1.291  -5.596   1.619  0.00  0.00    -0.288 N 
ATOM      2  C   UNL     1       1.415  -6.358   2.724  0.00  0.00    +0.225 C 
ATOM      3  O   UNL     1       0.518  -6.394   3.539  0.00  0.00    -0.275 OA
ATOM      4  H   UNL     1       2.008  -5.567   0.967  0.00  0.00    +0.151 HD
ENDROOT
BRANCH   1  13
ATOM      5  C   UNL     1      -0.018   1.503   0.010  0.00  0.00    +0.044 C 
ATOM      6  C   UNL     1       0.002  -0.004   0.002  0.00  0.00    -0.049 A 
ATOM      7  C   UNL     1       0.006  -0.700  -1.193  0.00  0.00    +0.005 A 
ATOM      8  C   UNL     1       0.025  -2.075  -1.215  0.00  0.00    +0.024 A 
ATOM      9  C   UNL     1       0.040  -2.822  -0.023  0.00  0.00    +0.043 A 
ATOM     10  C   UNL     1       0.035  -2.090   1.168  0.00  0.00    +0.032 A 
ATOM     11  C   UNL     1       0.023  -0.714   1.191  0.00  0.00    +0.020 A 
ATOM     12  S   UNL     1       0.057  -3.310   2.462  0.00  0.00    -0.082 S 
ATOM     13  C   UNL     1       0.072  -4.811   1.404  0.00  0.00    +0.224 C 
ATOM     14  N   UNL     1       0.059  -4.213   0.062  0.00  0.00    -0.316 N 
ATOM     15  H   UNL     1       0.062  -4.766  -0.735  0.00  0.00    +0.149 HD
ENDBRANCH   1  13
BRANCH   2  16
ATOM     16  C   UNL     1       2.668  -7.165   2.945  0.00  0.00    +0.168 C 
BRANCH  16  17
ATOM     17  S   UNL     1       2.531  -8.077   4.508  0.00  0.00    -0.106 S 
BRANCH  17  18
ATOM     18  C   UNL     1       4.098  -8.985   4.624  0.00  0.00    +0.236 C 
ATOM     19  N   UNL     1       4.278  -9.833   3.439  0.00  0.00    -0.355 N 
ATOM     20  C   UNL     1       5.365  -9.440   2.840  0.00  0.00    +0.061 A 
ATOM     21  C   UNL     1       6.055  -9.894   1.625  0.00  0.00    +0.027 A 
ATOM     22  C   UNL     1       7.192  -9.281   1.238  0.00  0.00    +0.002 A 
ATOM     23  C   UNL     1       7.759  -8.212   1.954  0.00  0.00    +0.002 A 
ATOM     24  C   UNL     1       7.208  -7.719   3.081  0.00  0.00    +0.027 A 
ATOM     25  C   UNL     1       5.965  -8.308   3.598  0.00  0.00    +0.061 A 
ATOM     26  N   UNL     1       5.225  -8.044   4.636  0.00  0.00    -0.355 N 
ATOM     27  H   UNL     1       3.695 -10.554   3.155  0.00  0.00    +0.162 HD
ATOM     28  H   UNL     1       5.389  -7.353   5.297  0.00  0.00    +0.162 HD
ENDBRANCH  17  18
ENDBRANCH  16  17
ENDBRANCH   2  16
TORSDOF 4
