REMARK  Name = ZINC00985578
REMARK  10 active torsions:
REMARK  status: ('A' for Active; 'I' for Inactive)
REMARK    1  A    between atoms: C_1  and  O_2
REMARK    2  A    between atoms: O_2  and  C_3
REMARK    3  A    between atoms: C_6  and  C_13
REMARK    4  A    between atoms: C_7  and  O_11
REMARK    5  A    between atoms: C_8  and  O_9
REMARK    6  A    between atoms: O_9  and  C_10
REMARK    7  A    between atoms: O_11  and  C_12
REMARK    8  A    between atoms: C_16  and  C_27
REMARK    9  A    between atoms: C_22  and  N_26
REMARK   10  A    between atoms: C_23  and  C_24
REMARK                            x       y       z     vdW  Elec       q    Type
REMARK                         _______ _______ _______ _____ _____    ______ ____
ROOT
ATOM      1  C   UNL     1      -4.994  -2.620   0.038  0.00  0.00    +0.105 C 
ATOM      2  C   UNL     1      -5.769  -2.215   1.265  0.00  0.00    +0.054 A 
ATOM      3  C   UNL     1      -5.561  -2.573   2.600  0.00  0.00    +0.100 A 
ATOM      4  N   UNL     1      -6.486  -1.977   3.329  0.00  0.00    -0.171 NA
ATOM      5  N   UNL     1      -7.306  -1.225   2.474  0.00  0.00    -0.246 N 
ATOM      6  H   UNL     1      -8.066  -0.685   2.742  0.00  0.00    +0.192 HD
ATOM      7  C   UNL     1      -6.850  -1.385   1.214  0.00  0.00    +0.223 A 
ATOM      8  O   UNL     1      -7.316  -0.860   0.053  0.00  0.00    -0.423 OA
ATOM      9  C   UNL     1      -6.858  -1.389  -1.100  0.00  0.00    +0.200 C 
ATOM     10  C   UNL     1      -5.789  -2.213  -1.178  0.00  0.00    +0.098 C 
ENDROOT
BRANCH   3  11
ATOM     11  C   UNL     1      -4.489  -3.466   3.108  0.00  0.00    +0.004 A 
ATOM     12  C   UNL     1      -4.060  -4.548   2.343  0.00  0.00    +0.011 A 
ATOM     13  C   UNL     1      -3.064  -5.376   2.819  0.00  0.00    +0.022 A 
ATOM     14  C   UNL     1      -2.490  -5.133   4.055  0.00  0.00    +0.059 A 
ATOM     15  C   UNL     1      -2.913  -4.058   4.820  0.00  0.00    +0.060 A 
ATOM     16  C   UNL     1      -3.906  -3.221   4.349  0.00  0.00    +0.031 A 
ATOM     17 CL   UNL     1      -2.189  -3.759   6.370  0.00  0.00    -0.082 Cl
ATOM     18 CL   UNL     1      -1.238  -6.178   4.649  0.00  0.00    -0.082 Cl
ENDBRANCH   3  11
BRANCH   1  22
ATOM     19  C   UNL     1      -1.201  -0.638   0.010  0.00  0.00    +0.165 A 
ATOM     20  C   UNL     1      -2.375   0.101   0.019  0.00  0.00    +0.050 A 
ATOM     21  C   UNL     1      -3.598  -0.543   0.028  0.00  0.00    +0.012 A 
ATOM     22  C   UNL     1      -3.657  -1.924   0.028  0.00  0.00    +0.011 A 
ATOM     23  C   UNL     1      -2.488  -2.670   0.018  0.00  0.00    +0.169 A 
ATOM     24  C   UNL     1      -1.256  -2.026   0.003  0.00  0.00    +0.204 A 
BRANCH  19  26
ATOM     25  C   UNL     1      -0.017   1.425   0.010  0.00  0.00    +0.277 C 
ATOM     26  O   UNL     1       0.002  -0.004   0.002  0.00  0.00    -0.491 OA
ENDBRANCH  19  26
BRANCH  24  27
ATOM     27  O   UNL     1      -0.106  -2.755  -0.012  0.00  0.00    -0.488 OA
ATOM     28  C   UNL     1       0.454  -3.109   1.254  0.00  0.00    +0.277 C 
ENDBRANCH  24  27
BRANCH  23  29
ATOM     29  O   UNL     1      -2.547  -4.028   0.018  0.00  0.00    -0.491 OA
ATOM     30  C   UNL     1      -2.586  -4.676  -1.255  0.00  0.00    +0.277 C 
ENDBRANCH  23  29
ENDBRANCH   1  22
BRANCH   9  31
ATOM     31  N   UNL     1      -7.516  -1.072  -2.263  0.00  0.00    -0.328 N 
ATOM     32  H   UNL     1      -8.286  -0.483  -2.239  0.00  0.00    +0.145 HD
ATOM     33  H   UNL     1      -7.210  -1.437  -3.108  0.00  0.00    +0.145 HD
ENDBRANCH   9  31
BRANCH  10  34
ATOM     34  C   UNL     1      -5.397  -2.717  -2.459  0.00  0.00    +0.101 C 
ATOM     35  N   UNL     1      -5.086  -3.118  -3.476  0.00  0.00    -0.191 NA
ENDBRANCH  10  34
TORSDOF 7
