REMARK  Name = ZINC08915346
REMARK  5 active torsions:
REMARK  status: ('A' for Active; 'I' for Inactive)
REMARK    1  A    between atoms: C_4  and  C_7
REMARK    2  A    between atoms: C_7  and  C_9
REMARK    3  A    between atoms: C_11  and  C_23
REMARK    4  A    between atoms: C_17  and  C_18
REMARK    5  A    between atoms: C_17  and  O_22
REMARK                            x       y       z     vdW  Elec       q    Type
REMARK                         _______ _______ _______ _____ _____    ______ ____
ROOT
ATOM      1  C   UNL     1       4.054  -2.525  -0.496  0.00  0.00    +0.144 C 
ATOM      2  C   UNL     1       4.893  -2.759   0.765  0.00  0.00    +0.120 C 
ATOM      3  N   UNL     1       6.160  -2.037   0.639  0.00  0.00    -0.292 N 
ATOM      4  C   UNL     1       6.716  -1.806  -0.560  0.00  0.00    +0.302 C 
ATOM      5  O   UNL     1       7.775  -1.211  -0.608  0.00  0.00    -0.253 OA
ATOM      6  N   UNL     1       6.149  -2.207  -1.708  0.00  0.00    -0.264 N 
ATOM      7  C   UNL     1       4.878  -2.940  -1.720  0.00  0.00    +0.243 C 
ATOM      8  H   UNL     1       6.607  -1.718   1.439  0.00  0.00    +0.151 HD
ATOM      9  H   UNL     1       6.589  -2.007  -2.550  0.00  0.00    +0.153 HD
ENDROOT
BRANCH   2  10
ATOM     10  C   UNL     1       5.165  -4.233   0.922  0.00  0.00    -0.025 A 
ATOM     11  C   UNL     1       6.397  -4.750   0.565  0.00  0.00    +0.007 A 
ATOM     12  C   UNL     1       6.648  -6.101   0.708  0.00  0.00    +0.022 A 
ATOM     13  C   UNL     1       5.666  -6.938   1.210  0.00  0.00    +0.059 A 
ATOM     14  C   UNL     1       4.433  -6.420   1.567  0.00  0.00    +0.060 A 
ATOM     15  C   UNL     1       4.186  -5.066   1.428  0.00  0.00    +0.027 A 
ATOM     16 CL   UNL     1       3.200  -7.468   2.196  0.00  0.00    -0.082 Cl
ATOM     17 CL   UNL     1       5.980  -8.636   1.389  0.00  0.00    -0.082 Cl
ENDBRANCH   2  10
BRANCH   7  18
ATOM     18  C   UNL     1       4.101  -2.609  -2.995  0.00  0.00    +0.436 C 
ATOM     19  F   UNL     1       3.929  -1.224  -3.091  0.00  0.00    -0.166 F 
ATOM     20  F   UNL     1       4.814  -3.068  -4.108  0.00  0.00    -0.166 F 
ATOM     21  F   UNL     1       2.849  -3.232  -2.954  0.00  0.00    -0.166 F 
ENDBRANCH   7  18
BRANCH   1  22
ATOM     22  C   UNL     1       3.693  -1.065  -0.600  0.00  0.00    +0.173 C 
ATOM     23  O   UNL     1       4.540  -0.217  -0.419  0.00  0.00    -0.292 OA
BRANCH  22  27
ATOM     24  C   UNL     1      -0.286   0.075  -1.527  0.00  0.00    +0.000 A 
ATOM     25  C   UNL     1       0.675   1.047  -1.305  0.00  0.00    +0.001 A 
ATOM     26  C   UNL     1       1.970   0.684  -1.003  0.00  0.00    +0.011 A 
ATOM     27  C   UNL     1       2.312  -0.670  -0.921  0.00  0.00    +0.018 A 
ATOM     28  C   UNL     1       1.336  -1.645  -1.147  0.00  0.00    +0.011 A 
ATOM     29  C   UNL     1       0.045  -1.266  -1.448  0.00  0.00    +0.001 A 
ENDBRANCH  22  27
ENDBRANCH   1  22
BRANCH   7  30
ATOM     30  O   UNL     1       5.136  -4.344  -1.667  0.00  0.00    -0.364 OA
ATOM     31  H   UNL     1       5.655  -4.677  -2.413  0.00  0.00    +0.212 HD
ENDBRANCH   7  30
TORSDOF 5
