REMARK  Name = ZINC16481169
REMARK  8 active torsions:
REMARK  status: ('A' for Active; 'I' for Inactive)
REMARK    1  A    between atoms: C_1  and  C_2
REMARK    2  A    between atoms: C_2  and  C_4
REMARK    3  A    between atoms: C_2  and  N_15
REMARK    4  A    between atoms: N_6  and  C_7
REMARK    5  A    between atoms: C_12  and  S_13
REMARK    6  A    between atoms: S_13  and  C_14
REMARK    7  A    between atoms: N_18  and  C_21
REMARK    8  A    between atoms: C_26  and  O_27
REMARK                            x       y       z     vdW  Elec       q    Type
REMARK                         _______ _______ _______ _____ _____    ______ ____
ROOT
ATOM      1  C   UNL     1      -1.519  -0.050  -0.589  0.00  0.00    +0.034 C 
ATOM      2  C   UNL     1      -0.084   0.096  -0.079  0.00  0.00    +0.140 C 
ENDROOT
BRANCH   2   3
ATOM      3  N   UNL     1       0.854  -0.325  -1.129  0.00  0.00    -0.289 NA
ATOM      4  C   UNL     1       0.920  -1.789  -1.220  0.00  0.00    +0.104 C 
ATOM      5  C   UNL     1       2.034  -2.188  -2.193  0.00  0.00    +0.120 C 
ATOM      6  N   UNL     1       1.808  -1.495  -3.471  0.00  0.00    -0.325 N 
ATOM      7  C   UNL     1       1.596  -0.040  -3.446  0.00  0.00    +0.120 C 
ATOM      8  C   UNL     1       0.498   0.274  -2.423  0.00  0.00    +0.104 C 
BRANCH   6   9
ATOM      9  C   UNL     1       1.797  -2.202  -4.679  0.00  0.00    +0.072 A 
ATOM     10  C   UNL     1       0.608  -2.724  -5.168  0.00  0.00    +0.027 A 
ATOM     11  C   UNL     1       0.599  -3.421  -6.361  0.00  0.00    +0.002 A 
ATOM     12  C   UNL     1       1.772  -3.601  -7.070  0.00  0.00    +0.004 A 
ATOM     13  C   UNL     1       2.961  -3.084  -6.588  0.00  0.00    +0.047 A 
ATOM     14  C   UNL     1       2.978  -2.379  -5.396  0.00  0.00    +0.138 A 
BRANCH  14  15
ATOM     15  O   UNL     1       4.146  -1.866  -4.924  0.00  0.00    -0.505 OA
ATOM     16  H   UNL     1       4.637  -2.469  -4.349  0.00  0.00    +0.292 HD
ENDBRANCH  14  15
ENDBRANCH   6   9
ENDBRANCH   2   3
BRANCH   2  17
ATOM     17  C   UNL     1       0.177   1.536   0.280  0.00  0.00    +0.234 C 
ATOM     18  O   UNL     1       0.912   2.210  -0.411  0.00  0.00    -0.274 OA
ATOM     19  N   UNL     1      -0.406   2.076   1.368  0.00  0.00    -0.283 N 
ATOM     20  H   UNL     1      -0.934   1.519   1.962  0.00  0.00    +0.155 HD
BRANCH  19  21
ATOM     21  C   UNL     1      -0.250   3.441   1.643  0.00  0.00    +0.047 A 
ATOM     22  C   UNL     1       0.128   4.314   0.634  0.00  0.00    +0.024 A 
ATOM     23  C   UNL     1       0.282   5.661   0.907  0.00  0.00    +0.002 A 
ATOM     24  C   UNL     1       0.060   6.142   2.185  0.00  0.00    +0.001 A 
ATOM     25  C   UNL     1      -0.317   5.279   3.197  0.00  0.00    +0.016 A 
ATOM     26  C   UNL     1      -0.479   3.926   2.931  0.00  0.00    +0.029 A 
BRANCH  26  27
ATOM     27  S   UNL     1      -0.966   2.825   4.217  0.00  0.00    -0.127 S 
ATOM     28  C   UNL     1      -1.140   3.897   5.670  0.00  0.00    +0.090 C 
ENDBRANCH  26  27
ENDBRANCH  19  21
ENDBRANCH   2  17
TORSDOF 6
