REMARK  Name = ZINC05702072
REMARK  4 active torsions:
REMARK  status: ('A' for Active; 'I' for Inactive)
REMARK    1  A    between atoms: N_11  and  C_15
REMARK    2  A    between atoms: C_15  and  C_16
REMARK    3  A    between atoms: N_18  and  C_19
REMARK    4  A    between atoms: C_19  and  C_20
REMARK                            x       y       z     vdW  Elec       q    Type
REMARK                         _______ _______ _______ _____ _____    ______ ____
ROOT
ATOM      1  C   UNL     1      -0.510  -4.054  -0.015  0.00  0.00    +0.227 C 
ENDROOT
BRANCH   1  12
ATOM      2  C   UNL     1       3.571  -2.085  -0.041  0.00  0.00    +0.002 A 
ATOM      3  C   UNL     1       3.633  -0.723  -0.035  0.00  0.00    +0.009 A 
ATOM      4  C   UNL     1       2.435   0.011  -0.020  0.00  0.00    -0.014 A 
ATOM      5  C   UNL     1       2.392   1.415  -0.012  0.00  0.00    +0.009 A 
ATOM      6  C   UNL     1       1.189   2.056   0.002  0.00  0.00    +0.003 A 
ATOM      7  C   UNL     1      -0.016   1.341   0.009  0.00  0.00    +0.029 A 
ATOM      8  C   UNL     1       0.002  -0.004   0.002  0.00  0.00    +0.118 A 
ATOM      9  C   UNL     1       1.216  -0.699  -0.013  0.00  0.00    +0.031 A 
ATOM     10  C   UNL     1       1.151  -2.091  -0.019  0.00  0.00    +0.061 A 
ATOM     11  C   UNL     1       2.365  -2.775  -0.034  0.00  0.00    +0.025 A 
ATOM     12  N   UNL     1      -0.144  -2.635  -0.011  0.00  0.00    -0.194 N 
ATOM     13  S   UNL     1      -1.183  -1.319   0.006  0.00  0.00    +0.076 S 
ATOM     14  O   UNL     1      -1.844  -1.304   1.264  0.00  0.00    -0.150 OA
ATOM     15  O   UNL     1      -1.867  -1.290  -1.240  0.00  0.00    -0.150 OA
ENDBRANCH   1  12
BRANCH   1  16
ATOM     16  C   UNL     1      -0.529  -4.563  -1.433  0.00  0.00    +0.232 C 
ATOM     17  O   UNL     1      -0.263  -3.815  -2.350  0.00  0.00    -0.274 OA
ATOM     18  N   UNL     1      -0.842  -5.850  -1.683  0.00  0.00    -0.313 N 
ATOM     19  H   UNL     1      -1.054  -6.448  -0.950  0.00  0.00    +0.149 HD
BRANCH  18  20
ATOM     20  C   UNL     1      -0.860  -6.345  -3.062  0.00  0.00    +0.111 C 
BRANCH  20  21
ATOM     21  C   UNL     1      -1.242  -7.827  -3.067  0.00  0.00    -0.013 C 
ATOM     22  C   UNL     1      -0.218  -8.620  -2.253  0.00  0.00    +0.012 C 
ATOM     23  C   UNL     1      -0.600 -10.102  -2.258  0.00  0.00    -0.010 C 
ATOM     24  C   UNL     1      -0.619 -10.619  -3.698  0.00  0.00    +0.007 C 
ATOM     25  C   UNL     1      -1.643  -9.825  -4.511  0.00  0.00    -0.010 C 
ATOM     26  C   UNL     1      -1.261  -8.344  -4.506  0.00  0.00    +0.012 C 
ATOM     27  C   UNL     1      -3.031  -9.996  -3.890  0.00  0.00    +0.007 C 
ATOM     28  C   UNL     1      -3.012  -9.479  -2.450  0.00  0.00    -0.010 C 
ATOM     29  C   UNL     1      -1.987 -10.272  -1.637  0.00  0.00    +0.007 C 
ATOM     30  C   UNL     1      -2.630  -7.997  -2.445  0.00  0.00    +0.012 C 
ENDBRANCH  20  21
ENDBRANCH  18  20
ENDBRANCH   1  16
TORSDOF 4
