REMARK  Name = ZINC63663742
REMARK  5 active torsions:
REMARK  status: ('A' for Active; 'I' for Inactive)
REMARK    1  A    between atoms: C_3  and  N_8
REMARK    2  A    between atoms: N_8  and  C_9
REMARK    3  A    between atoms: C_9  and  N_11
REMARK    4  A    between atoms: N_11  and  C_12
REMARK    5  A    between atoms: C_12  and  C_13
REMARK                            x       y       z     vdW  Elec       q    Type
REMARK                         _______ _______ _______ _____ _____    ______ ____
ROOT
ATOM      1  C   UNL     1       7.187   1.449   0.254  0.00  0.00    +0.138 C 
ENDROOT
BRANCH   1   2
ATOM      2  C   UNL     1       8.313   2.446   0.348  0.00  0.00    -0.030 A 
ATOM      3  C   UNL     1       8.914   2.910  -0.831  0.00  0.00    +0.007 A 
ATOM      4  C   UNL     1       9.924   3.805  -0.829  0.00  0.00    +0.026 A 
ATOM      5  C   UNL     1      10.428   4.321   0.395  0.00  0.00    +0.043 A 
ATOM      6  N   UNL     1      11.400   5.168   0.652  0.00  0.00    -0.378 N 
ATOM      7  C   UNL     1      11.435   5.409   2.092  0.00  0.00    +0.106 C 
ATOM      8  C   UNL     1      12.804   5.096   2.700  0.00  0.00    +0.029 C 
ATOM      9  C   UNL     1      12.672   5.097   4.226  0.00  0.00    +0.003 C 
ATOM     10  C   UNL     1      11.764   3.965   4.702  0.00  0.00    +0.004 C 
ATOM     11  C   UNL     1      10.335   4.180   4.175  0.00  0.00    +0.033 C 
ATOM     12  C   UNL     1      10.434   4.434   2.689  0.00  0.00    -0.038 C 
ATOM     13  C   UNL     1       9.815   3.841   1.659  0.00  0.00    -0.001 A 
ATOM     14  C   UNL     1       8.713   2.874   1.566  0.00  0.00    +0.015 A 
ATOM     15  H   UNL     1      11.994   5.565  -0.004  0.00  0.00    +0.160 HD
ENDBRANCH   1   2
BRANCH   1  16
ATOM     16  N   UNL     1       5.911   2.162   0.160  0.00  0.00    -0.322 N 
ATOM     17  H   UNL     1       5.895   3.131   0.165  0.00  0.00    +0.148 HD
BRANCH  16  18
ATOM     18  C   UNL     1       4.758   1.469   0.066  0.00  0.00    +0.135 C 
ATOM     19  S   UNL     1       4.786  -0.242   0.057  0.00  0.00    -0.019 S 
BRANCH  18  20
ATOM     20  N   UNL     1       3.584   2.125  -0.021  0.00  0.00    -0.297 N 
ATOM     21  H   UNL     1       3.572   3.092  -0.097  0.00  0.00    +0.154 HD
BRANCH  20  24
ATOM     22  C   UNL     1       1.026  -0.352   0.899  0.00  0.00    +0.003 A 
ATOM     23  C   UNL     1       2.215   0.352   0.881  0.00  0.00    +0.023 A 
ATOM     24  C   UNL     1       2.381   1.410  -0.002  0.00  0.00    +0.034 A 
ATOM     25  C   UNL     1       1.351   1.759  -0.865  0.00  0.00    +0.038 A 
ATOM     26  C   UNL     1       0.164   1.052  -0.843  0.00  0.00    +0.020 A 
ATOM     27  C   UNL     1       0.002  -0.003   0.038  0.00  0.00    +0.015 A 
ATOM     28 BR   UNL     1      -1.240   1.525  -2.018  0.00  0.00    -0.050 Br
ENDBRANCH  20  24
ENDBRANCH  18  20
ENDBRANCH  16  18
ENDBRANCH   1  16
TORSDOF 5
