REMARK  Name = ZINC33598554
REMARK  10 active torsions:
REMARK  status: ('A' for Active; 'I' for Inactive)
REMARK    1  A    between atoms: C_1  and  C_2
REMARK    2  A    between atoms: C_2  and  C_3
REMARK    3  A    between atoms: C_3  and  O_4
REMARK    4  A    between atoms: O_4  and  C_5
REMARK    5  A    between atoms: C_8  and  C_11
REMARK    6  A    between atoms: N_19  and  C_22
REMARK    7  A    between atoms: C_27  and  C_28
REMARK    8  A    between atoms: C_29  and  C_31
REMARK    9  A    between atoms: C_29  and  C_38
REMARK   10  A    between atoms: C_31  and  C_32
REMARK                            x       y       z     vdW  Elec       q    Type
REMARK                         _______ _______ _______ _____ _____    ______ ____
ROOT
ATOM      1  C   UNL     1       4.112  -4.283   5.194  0.00  0.00    -0.027 C 
ATOM      2  C   UNL     1       2.862  -4.478   6.045  0.00  0.00    +0.077 C 
ATOM      3  C   UNL     1       3.452  -5.572   7.013  0.00  0.00    +0.086 C 
ATOM      4  C   UNL     1       2.517  -5.536   8.112  0.00  0.00    +0.229 C 
ATOM      5  O   UNL     1       2.161  -6.462   8.809  0.00  0.00    -0.275 OA
ATOM      6  N   UNL     1       2.118  -4.225   8.195  0.00  0.00    -0.210 N 
ATOM      7  C   UNL     1       2.477  -3.479   7.091  0.00  0.00    +0.229 C 
ATOM      8  O   UNL     1       2.487  -2.272   6.985  0.00  0.00    -0.275 OA
ATOM      9  C   UNL     1       4.080  -6.535   6.099  0.00  0.00    +0.048 C 
ATOM     10  N   UNL     1       4.589  -5.685   4.958  0.00  0.00    +0.395 N 
ATOM     11  H   UNL     1       4.213  -6.033   4.089  0.00  0.00    -0.083 HD
ATOM     12  H   UNL     1       5.597  -5.703   4.928  0.00  0.00    -0.083 HD
ENDROOT
BRANCH   6  13
ATOM     13  C   UNL     1       1.409  -3.697   9.283  0.00  0.00    +0.047 A 
ATOM     14  C   UNL     1       2.092  -3.150  10.361  0.00  0.00    +0.024 A 
ATOM     15  C   UNL     1       1.391  -2.631  11.431  0.00  0.00    +0.002 A 
ATOM     16  C   UNL     1       0.008  -2.657  11.430  0.00  0.00    +0.000 A 
ATOM     17  C   UNL     1      -0.676  -3.201  10.359  0.00  0.00    +0.005 A 
ATOM     18  C   UNL     1       0.021  -3.716   9.283  0.00  0.00    -0.029 A 
ATOM     19  C   UNL     1      -0.726  -4.304   8.113  0.00  0.00    +0.045 C 
ENDBRANCH   6  13
BRANCH   1  23
ATOM     20  C   UNL     1       3.139  -2.378   1.494  0.00  0.00    +0.121 A 
ATOM     21  C   UNL     1       3.719  -1.647   2.521  0.00  0.00    +0.046 A 
ATOM     22  C   UNL     1       4.032  -2.265   3.716  0.00  0.00    +0.005 A 
ATOM     23  C   UNL     1       3.769  -3.611   3.889  0.00  0.00    -0.060 A 
ATOM     24  C   UNL     1       3.192  -4.342   2.867  0.00  0.00    +0.005 A 
ATOM     25  C   UNL     1       2.871  -3.727   1.673  0.00  0.00    +0.046 A 
BRANCH  20  26
ATOM     26  O   UNL     1       2.830  -1.772   0.318  0.00  0.00    -0.492 OA
BRANCH  26  27
ATOM     27  C   UNL     1       3.134  -0.380   0.205  0.00  0.00    +0.229 C 
BRANCH  27  29
ATOM     28  C   UNL     1       3.044   1.613  -1.299  0.00  0.00    +0.007 C 
ATOM     29  C   UNL     1       2.718   0.123  -1.178  0.00  0.00    +0.038 C 
ENDBRANCH  27  29
ENDBRANCH  26  27
ENDBRANCH  20  26
ENDBRANCH   1  23
BRANCH   9  30
ATOM     30  C   UNL     1       3.067  -7.545   5.624  0.00  0.00    +0.346 C 
ATOM     31  O   UNL     1       2.780  -7.610   4.441  0.00  0.00    -0.248 OA
ATOM     32  O   UNL     1       2.534  -8.296   6.423  0.00  0.00    -0.248 OA
ENDBRANCH   9  30
BRANCH   9  33
ATOM     33  C   UNL     1       5.253  -7.236   6.787  0.00  0.00    +0.003 C 
BRANCH  33  34
ATOM     34  C   UNL     1       5.987  -8.115   5.772  0.00  0.00    -0.012 C 
ATOM     35  C   UNL     1       5.114  -9.320   5.415  0.00  0.00    +0.003 C 
ATOM     36  C   UNL     1       5.848 -10.199   4.400  0.00  0.00    +0.000 C 
ATOM     37  C   UNL     1       7.167 -10.685   5.006  0.00  0.00    +0.000 C 
ATOM     38  C   UNL     1       8.039  -9.480   5.362  0.00  0.00    +0.000 C 
ATOM     39  C   UNL     1       7.305  -8.601   6.377  0.00  0.00    +0.003 C 
ENDBRANCH  33  34
ENDBRANCH   9  33
TORSDOF 8
