REMARK  Name = ZINC60265704
REMARK  14 active torsions:
REMARK  status: ('A' for Active; 'I' for Inactive)
REMARK    1  A    between atoms: C_1  and  C_2
REMARK    2  A    between atoms: C_2  and  C_3
REMARK    3  A    between atoms: C_3  and  C_4
REMARK    4  A    between atoms: C_4  and  C_5
REMARK    5  A    between atoms: C_4  and  C_6
REMARK    6  A    between atoms: C_4  and  N_7
REMARK    7  A    between atoms: C_8  and  C_10
REMARK    8  A    between atoms: C_15  and  C_18
REMARK    9  A    between atoms: N_20  and  C_21
REMARK   10  A    between atoms: C_21  and  C_22
REMARK   11  A    between atoms: C_21  and  C_23
REMARK   12  A    between atoms: C_21  and  C_24
REMARK   13  A    between atoms: C_24  and  C_25
REMARK   14  A    between atoms: C_25  and  C_26
REMARK                            x       y       z     vdW  Elec       q    Type
REMARK                         _______ _______ _______ _____ _____    ______ ____
ROOT
ATOM      1  C   UNL     1       2.269  -4.308  -3.932  0.00  0.00    +0.076 C 
ATOM      2  C   UNL     1       1.529  -3.801  -5.172  0.00  0.00    +0.013 C 
ATOM      3  C   UNL     1       2.245  -4.295  -6.431  0.00  0.00    +0.001 C 
ATOM      4  C   UNL     1       2.266  -5.824  -6.439  0.00  0.00    +0.013 C 
ATOM      5  C   UNL     1       3.006  -6.331  -5.199  0.00  0.00    +0.076 C 
ATOM      6  C   UNL     1       2.290  -5.838  -3.941  0.00  0.00    +0.025 C 
ENDROOT
BRANCH   1   8
ATOM      7  N   UNL     1       1.425  -2.500  -2.470  0.00  0.00    -0.310 N 
ATOM      8  C   UNL     1       1.564  -3.822  -2.692  0.00  0.00    +0.217 C 
ATOM      9  O   UNL     1       1.121  -4.620  -1.894  0.00  0.00    -0.276 OA
ATOM     10  H   UNL     1       1.779  -1.861  -3.109  0.00  0.00    +0.149 HD
BRANCH   7  11
ATOM     11  C   UNL     1       0.739  -2.027  -1.265  0.00  0.00    +0.029 C 
ATOM     12  C   UNL     1       1.479  -2.534  -0.026  0.00  0.00    +0.031 C 
ATOM     13  C   UNL     1      -0.696  -2.557  -1.254  0.00  0.00    +0.031 C 
BRANCH  11  14
ATOM     14  C   UNL     1       0.718  -0.497  -1.257  0.00  0.00    +0.025 C 
BRANCH  14  16
ATOM     15  C   UNL     1      -0.019   1.526   0.010  0.00  0.00    +0.004 C 
ATOM     16  C   UNL     1       0.002  -0.004   0.002  0.00  0.00    -0.001 C 
ENDBRANCH  14  16
ENDBRANCH  11  14
ENDBRANCH   7  11
ENDBRANCH   1   8
BRANCH   5  17
ATOM     17  C   UNL     1       4.420  -5.809  -5.210  0.00  0.00    +0.217 C 
ATOM     18  O   UNL     1       4.816  -5.112  -4.300  0.00  0.00    -0.276 OA
ATOM     19  N   UNL     1       5.244  -6.118  -6.231  0.00  0.00    -0.310 N 
ATOM     20  H   UNL     1       4.928  -6.676  -6.958  0.00  0.00    +0.149 HD
BRANCH  19  21
ATOM     21  C   UNL     1       6.619  -5.611  -6.241  0.00  0.00    +0.029 C 
ATOM     22  C   UNL     1       6.598  -4.081  -6.232  0.00  0.00    +0.031 C 
ATOM     23  C   UNL     1       7.359  -6.118  -5.001  0.00  0.00    +0.031 C 
BRANCH  21  24
ATOM     24  C   UNL     1       7.335  -6.105  -7.500  0.00  0.00    +0.025 C 
BRANCH  24  25
ATOM     25  C   UNL     1       8.770  -5.575  -7.511  0.00  0.00    -0.001 C 
ATOM     26  C   UNL     1       9.486  -6.069  -8.769  0.00  0.00    +0.004 C 
ENDBRANCH  24  25
ENDBRANCH  21  24
ENDBRANCH  19  21
ENDBRANCH   5  17
TORSDOF 8
