REMARK  Name = ZINC39699229
REMARK  10 active torsions:
REMARK  status: ('A' for Active; 'I' for Inactive)
REMARK    1  A    between atoms: C_1  and  C_2
REMARK    2  A    between atoms: C_2  and  C_3
REMARK    3  A    between atoms: C_10  and  C_15
REMARK    4  A    between atoms: C_15  and  C_17
REMARK    5  A    between atoms: C_15  and  N_26
REMARK    6  A    between atoms: N_21  and  C_22
REMARK    7  A    between atoms: C_22  and  C_23
REMARK    8  A    between atoms: C_23  and  O_24
REMARK    9  A    between atoms: O_24  and  C_25
REMARK   10  A    between atoms: C_29  and  C_32
REMARK                            x       y       z     vdW  Elec       q    Type
REMARK                         _______ _______ _______ _____ _____    ______ ____
ROOT
ATOM      1  C   UNL     1      -6.434  -1.049  -2.913  0.00  0.00    +0.018 C 
ENDROOT
BRANCH   1   9
ATOM      2  C   UNL     1      -1.539  -0.380   0.193  0.00  0.00    -0.047 A 
ATOM      3  C   UNL     1      -2.219  -0.574   1.396  0.00  0.00    +0.005 A 
ATOM      4  C   UNL     1      -3.491  -1.048   1.451  0.00  0.00    +0.024 A 
ATOM      5  C   UNL     1      -4.186  -1.367   0.270  0.00  0.00    +0.040 A 
ATOM      6  N   UNL     1      -5.434  -1.831   0.336  0.00  0.00    -0.285 N 
ATOM      7  C   UNL     1      -6.143  -2.150  -0.734  0.00  0.00    +0.223 C 
ATOM      8  O   UNL     1      -7.278  -2.569  -0.611  0.00  0.00    -0.275 OA
ATOM      9  C   UNL     1      -5.537  -1.993  -2.110  0.00  0.00    +0.092 C 
ATOM     10  C   UNL     1      -4.117  -1.466  -2.191  0.00  0.00    -0.006 C 
ATOM     11  C   UNL     1      -3.492  -1.172  -1.015  0.00  0.00    -0.007 A 
ATOM     12  C   UNL     1      -2.124  -0.653  -1.002  0.00  0.00    +0.013 A 
ATOM     13  H   UNL     1      -5.841  -1.939   1.209  0.00  0.00    +0.155 HD
BRANCH   2  15
ATOM     14  C   UNL     1      -0.157   1.679   0.168  0.00  0.00    +0.009 C 
ATOM     15  C   UNL     1      -0.129   0.150   0.220  0.00  0.00    +0.032 C 
ENDBRANCH   2  15
ENDBRANCH   1   9
BRANCH   1  16
ATOM     16  N   UNL     1      -7.758  -1.660  -3.086  0.00  0.00    +0.387 N 
ATOM     17  C   UNL     1      -8.608  -0.766  -3.881  0.00  0.00    -0.078 C 
ATOM     18  C   UNL     1     -10.014  -1.361  -3.995  0.00  0.00    -0.015 C 
ATOM     19  C   UNL     1      -9.929  -2.728  -4.679  0.00  0.00    -0.018 C 
ATOM     20  C   UNL     1      -8.981  -3.629  -3.882  0.00  0.00    -0.015 C 
ATOM     21  C   UNL     1      -7.614  -2.950  -3.772  0.00  0.00    -0.078 C 
ATOM     22  C   UNL     1     -11.320  -3.364  -4.726  0.00  0.00    +0.007 C 
ATOM     23  H   UNL     1      -8.180  -1.807  -2.181  0.00  0.00    -0.081 HD
ENDBRANCH   1  16
BRANCH   1  24
ATOM     24  C   UNL     1      -6.576   0.258  -2.175  0.00  0.00    +0.139 A 
ATOM     25  N   UNL     1      -7.301   0.477  -1.105  0.00  0.00    -0.115 NA
ATOM     26  N   UNL     1      -7.160   1.715  -0.777  0.00  0.00    -0.023 NA
ATOM     27  N   UNL     1      -6.365   2.291  -1.609  0.00  0.00    -0.044 NA
ATOM     28  N   UNL     1      -5.979   1.424  -2.483  0.00  0.00    -0.229 N 
BRANCH  28  29
ATOM     29  C   UNL     1      -5.065   1.665  -3.603  0.00  0.00    +0.175 C 
BRANCH  29  30
ATOM     30  C   UNL     1      -5.867   2.100  -4.831  0.00  0.00    +0.183 C 
BRANCH  30  31
ATOM     31  O   UNL     1      -4.976   2.335  -5.923  0.00  0.00    -0.381 OA
ATOM     32  C   UNL     1      -5.627   2.749  -7.126  0.00  0.00    +0.194 C 
ENDBRANCH  30  31
ENDBRANCH  29  30
ENDBRANCH  28  29
ENDBRANCH   1  24
TORSDOF 7
