REMARK  Name = ZINC10188081
REMARK  6 active torsions:
REMARK  status: ('A' for Active; 'I' for Inactive)
REMARK    1  A    between atoms: C_1  and  C_2
REMARK    2  A    between atoms: C_2  and  C_4
REMARK    3  A    between atoms: C_2  and  N_22
REMARK    4  A    between atoms: N_6  and  C_7
REMARK    5  A    between atoms: C_10  and  S_13
REMARK    6  A    between atoms: S_13  and  N_16
REMARK                            x       y       z     vdW  Elec       q    Type
REMARK                         _______ _______ _______ _____ _____    ______ ____
ROOT
ATOM      1  C   UNL     1      -0.651   1.724  -1.226  0.00  0.00    +0.239 C 
ATOM      2  O   UNL     1      -1.552   2.529  -1.121  0.00  0.00    -0.273 OA
ATOM      3  N   UNL     1      -0.288   1.272  -2.443  0.00  0.00    -0.284 N 
ATOM      4  H   UNL     1       0.480   0.688  -2.535  0.00  0.00    +0.155 HD
ENDROOT
BRANCH   3   5
ATOM      5  C   UNL     1      -1.022   1.646  -3.575  0.00  0.00    +0.034 A 
ATOM      6  C   UNL     1      -2.393   1.847  -3.481  0.00  0.00    +0.025 A 
ATOM      7  C   UNL     1      -3.112   2.221  -4.598  0.00  0.00    +0.030 A 
ATOM      8  C   UNL     1      -2.471   2.386  -5.812  0.00  0.00    +0.109 A 
ATOM      9  C   UNL     1      -1.107   2.181  -5.911  0.00  0.00    +0.030 A 
ATOM     10  C   UNL     1      -0.381   1.812  -4.795  0.00  0.00    +0.025 A 
BRANCH   8  11
ATOM     11  S   UNL     1      -3.394   2.856  -7.238  0.00  0.00    +0.074 S 
ATOM     12  O   UNL     1      -4.561   3.516  -6.766  0.00  0.00    -0.150 OA
ATOM     13  O   UNL     1      -2.477   3.474  -8.130  0.00  0.00    -0.150 OA
BRANCH  11  14
ATOM     14  N   UNL     1      -3.904   1.463  -7.973  0.00  0.00    -0.194 N 
ATOM     15  C   UNL     1      -4.797   0.624  -7.325  0.00  0.00    +0.177 A 
ATOM     16  N   UNL     1      -5.344   0.758  -6.132  0.00  0.00    -0.232 NA
ATOM     17  C   UNL     1      -6.188  -0.142  -5.663  0.00  0.00    +0.120 A 
ATOM     18  C   UNL     1      -6.476  -1.220  -6.431  0.00  0.00    +0.068 A 
ATOM     19  S   UNL     1      -5.478  -0.877  -7.873  0.00  0.00    -0.059 S 
ATOM     20  H   UNL     1      -3.577   1.233  -8.857  0.00  0.00    +0.176 HD
ENDBRANCH  11  14
ENDBRANCH   8  11
ENDBRANCH   3   5
BRANCH   1  22
ATOM     21  C   UNL     1       1.550   1.579  -0.092  0.00  0.00    +0.040 C 
ATOM     22  C   UNL     1       0.064   1.228   0.005  0.00  0.00    +0.184 C 
BRANCH  22  23
ATOM     23  N   UNL     1      -0.511   1.864   1.193  0.00  0.00    -0.156 N 
ATOM     24  C   UNL     1      -0.563   3.177   1.466  0.00  0.00    +0.268 C 
ATOM     25  O   UNL     1      -0.104   3.994   0.693  0.00  0.00    -0.268 OA
ATOM     26  C   UNL     1      -1.191   3.599   2.726  0.00  0.00    +0.065 A 
ATOM     27  C   UNL     1      -1.378   4.887   3.255  0.00  0.00    +0.015 A 
ATOM     28  C   UNL     1      -1.999   5.056   4.471  0.00  0.00    +0.001 A 
ATOM     29  C   UNL     1      -2.451   3.967   5.196  0.00  0.00    +0.002 A 
ATOM     30  C   UNL     1      -2.276   2.688   4.689  0.00  0.00    +0.029 A 
ATOM     31  C   UNL     1      -1.659   2.516   3.482  0.00  0.00    +0.121 A 
ATOM     32  S   UNL     1      -1.247   1.107   2.490  0.00  0.00    +0.078 S 
ATOM     33  O   UNL     1      -2.462   0.535   2.024  0.00  0.00    -0.150 OA
ATOM     34  O   UNL     1      -0.249   0.370   3.183  0.00  0.00    -0.150 OA
ENDBRANCH  22  23
ENDBRANCH   1  22
TORSDOF 5
