REMARK  Name = ZINC12643892
REMARK  9 active torsions:
REMARK  status: ('A' for Active; 'I' for Inactive)
REMARK    1  A    between atoms: C_1  and  C_2
REMARK    2  A    between atoms: C_7  and  C_35
REMARK    3  A    between atoms: C_10  and  C_12
REMARK    4  A    between atoms: C_12  and  O_13
REMARK    5  A    between atoms: O_13  and  C_14
REMARK    6  A    between atoms: C_17  and  C_20
REMARK    7  A    between atoms: N_22  and  N_23
REMARK    8  A    between atoms: C_24  and  C_25
REMARK    9  A    between atoms: C_24  and  C_26
REMARK                            x       y       z     vdW  Elec       q    Type
REMARK                         _______ _______ _______ _____ _____    ______ ____
ROOT
ATOM      1  C   UNL     1       3.325   0.697   5.213  0.00  0.00    +0.121 A 
ATOM      2  C   UNL     1       3.758  -0.614   5.377  0.00  0.00    +0.046 A 
ATOM      3  C   UNL     1       4.676  -0.920   6.356  0.00  0.00    +0.016 A 
ATOM      4  C   UNL     1       5.173   0.089   7.186  0.00  0.00    +0.039 A 
ATOM      5  C   UNL     1       4.735   1.405   7.018  0.00  0.00    +0.016 A 
ATOM      6  C   UNL     1       3.820   1.704   6.033  0.00  0.00    +0.046 A 
ENDROOT
BRANCH   4   7
ATOM      7  C   UNL     1       6.157  -0.235   8.237  0.00  0.00    +0.263 C 
ATOM      8  O   UNL     1       6.537  -1.381   8.382  0.00  0.00    -0.268 OA
ATOM      9  N   UNL     1       6.635   0.740   9.036  0.00  0.00    -0.203 N 
ATOM     10  H   UNL     1       6.332   1.654   8.921  0.00  0.00    +0.178 HD
BRANCH   9  11
ATOM     11  N   UNL     1       7.569   0.432  10.034  0.00  0.00    -0.184 NA
ATOM     12  C   UNL     1       8.029   1.371  10.804  0.00  0.00    +0.065 C 
ATOM     13  C   UNL     1       7.558   2.791  10.624  0.00  0.00    +0.068 C 
BRANCH  12  14
ATOM     14  C   UNL     1       9.012   1.047  11.854  0.00  0.00    +0.017 A 
ATOM     15  C   UNL     1       9.505   2.054  12.688  0.00  0.00    +0.013 A 
ATOM     16  C   UNL     1      10.424   1.746  13.668  0.00  0.00    +0.022 A 
ATOM     17  C   UNL     1      10.860   0.441  13.829  0.00  0.00    +0.061 A 
ATOM     18  C   UNL     1      10.376  -0.564  13.006  0.00  0.00    +0.078 A 
ATOM     19  C   UNL     1       9.451  -0.269  12.023  0.00  0.00    +0.070 A 
ATOM     20 CL   UNL     1       8.840  -1.529  10.997  0.00  0.00    -0.081 Cl
ATOM     21 CL   UNL     1      10.929  -2.196  13.214  0.00  0.00    -0.081 Cl
ATOM     22 CL   UNL     1      12.018   0.062  15.065  0.00  0.00    -0.082 Cl
ENDBRANCH  12  14
ENDBRANCH   9  11
ENDBRANCH   4   7
BRANCH   1  23
ATOM     23  O   UNL     1       2.420   0.995   4.247  0.00  0.00    -0.483 OA
BRANCH  23  24
ATOM     24  C   UNL     1       1.952  -0.088   3.440  0.00  0.00    +0.324 C 
BRANCH  24  32
ATOM     25  C   UNL     1      -0.299   1.737   0.448  0.00  0.00    +0.028 C 
ATOM     26  C   UNL     1      -0.024   0.254   0.195  0.00  0.00    +0.073 C 
ATOM     27  C   UNL     1      -1.342  -0.472  -0.092  0.00  0.00    +0.022 C 
ATOM     28  C   UNL     1      -1.078  -1.975  -0.206  0.00  0.00    +0.004 C 
ATOM     29  C   UNL     1      -0.518  -2.498   1.118  0.00  0.00    +0.022 C 
ATOM     30  C   UNL     1       0.810  -1.796   1.420  0.00  0.00    +0.073 C 
ATOM     31  N   UNL     1       0.597  -0.342   1.386  0.00  0.00    -0.293 N 
ATOM     32  C   UNL     1       0.961   0.429   2.430  0.00  0.00    +0.254 C 
ATOM     33  O   UNL     1       0.492   1.541   2.555  0.00  0.00    -0.272 OA
ATOM     34  C   UNL     1       1.308  -2.213   2.805  0.00  0.00    +0.028 C 
ENDBRANCH  24  32
ENDBRANCH  23  24
ENDBRANCH   1  23
TORSDOF 6
