REMARK  Name = ZINC40050640
REMARK  8 active torsions:
REMARK  status: ('A' for Active; 'I' for Inactive)
REMARK    1  A    between atoms: C_1  and  C_2
REMARK    2  A    between atoms: N_13  and  C_16
REMARK    3  A    between atoms: C_16  and  C_17
REMARK    4  A    between atoms: C_17  and  C_19
REMARK    5  A    between atoms: C_17  and  O_28
REMARK    6  A    between atoms: C_19  and  O_20
REMARK    7  A    between atoms: O_20  and  C_21
REMARK    8  A    between atoms: C_21  and  C_22
REMARK                            x       y       z     vdW  Elec       q    Type
REMARK                         _______ _______ _______ _____ _____    ______ ____
ROOT
ATOM      1  C   UNL     1      -0.019   1.526   0.010  0.00  0.00    +0.008 C 
ATOM      2  C   UNL     1       0.002  -0.004   0.002  0.00  0.00    -0.009 C 
ATOM      3  C   UNL     1      -1.433  -0.537   0.021  0.00  0.00    +0.008 C 
ATOM      4  C   UNL     1      -1.430  -2.044  -0.237  0.00  0.00    +0.037 C 
ATOM      5  C   UNL     1      -0.472  -2.712   0.745  0.00  0.00    -0.023 A 
ATOM      6  C   UNL     1       0.476  -1.985   1.383  0.00  0.00    -0.004 A 
ATOM      7  S   UNL     1       1.343  -3.148   2.406  0.00  0.00    -0.073 S 
ATOM      8  C   UNL     1       0.437  -4.601   1.978  0.00  0.00    +0.116 A 
ATOM      9  C   UNL     1      -0.517  -4.131   1.048  0.00  0.00    +0.076 A 
ATOM     10  C   UNL     1      -1.426  -5.099   0.502  0.00  0.00    +0.262 A 
ATOM     11  O   UNL     1      -2.286  -4.796  -0.308  0.00  0.00    -0.267 OA
ATOM     12  N   UNL     1      -1.267  -6.369   0.944  0.00  0.00    -0.296 N 
ATOM     13  C   UNL     1      -0.319  -6.726   1.843  0.00  0.00    +0.203 A 
ATOM     14  N   UNL     1       0.532  -5.869   2.365  0.00  0.00    -0.230 NA
ATOM     15  C   UNL     1       0.737  -0.516   1.249  0.00  0.00    +0.046 C 
ENDROOT
BRANCH  12  16
ATOM     16  C   UNL     1      -2.164  -7.406   0.426  0.00  0.00    +0.160 C 
BRANCH  16  17
ATOM     17  C   UNL     1      -1.553  -8.026  -0.832  0.00  0.00    +0.160 C 
BRANCH  17  18
ATOM     18  O   UNL     1      -0.345  -8.708  -0.488  0.00  0.00    -0.388 OA
ATOM     19  H   UNL     1      -0.465  -9.422   0.153  0.00  0.00    +0.210 HD
ENDBRANCH  17  18
BRANCH  17  20
ATOM     20  C   UNL     1      -2.543  -9.020  -1.443  0.00  0.00    +0.193 C 
BRANCH  20  21
ATOM     21  O   UNL     1      -2.023  -9.512  -2.679  0.00  0.00    -0.373 OA
BRANCH  21  22
ATOM     22  C   UNL     1      -2.875 -10.453  -3.335  0.00  0.00    +0.195 C 
BRANCH  22  23
ATOM     23  C   UNL     1      -2.231 -10.903  -4.621  0.00  0.00    -0.022 A 
ATOM     24  C   UNL     1      -2.469 -10.211  -5.793  0.00  0.00    +0.006 A 
ATOM     25  C   UNL     1      -1.878 -10.624  -6.973  0.00  0.00    +0.000 A 
ATOM     26  C   UNL     1      -1.048 -11.729  -6.979  0.00  0.00    +0.000 A 
ATOM     27  C   UNL     1      -0.809 -12.421  -5.807  0.00  0.00    +0.000 A 
ATOM     28  C   UNL     1      -1.397 -12.006  -4.627  0.00  0.00    +0.006 A 
ENDBRANCH  22  23
ENDBRANCH  21  22
ENDBRANCH  20  21
ENDBRANCH  17  20
ENDBRANCH  16  17
ENDBRANCH  12  16
TORSDOF 7
