REMARK  Name = ZINC04739392
REMARK  3 active torsions:
REMARK  status: ('A' for Active; 'I' for Inactive)
REMARK    1  A    between atoms: C_7  and  C_11
REMARK    2  A    between atoms: N_12  and  N_13
REMARK    3  A    between atoms: C_14  and  C_16
REMARK                            x       y       z     vdW  Elec       q    Type
REMARK                         _______ _______ _______ _____ _____    ______ ____
ROOT
ATOM      1  N   UNL     1       1.964   6.551   0.018  0.00  0.00    -0.200 N 
ATOM      2  C   UNL     1       1.445   7.795   0.030  0.00  0.00    +0.299 C 
ATOM      3  O   UNL     1       0.238   7.950   0.042  0.00  0.00    -0.265 OA
ATOM      4  H   UNL     1       2.926   6.428   0.009  0.00  0.00    +0.178 HD
ENDROOT
BRANCH   2   5
ATOM      5  C   UNL     1       2.336   8.963   0.028  0.00  0.00    +0.192 A 
ATOM      6  C   UNL     1       1.927  10.258   0.039  0.00  0.00    +0.063 A 
ATOM      7  C   UNL     1       3.145  11.068   0.033  0.00  0.00    +0.022 A 
ATOM      8  C   UNL     1       3.401  12.441   0.038  0.00  0.00    +0.027 A 
ATOM      9  C   UNL     1       4.693  12.889   0.029  0.00  0.00    +0.019 A 
ATOM     10  C   UNL     1       5.750  11.988   0.015  0.00  0.00    +0.019 A 
ATOM     11  C   UNL     1       5.517  10.630   0.009  0.00  0.00    +0.048 A 
ATOM     12  C   UNL     1       4.212  10.151   0.018  0.00  0.00    +0.136 A 
ATOM     13  O   UNL     1       3.684   8.911   0.021  0.00  0.00    -0.450 OA
ATOM     14 BR   UNL     1       5.042  14.748   0.037  0.00  0.00    -0.050 Br
ENDBRANCH   2   5
BRANCH   1  16
ATOM     15  C   UNL     1       1.615   4.238   0.009  0.00  0.00    +0.140 C 
ATOM     16  N   UNL     1       1.115   5.437   0.020  0.00  0.00    -0.187 NA
BRANCH  15  23
ATOM     17  C   UNL     1      -3.045   3.774   0.050  0.00  0.00    +0.001 A 
ATOM     18  C   UNL     1      -3.443   2.444   0.046  0.00  0.00    +0.002 A 
ATOM     19  C   UNL     1      -2.510   1.432   0.032  0.00  0.00    +0.026 A 
ATOM     20  C   UNL     1      -1.153   1.738   0.016  0.00  0.00    +0.047 A 
ATOM     21  C   UNL     1      -0.751   3.084   0.025  0.00  0.00    +0.008 A 
ATOM     22  C   UNL     1      -1.707   4.098   0.039  0.00  0.00    +0.010 A 
ATOM     23  C   UNL     1       0.723   3.068   0.011  0.00  0.00    +0.020 A 
ATOM     24  C   UNL     1       1.097   1.760   0.001  0.00  0.00    +0.093 A 
ATOM     25  N   UNL     1      -0.011   0.966   0.007  0.00  0.00    -0.360 N 
ATOM     26  H   UNL     1       0.002  -0.004   0.002  0.00  0.00    +0.165 HD
ENDBRANCH  15  23
ENDBRANCH   1  16
TORSDOF 3
