REMARK  Name = ZINC21218502
REMARK  9 active torsions:
REMARK  status: ('A' for Active; 'I' for Inactive)
REMARK    1  A    between atoms: C_1  and  C_2
REMARK    2  A    between atoms: C_2  and  C_3
REMARK    3  A    between atoms: C_2  and  C_4
REMARK    4  A    between atoms: C_4  and  O_5
REMARK    5  A    between atoms: O_5  and  C_6
REMARK    6  A    between atoms: C_9  and  C_12
REMARK    7  A    between atoms: C_17  and  C_23
REMARK    8  A    between atoms: C_28  and  O_29
REMARK    9  A    between atoms: O_29  and  C_30
REMARK                            x       y       z     vdW  Elec       q    Type
REMARK                         _______ _______ _______ _____ _____    ______ ____
ROOT
ATOM      1  C   UNL     1       1.527   0.036   6.140  0.00  0.00    +0.032 C 
ATOM      2  C   UNL     1       2.958   0.568   6.249  0.00  0.00    +0.059 C 
ATOM      3  C   UNL     1       3.566   0.121   7.555  0.00  0.00    +0.018 C 
ATOM      4  C   UNL     1       3.200  -1.046   8.125  0.00  0.00    +0.020 C 
ATOM      5  C   UNL     1       3.828  -1.476   9.430  0.00  0.00    +0.066 C 
ATOM      6  C   UNL     1       5.286  -1.017   9.468  0.00  0.00    +0.109 C 
ATOM      7  C   UNL     1       5.357   0.434   9.067  0.00  0.00    +0.218 C 
ATOM      8  O   UNL     1       6.189   1.160   9.568  0.00  0.00    -0.275 OA
ATOM      9  N   UNL     1       4.500   0.926   8.156  0.00  0.00    -0.289 N 
ATOM     10  C   UNL     1       2.238  -1.880   7.531  0.00  0.00    +0.162 C 
ATOM     11  O   UNL     1       1.945  -2.931   8.066  0.00  0.00    -0.292 OA
ATOM     12  C   UNL     1       1.565  -1.492   6.242  0.00  0.00    +0.088 C 
ATOM     13  H   UNL     1       4.558   1.992   7.894  0.00  0.00    +0.155 HD
ENDROOT
BRANCH   5  14
ATOM     14  C   UNL     1       3.075  -0.855  10.578  0.00  0.00    +0.003 A 
ATOM     15  C   UNL     1       2.990   0.520  10.685  0.00  0.00    +0.023 A 
ATOM     16  C   UNL     1       2.299   1.091  11.739  0.00  0.00    +0.018 A 
ATOM     17  C   UNL     1       1.692   0.287  12.687  0.00  0.00    +0.019 A 
ATOM     18  C   UNL     1       1.774  -1.088  12.584  0.00  0.00    +0.047 A 
ATOM     19  C   UNL     1       2.462  -1.662  11.524  0.00  0.00    +0.124 A 
ATOM     20 BR   UNL     1       2.184   2.973  11.883  0.00  0.00    -0.050 Br
BRANCH  19  21
ATOM     21  O   UNL     1       2.539  -3.015  11.417  0.00  0.00    -0.495 OA
ATOM     22  C   UNL     1       1.884  -3.784  12.427  0.00  0.00    +0.277 C 
ENDBRANCH  19  21
ENDBRANCH   5  14
BRANCH   1  26
ATOM     23  C   UNL     1      -0.149   1.182   2.380  0.00  0.00    +0.121 A 
ATOM     24  C   UNL     1       0.991   0.392   2.421  0.00  0.00    +0.046 A 
ATOM     25  C   UNL     1       1.534   0.028   3.638  0.00  0.00    +0.007 A 
ATOM     26  C   UNL     1       0.936   0.440   4.814  0.00  0.00    -0.043 A 
ATOM     27  C   UNL     1      -0.203   1.223   4.776  0.00  0.00    +0.007 A 
ATOM     28  C   UNL     1      -0.747   1.595   3.561  0.00  0.00    +0.046 A 
BRANCH  23  29
ATOM     29  O   UNL     1      -0.682   1.547   1.184  0.00  0.00    -0.492 OA
BRANCH  29  30
ATOM     30  C   UNL     1      -0.013   1.086   0.008  0.00  0.00    +0.232 C 
BRANCH  30  32
ATOM     31  C   UNL     1       0.031   1.205  -2.487  0.00  0.00    +0.010 C 
ATOM     32  C   UNL     1      -0.753   1.593  -1.232  0.00  0.00    +0.020 C 
ATOM     33  C   UNL     1      -2.147   0.964  -1.286  0.00  0.00    +0.010 C 
ENDBRANCH  30  32
ENDBRANCH  29  30
ENDBRANCH  23  29
ENDBRANCH   1  26
TORSDOF 6
