REMARK  Name = ZINC12752754
REMARK  9 active torsions:
REMARK  status: ('A' for Active; 'I' for Inactive)
REMARK    1  A    between atoms: C_1  and  C_2
REMARK    2  A    between atoms: C_2  and  C_4
REMARK    3  A    between atoms: C_2  and  N_16
REMARK    4  A    between atoms: N_6  and  C_7
REMARK    5  A    between atoms: C_12  and  C_13
REMARK    6  A    between atoms: C_13  and  C_14
REMARK    7  A    between atoms: C_13  and  C_15
REMARK    8  A    between atoms: N_16  and  C_17
REMARK    9  A    between atoms: C_20  and  N_23
REMARK                            x       y       z     vdW  Elec       q    Type
REMARK                         _______ _______ _______ _____ _____    ______ ____
ROOT
ATOM      1  C   UNL     1      -0.041   1.512   0.005  0.00  0.00    +0.038 C 
ATOM      2  C   UNL     1      -0.010  -0.017   0.003  0.00  0.00    +0.154 C 
ENDROOT
BRANCH   2   3
ATOM      3  C   UNL     1       0.727  -0.507   1.223  0.00  0.00    +0.237 C 
ATOM      4  O   UNL     1       1.725  -1.184   1.098  0.00  0.00    -0.273 OA
ATOM      5  N   UNL     1       0.276  -0.192   2.454  0.00  0.00    -0.284 N 
ATOM      6  H   UNL     1      -0.475   0.414   2.555  0.00  0.00    +0.155 HD
BRANCH   5   7
ATOM      7  C   UNL     1       0.890  -0.739   3.585  0.00  0.00    +0.037 A 
ATOM      8  C   UNL     1       1.574  -1.944   3.491  0.00  0.00    +0.023 A 
ATOM      9  C   UNL     1       2.180  -2.482   4.610  0.00  0.00    +0.002 A 
ATOM     10  C   UNL     1       2.105  -1.823   5.823  0.00  0.00    +0.000 A 
ATOM     11  C   UNL     1       1.425  -0.623   5.920  0.00  0.00    +0.006 A 
ATOM     12  C   UNL     1       0.823  -0.076   4.803  0.00  0.00    -0.024 A 
BRANCH  12  13
ATOM     13  C   UNL     1       0.087   1.235   4.908  0.00  0.00    +0.015 C 
ATOM     14  C   UNL     1      -0.972   1.139   6.008  0.00  0.00    +0.012 C 
ATOM     15  C   UNL     1       1.078   2.349   5.251  0.00  0.00    +0.012 C 
ENDBRANCH  12  13
ENDBRANCH   5   7
ENDBRANCH   2   3
BRANCH   2  16
ATOM     16  N   UNL     1       0.674  -0.490  -1.203  0.00  0.00    -0.333 N 
ATOM     17  H   UNL     1       1.621  -0.702  -1.172  0.00  0.00    +0.147 HD
BRANCH  16  18
ATOM     18  C   UNL     1      -0.037  -0.637  -2.400  0.00  0.00    +0.028 A 
ATOM     19  C   UNL     1      -1.390  -0.328  -2.446  0.00  0.00    +0.025 A 
ATOM     20  C   UNL     1      -2.092  -0.473  -3.626  0.00  0.00    +0.026 A 
ATOM     21  C   UNL     1      -1.444  -0.927  -4.767  0.00  0.00    +0.051 A 
ATOM     22  C   UNL     1      -0.091  -1.235  -4.722  0.00  0.00    +0.026 A 
ATOM     23  C   UNL     1       0.612  -1.085  -3.543  0.00  0.00    +0.025 A 
BRANCH  21  24
ATOM     24  N   UNL     1      -2.156  -1.074  -5.964  0.00  0.00    -0.207 N 
ATOM     25  C   UNL     1      -3.606  -1.292  -6.114  0.00  0.00    +0.133 C 
ATOM     26  C   UNL     1      -4.114  -0.704  -7.444  0.00  0.00    +0.045 C 
ATOM     27  C   UNL     1      -3.078  -1.166  -8.512  0.00  0.00    +0.190 C 
ATOM     28  S   UNL     1      -1.535  -1.031  -7.520  0.00  0.00    +0.046 S 
ATOM     29  O   UNL     1      -0.955   0.258  -7.662  0.00  0.00    -0.155 OA
ATOM     30  O   UNL     1      -0.751  -2.210  -7.649  0.00  0.00    -0.155 OA
ENDBRANCH  21  24
ENDBRANCH  16  18
ENDBRANCH   2  16
TORSDOF 6
