REMARK  Name = ZINC36146383
REMARK  13 active torsions:
REMARK  status: ('A' for Active; 'I' for Inactive)
REMARK    1  A    between atoms: C_1  and  C_2
REMARK    2  A    between atoms: C_2  and  C_3
REMARK    3  A    between atoms: C_2  and  O_4
REMARK    4  A    between atoms: O_4  and  C_5
REMARK    5  A    between atoms: C_5  and  C_6
REMARK    6  A    between atoms: C_6  and  C_8
REMARK    7  A    between atoms: C_6  and  O_33
REMARK    8  A    between atoms: C_8  and  N_9
REMARK    9  A    between atoms: N_9  and  C_10
REMARK   10  A    between atoms: N_9  and  C_18
REMARK   11  A    between atoms: C_10  and  C_11
REMARK   12  A    between atoms: C_18  and  C_19
REMARK   13  A    between atoms: C_22  and  C_25
REMARK                            x       y       z     vdW  Elec       q    Type
REMARK                         _______ _______ _______ _____ _____    ______ ____
ROOT
ATOM      1  N   UNL     1      -5.051  -3.541  -1.117  0.00  0.00    +0.387 N 
ATOM      2  H   UNL     1      -5.529  -3.179  -0.305  0.00  0.00    -0.081 HD
ENDROOT
BRANCH   1   3
ATOM      3  C   UNL     1      -3.604  -3.561  -0.865  0.00  0.00    -0.044 C 
BRANCH   3   4
ATOM      4  C   UNL     1      -3.187  -2.253  -0.188  0.00  0.00    +0.124 C 
BRANCH   4   5
ATOM      5  O   UNL     1      -3.281  -1.180  -1.127  0.00  0.00    -0.391 OA
ATOM      6  H   UNL     1      -2.686  -1.267  -1.885  0.00  0.00    +0.210 HD
ENDBRANCH   4   5
BRANCH   4   7
ATOM      7  C   UNL     1      -1.744  -2.373   0.306  0.00  0.00    +0.189 C 
BRANCH   7   8
ATOM      8  O   UNL     1      -1.392  -1.198   1.039  0.00  0.00    -0.375 OA
BRANCH   8  10
ATOM      9  C   UNL     1       0.470   0.226   1.625  0.00  0.00    +0.037 C 
ATOM     10  C   UNL     1      -0.057  -1.208   1.548  0.00  0.00    +0.112 C 
ATOM     11  C   UNL     1      -0.049  -1.830   2.946  0.00  0.00    +0.037 C 
ENDBRANCH   8  10
ENDBRANCH   7   8
ENDBRANCH   4   7
ENDBRANCH   3   4
ENDBRANCH   1   3
BRANCH   1  12
ATOM     12  C   UNL     1      -5.335  -2.684  -2.276  0.00  0.00    -0.043 C 
BRANCH  12  13
ATOM     13  C   UNL     1      -4.614  -3.220  -3.486  0.00  0.00    -0.063 A 
ATOM     14  C   UNL     1      -3.345  -2.764  -3.792  0.00  0.00    +0.002 A 
ATOM     15  C   UNL     1      -2.683  -3.255  -4.902  0.00  0.00    +0.002 A 
ATOM     16  C   UNL     1      -3.289  -4.202  -5.706  0.00  0.00    +0.020 A 
ATOM     17  C   UNL     1      -4.559  -4.658  -5.400  0.00  0.00    +0.041 A 
ATOM     18  C   UNL     1      -5.218  -4.171  -4.285  0.00  0.00    +0.021 A 
ATOM     19 CL   UNL     1      -5.321  -5.847  -6.409  0.00  0.00    -0.084 Cl
ENDBRANCH  12  13
ENDBRANCH   1  12
BRANCH   1  20
ATOM     20  C   UNL     1      -5.519  -4.907  -1.392  0.00  0.00    -0.030 C 
BRANCH  20  21
ATOM     21  C   UNL     1      -7.048  -4.932  -1.388  0.00  0.00    +0.194 C 
ATOM     22  C   UNL     1      -7.580  -6.344  -1.735  0.00  0.00    +0.104 C 
ATOM     23  C   UNL     1      -8.800  -6.037  -2.583  0.00  0.00    +0.091 C 
ATOM     24  N   UNL     1      -8.736  -4.802  -2.952  0.00  0.00    -0.089 NA
ATOM     25  O   UNL     1      -7.581  -4.143  -2.471  0.00  0.00    -0.392 OA
BRANCH  23  26
ATOM     26  C   UNL     1      -9.874  -6.989  -2.927  0.00  0.00    +0.001 A 
ATOM     27  C   UNL     1      -9.825  -8.303  -2.456  0.00  0.00    +0.011 A 
ATOM     28  C   UNL     1     -10.832  -9.187  -2.780  0.00  0.00    +0.022 A 
ATOM     29  C   UNL     1     -11.891  -8.776  -3.571  0.00  0.00    +0.059 A 
ATOM     30  C   UNL     1     -11.947  -7.473  -4.042  0.00  0.00    +0.060 A 
ATOM     31  C   UNL     1     -10.947  -6.577  -3.719  0.00  0.00    +0.031 A 
ATOM     32 CL   UNL     1     -13.279  -6.966  -5.033  0.00  0.00    -0.082 Cl
ATOM     33 CL   UNL     1     -13.155  -9.895  -3.975  0.00  0.00    -0.082 Cl
ENDBRANCH  23  26
ENDBRANCH  20  21
ENDBRANCH   1  20
TORSDOF 11
