REMARK  Name = ZINC06878692
REMARK  9 active torsions:
REMARK  status: ('A' for Active; 'I' for Inactive)
REMARK    1  A    between atoms: C_1  and  N_2
REMARK    2  A    between atoms: N_2  and  C_3
REMARK    3  A    between atoms: N_2  and  S_4
REMARK    4  A    between atoms: S_4  and  C_7
REMARK    5  A    between atoms: C_10  and  C_13
REMARK    6  A    between atoms: C_13  and  C_15
REMARK    7  A    between atoms: C_17  and  C_29
REMARK    8  A    between atoms: C_20  and  O_28
REMARK    9  A    between atoms: C_22  and  C_23
REMARK                            x       y       z     vdW  Elec       q    Type
REMARK                         _______ _______ _______ _____ _____    ______ ____
ROOT
ATOM      1  C   UNL     1      -2.119  -3.251  -6.593  0.00  0.00    +0.149 C 
ATOM      2  C   UNL     1      -2.092  -2.631  -7.998  0.00  0.00    +0.120 C 
ATOM      3  N   UNL     1      -3.365  -1.919  -8.188  0.00  0.00    -0.293 N 
ATOM      4  C   UNL     1      -4.525  -2.515  -7.758  0.00  0.00    +0.256 C 
ATOM      5  N   UNL     1      -4.525  -3.550  -6.989  0.00  0.00    -0.306 N 
ATOM      6  C   UNL     1      -3.313  -4.204  -6.506  0.00  0.00    +0.284 C 
ATOM      7  O   UNL     1      -3.052  -5.360  -7.304  0.00  0.00    -0.194 OA
ATOM      8  H   UNL     1      -3.385  -1.045  -8.610  0.00  0.00    +0.151 HD
ATOM      9  H   UNL     1      -5.381  -3.916  -6.715  0.00  0.00    +0.167 HD
ENDROOT
BRANCH   2  10
ATOM     10  C   UNL     1      -0.941  -1.665  -8.110  0.00  0.00    -0.026 A 
ATOM     11  C   UNL     1      -1.088  -0.361  -7.676  0.00  0.00    +0.005 A 
ATOM     12  C   UNL     1      -0.032   0.525  -7.779  0.00  0.00    +0.000 A 
ATOM     13  C   UNL     1       1.171   0.107  -8.316  0.00  0.00    +0.000 A 
ATOM     14  C   UNL     1       1.319  -1.197  -8.749  0.00  0.00    +0.000 A 
ATOM     15  C   UNL     1       0.264  -2.084  -8.643  0.00  0.00    +0.005 A 
ENDBRANCH   2  10
BRANCH   6  16
ATOM     16  C   UNL     1      -3.514  -4.631  -5.051  0.00  0.00    +0.441 C 
ATOM     17  F   UNL     1      -3.886  -3.520  -4.286  0.00  0.00    -0.166 F 
ATOM     18  F   UNL     1      -4.519  -5.601  -4.984  0.00  0.00    -0.166 F 
ATOM     19  F   UNL     1      -2.319  -5.161  -4.552  0.00  0.00    -0.166 F 
ENDBRANCH   6  16
BRANCH   1  20
ATOM     20  C   UNL     1      -2.263  -2.162  -5.561  0.00  0.00    +0.173 C 
ATOM     21  O   UNL     1      -3.243  -1.448  -5.565  0.00  0.00    -0.292 OA
BRANCH  20  25
ATOM     22  C   UNL     1       0.760  -1.595  -2.640  0.00  0.00    +0.105 A 
ATOM     23  C   UNL     1      -0.304  -0.713  -2.709  0.00  0.00    +0.029 A 
ATOM     24  C   UNL     1      -1.291  -0.890  -3.656  0.00  0.00    +0.013 A 
ATOM     25  C   UNL     1      -1.214  -1.965  -4.548  0.00  0.00    +0.018 A 
ATOM     26  C   UNL     1      -0.135  -2.852  -4.471  0.00  0.00    +0.013 A 
ATOM     27  C   UNL     1       0.847  -2.657  -3.522  0.00  0.00    +0.029 A 
BRANCH  22  28
ATOM     28  S   UNL     1       2.015  -1.359  -1.426  0.00  0.00    +0.060 S 
ATOM     29  O   UNL     1       2.621  -2.628  -1.217  0.00  0.00    -0.153 OA
ATOM     30  O   UNL     1       1.425  -0.614  -0.370  0.00  0.00    -0.153 OA
BRANCH  28  32
ATOM     31  C   UNL     1       3.076   1.069  -1.968  0.00  0.00    +0.131 C 
ATOM     32  N   UNL     1       3.174  -0.387  -2.101  0.00  0.00    -0.183 NA
ATOM     33  C   UNL     1       4.295  -0.983  -2.832  0.00  0.00    +0.131 C 
ENDBRANCH  28  32
ENDBRANCH  22  28
ENDBRANCH  20  25
ENDBRANCH   1  20
BRANCH   4  34
ATOM     34  O   UNL     1      -5.708  -1.997  -8.153  0.00  0.00    -0.483 OA
ATOM     35  H   UNL     1      -6.479  -2.470  -7.810  0.00  0.00    +0.295 HD
ENDBRANCH   4  34
TORSDOF 7
