REMARK  Name = ZINC20527539
REMARK  10 active torsions:
REMARK  status: ('A' for Active; 'I' for Inactive)
REMARK    1  A    between atoms: C_1  and  C_2
REMARK    2  A    between atoms: C_7  and  C_8
REMARK    3  A    between atoms: C_8  and  S_9
REMARK    4  A    between atoms: S_9  and  C_10
REMARK    5  A    between atoms: N_14  and  N_15
REMARK    6  A    between atoms: N_16  and  N_17
REMARK    7  A    between atoms: C_18  and  C_19
REMARK    8  A    between atoms: C_23  and  C_26
REMARK    9  A    between atoms: C_24  and  O_25
REMARK   10  A    between atoms: C_26  and  C_27
REMARK                            x       y       z     vdW  Elec       q    Type
REMARK                         _______ _______ _______ _____ _____    ______ ____
ROOT
ATOM      1  C   UNL     1      -4.478   9.334   0.098  0.00  0.00    +0.210 A 
ATOM      2  N   UNL     1      -3.167   9.348   0.086  0.00  0.00    -0.119 NA
ATOM      3  N   UNL     1      -2.719   8.021   0.074  0.00  0.00    -0.109 NA
ATOM      4  C   UNL     1      -3.771   7.239   0.080  0.00  0.00    +0.254 A 
ATOM      5  N   UNL     1      -4.886   8.030   0.090  0.00  0.00    -0.211 N 
ATOM      6  N   UNL     1      -3.756   5.852   0.071  0.00  0.00    -0.204 N 
ATOM      7  H   UNL     1      -4.703   5.291   0.077  0.00  0.00    +0.177 HD
ENDROOT
BRANCH   5   8
ATOM      8  N   UNL     1      -6.181   7.594   0.093  0.00  0.00    -0.294 N 
ATOM      9  H   UNL     1      -6.398   6.516   0.085  0.00  0.00    +0.163 HD
ATOM     10  H   UNL     1      -7.006   8.321   0.103  0.00  0.00    +0.163 HD
ENDBRANCH   5   8
BRANCH   6  11
ATOM     11  N   UNL     1      -2.536   5.164   0.055  0.00  0.00    -0.187 NA
ATOM     12  C   UNL     1      -2.522   3.866   0.047  0.00  0.00    +0.142 C 
BRANCH  12  13
ATOM     13  C   UNL     1      -1.237   3.143   0.031  0.00  0.00    +0.036 A 
ATOM     14  C   UNL     1      -1.218   1.746   0.017  0.00  0.00    +0.013 A 
ATOM     15  C   UNL     1      -0.013   1.076   0.008  0.00  0.00    +0.001 A 
ATOM     16  C   UNL     1       1.179   1.781   0.000  0.00  0.00    +0.007 A 
ATOM     17  C   UNL     1       1.172   3.164   0.008  0.00  0.00    -0.002 A 
ATOM     18  C   UNL     1      -0.029   3.853   0.024  0.00  0.00    +0.129 A 
BRANCH  18  19
ATOM     19  O   UNL     1      -0.036   5.211   0.032  0.00  0.00    -0.506 OA
ATOM     20  H   UNL     1       0.914   5.766   0.026  0.00  0.00    +0.292 HD
ENDBRANCH  18  19
BRANCH  17  21
ATOM     21  C   UNL     1       2.474   3.922  -0.000  0.00  0.00    +0.065 C 
BRANCH  21  22
ATOM     22  C   UNL     1       2.860   4.274   1.414  0.00  0.00    -0.030 C 
ATOM     23  C   UNL     1       4.032   3.920   1.880  0.00  0.00    +0.004 C 
ENDBRANCH  21  22
ENDBRANCH  17  21
ENDBRANCH  12  13
ENDBRANCH   6  11
BRANCH   1  24
ATOM     24  S   UNL     1      -5.529  10.748   0.115  0.00  0.00    -0.080 S 
BRANCH  24  25
ATOM     25  C   UNL     1      -4.378  12.150   0.112  0.00  0.00    +0.112 C 
BRANCH  25  32
ATOM     26  C   UNL     1      -5.103  13.373   2.628  0.00  0.00    +0.044 C 
ATOM     27  C   UNL     1      -5.505  14.025   1.330  0.00  0.00    -0.046 A 
ATOM     28  C   UNL     1      -6.219  15.208   1.343  0.00  0.00    +0.003 A 
ATOM     29  C   UNL     1      -6.588  15.806   0.152  0.00  0.00    +0.000 A 
ATOM     30  C   UNL     1      -6.241  15.221  -1.051  0.00  0.00    +0.000 A 
ATOM     31  C   UNL     1      -5.522  14.041  -1.064  0.00  0.00    +0.005 A 
ATOM     32  C   UNL     1      -5.158  13.440   0.127  0.00  0.00    -0.034 A 
ENDBRANCH  25  32
ENDBRANCH  24  25
ENDBRANCH   1  24
TORSDOF 9
