REMARK  Name = ZINC63948589
REMARK  14 active torsions:
REMARK  status: ('A' for Active; 'I' for Inactive)
REMARK    1  A    between atoms: C_1  and  C_2
REMARK    2  A    between atoms: C_3  and  O_34
REMARK    3  A    between atoms: C_11  and  C_16
REMARK    4  A    between atoms: C_13  and  C_15
REMARK    5  A    between atoms: C_16  and  C_17
REMARK    6  A    between atoms: C_17  and  C_18
REMARK    7  A    between atoms: N_20  and  C_21
REMARK    8  A    between atoms: C_21  and  C_22
REMARK    9  A    between atoms: C_22  and  C_23
REMARK   10  A    between atoms: C_26  and  O_32
REMARK   11  A    between atoms: O_32  and  C_33
REMARK   12  A    between atoms: O_34  and  C_35
REMARK   13  A    between atoms: C_35  and  C_36
REMARK   14  A    between atoms: C_36  and  C_38
REMARK                            x       y       z     vdW  Elec       q    Type
REMARK                         _______ _______ _______ _____ _____    ______ ____
ROOT
ATOM      1  C   UNL     1       2.052  -1.846   3.542  0.00  0.00    +0.024 C 
ENDROOT
BRANCH   1  12
ATOM      2  C   UNL     1      -0.018   1.503   0.010  0.00  0.00    +0.051 C 
ATOM      3  C   UNL     1       0.002  -0.004   0.002  0.00  0.00    +0.034 A 
ATOM      4  C   UNL     1       0.006  -0.688  -1.202  0.00  0.00    +0.127 A 
ATOM      5  C   UNL     1       0.024  -2.076  -1.207  0.00  0.00    +0.046 A 
ATOM      6  C   UNL     1       0.035  -2.768  -0.013  0.00  0.00    +0.011 A 
ATOM      7  C   UNL     1       0.029  -2.088   1.195  0.00  0.00    -0.001 A 
ATOM      8  C   UNL     1       0.023  -0.704   1.203  0.00  0.00    +0.141 A 
ATOM      9  O   UNL     1       0.043   0.007   2.363  0.00  0.00    -0.425 OA
ATOM     10  C   UNL     1      -0.146  -0.671   3.513  0.00  0.00    +0.316 C 
ATOM     11  O   UNL     1      -0.826  -0.225   4.407  0.00  0.00    -0.250 OA
ATOM     12  C   UNL     1       0.534  -2.020   3.631  0.00  0.00    +0.106 C 
ATOM     13  C   UNL     1       0.029  -2.891   2.471  0.00  0.00    +0.033 C 
ATOM     14  C   UNL     1      -1.390  -3.381   2.763  0.00  0.00    +0.013 C 
BRANCH   4  15
ATOM     15  O   UNL     1      -0.009  -0.003  -2.376  0.00  0.00    -0.487 OA
BRANCH  15  16
ATOM     16  C   UNL     1      -0.004  -0.775  -3.578  0.00  0.00    +0.259 C 
BRANCH  16  17
ATOM     17  C   UNL     1      -0.022   0.149  -4.769  0.00  0.00    -0.043 C 
ATOM     18  C   UNL     1      -0.039   1.446  -4.590  0.00  0.00    +0.011 C 
ATOM     19  C   UNL     1      -0.021  -0.420  -6.164  0.00  0.00    +0.042 C 
ENDBRANCH  16  17
ENDBRANCH  15  16
ENDBRANCH   4  15
ENDBRANCH   1  12
BRANCH   1  20
ATOM     20  C   UNL     1       2.544  -1.042   4.747  0.00  0.00    +0.096 C 
BRANCH  20  21
ATOM     21  C   UNL     1       4.039  -0.871   4.660  0.00  0.00    +0.213 C 
ATOM     22  O   UNL     1       4.650  -1.344   3.726  0.00  0.00    -0.276 OA
ATOM     23  N   UNL     1       4.696  -0.191   5.620  0.00  0.00    -0.315 N 
ATOM     24  H   UNL     1       4.207   0.188   6.368  0.00  0.00    +0.149 HD
BRANCH  23  25
ATOM     25  C   UNL     1       6.149  -0.024   5.535  0.00  0.00    +0.108 C 
BRANCH  25  26
ATOM     26  C   UNL     1       6.641   0.780   6.741  0.00  0.00    +0.052 C 
BRANCH  26  27
ATOM     27  C   UNL     1       8.136   0.952   6.654  0.00  0.00    -0.040 C 
ATOM     28  C   UNL     1       8.804   2.009   6.139  0.00  0.00    +0.002 A 
ATOM     29  C   UNL     1       8.359   3.267   5.529  0.00  0.00    +0.055 A 
ATOM     30  C   UNL     1       9.280   4.159   5.093  0.00  0.00    +0.121 A 
ATOM     31  C   UNL     1      10.662   3.926   5.203  0.00  0.00    +0.047 A 
ATOM     32  C   UNL     1      11.168   2.799   5.748  0.00  0.00    +0.029 A 
ATOM     33  C   UNL     1      10.260   1.764   6.254  0.00  0.00    +0.043 A 
ATOM     34  N   UNL     1      10.483   0.602   6.816  0.00  0.00    -0.380 N 
ATOM     35  C   UNL     1       9.192  -0.021   7.130  0.00  0.00    +0.144 C 
ATOM     36  H   UNL     1      11.356   0.220   6.999  0.00  0.00    +0.160 HD
BRANCH  30  37
ATOM     37  O   UNL     1       8.853   5.320   4.530  0.00  0.00    -0.495 OA
ATOM     38  C   UNL     1       9.858   6.233   4.084  0.00  0.00    +0.277 C 
ENDBRANCH  30  37
ENDBRANCH  26  27
ENDBRANCH  25  26
ENDBRANCH  23  25
ENDBRANCH  20  21
ENDBRANCH   1  20
TORSDOF 10
