REMARK  Name = ZINC44232902
REMARK  3 active torsions:
REMARK  status: ('A' for Active; 'I' for Inactive)
REMARK    1  A    between atoms: C_9  and  O_11
REMARK    2  A    between atoms: O_11  and  C_12
REMARK    3  A    between atoms: C_20  and  O_22
REMARK                            x       y       z     vdW  Elec       q    Type
REMARK                         _______ _______ _______ _____ _____    ______ ____
ROOT
ATOM      1  O   UNL     1       1.181  -2.050  -0.021  0.00  0.00    -0.484 OA
ENDROOT
BRANCH   1  10
ATOM      2  C   UNL     1      -0.015   1.388   0.010  0.00  0.00    +0.004 A 
ATOM      3  C   UNL     1       1.143   2.104   0.018  0.00  0.00    +0.010 A 
ATOM      4  C   UNL     1       2.377   1.432   0.014  0.00  0.00    +0.004 A 
ATOM      5  C   UNL     1       3.595   2.137   0.023  0.00  0.00    +0.011 A 
ATOM      6  C   UNL     1       4.756   1.417   0.018  0.00  0.00    +0.020 A 
ATOM      7  C   UNL     1       4.710   0.025   0.005  0.00  0.00    +0.111 A 
ATOM      8  N   UNL     1       3.574  -0.628  -0.004  0.00  0.00    -0.251 NA
ATOM      9  C   UNL     1       2.403   0.016   0.001  0.00  0.00    +0.112 A 
ATOM     10  C   UNL     1       1.183  -0.692  -0.008  0.00  0.00    +0.147 A 
ATOM     11  C   UNL     1       0.003  -0.004  -0.003  0.00  0.00    +0.048 A 
ENDBRANCH   1  10
BRANCH   1  12
ATOM     12  C   UNL     1      -0.087  -2.699   0.098  0.00  0.00    +0.202 C 
ATOM     13  C   UNL     1      -0.457  -2.826   1.577  0.00  0.00    +0.047 C 
ATOM     14  C   UNL     1      -1.948  -3.143   1.704  0.00  0.00    +0.004 C 
ATOM     15  C   UNL     1      -2.743  -2.253   0.746  0.00  0.00    +0.000 C 
ATOM     16  C   UNL     1      -3.370  -3.116  -0.351  0.00  0.00    +0.000 C 
ATOM     17  C   UNL     1      -2.294  -3.518  -1.361  0.00  0.00    +0.003 C 
ATOM     18  C   UNL     1      -1.423  -4.625  -0.764  0.00  0.00    +0.035 C 
ATOM     19  C   UNL     1      -0.008  -4.092  -0.530  0.00  0.00    +0.155 C 
BRANCH  19  20
ATOM     20  O   UNL     1       0.694  -4.972   0.350  0.00  0.00    -0.388 OA
ATOM     21  H   UNL     1       0.781  -5.875   0.015  0.00  0.00    +0.210 HD
ENDBRANCH  19  20
ENDBRANCH   1  12
TORSDOF 3
