REMARK  Name = ZINC52637060
REMARK  8 active torsions:
REMARK  status: ('A' for Active; 'I' for Inactive)
REMARK    1  A    between atoms: C_1  and  C_2
REMARK    2  A    between atoms: C_2  and  C_33
REMARK    3  A    between atoms: N_4  and  C_8
REMARK    4  A    between atoms: C_13  and  O_14
REMARK    5  A    between atoms: O_14  and  C_15
REMARK    6  A    between atoms: N_18  and  S_19
REMARK    7  A    between atoms: S_19  and  C_22
REMARK    8  A    between atoms: C_25  and  C_27
REMARK                            x       y       z     vdW  Elec       q    Type
REMARK                         _______ _______ _______ _____ _____    ______ ____
ROOT
ATOM      1  C   UNL     1      -3.310   0.473   1.322  0.00  0.00    +0.074 A 
ATOM      2  C   UNL     1      -4.466  -0.284   1.395  0.00  0.00    +0.051 A 
ATOM      3  C   UNL     1      -5.715   0.338   1.426  0.00  0.00    +0.056 A 
ATOM      4  C   UNL     1      -5.781   1.722   1.384  0.00  0.00    -0.020 A 
ATOM      5  C   UNL     1      -4.627   2.481   1.312  0.00  0.00    +0.053 A 
ATOM      6  C   UNL     1      -3.388   1.863   1.286  0.00  0.00    +0.141 A 
ATOM      7  C   UNL     1      -7.235   2.135   1.431  0.00  0.00    +0.058 C 
ATOM      8  C   UNL     1      -8.012   0.811   1.505  0.00  0.00    +0.136 C 
ATOM      9  N   UNL     1      -6.988  -0.237   1.497  0.00  0.00    -0.202 N 
ENDROOT
BRANCH   1  13
ATOM     10  C   UNL     1      -0.019   1.526   0.010  0.00  0.00    -0.009 C 
ATOM     11  C   UNL     1       0.002  -0.004   0.002  0.00  0.00    -0.058 C 
ATOM     12  C   UNL     1      -1.435  -0.535   0.014  0.00  0.00    +0.092 C 
ATOM     13  N   UNL     1      -2.061  -0.158   1.291  0.00  0.00    -0.330 N 
ATOM     14  C   UNL     1      -1.336  -0.463   2.534  0.00  0.00    +0.086 C 
ATOM     15  C   UNL     1       0.096   0.064   2.404  0.00  0.00    -0.063 C 
ATOM     16  N   UNL     1       0.712  -0.491   1.192  0.00  0.00    +0.384 N 
ATOM     17  C   UNL     1       0.718  -0.498  -1.257  0.00  0.00    -0.009 C 
ATOM     18  H   UNL     1       0.664  -1.498   1.222  0.00  0.00    -0.085 HD
ATOM     19  H   UNL     1       1.679  -0.204   1.145  0.00  0.00    -0.085 HD
ENDBRANCH   1  13
BRANCH   9  20
ATOM     20  S   UNL     1      -7.293  -1.863   1.561  0.00  0.00    +0.081 S 
ATOM     21  O   UNL     1      -8.613  -2.048   1.070  0.00  0.00    -0.149 OA
ATOM     22  O   UNL     1      -6.167  -2.510   0.983  0.00  0.00    -0.149 OA
BRANCH  20  23
ATOM     23  C   UNL     1      -7.319  -2.322   3.262  0.00  0.00    +0.147 A 
ATOM     24  C   UNL     1      -8.370  -2.353   4.122  0.00  0.00    +0.037 A 
ATOM     25  C   UNL     1      -8.160  -2.749   5.423  0.00  0.00    +0.019 A 
ATOM     26  C   UNL     1      -6.893  -3.099   5.809  0.00  0.00    +0.039 A 
ATOM     27  S   UNL     1      -5.972  -2.872   4.297  0.00  0.00    -0.067 S 
BRANCH  26  28
ATOM     28  C   UNL     1      -6.414  -3.551   7.131  0.00  0.00    +0.078 A 
ATOM     29  C   UNL     1      -5.063  -3.855   7.312  0.00  0.00    +0.029 A 
ATOM     30  C   UNL     1      -4.631  -4.277   8.556  0.00  0.00    +0.004 A 
ATOM     31  C   UNL     1      -5.562  -4.383   9.582  0.00  0.00    +0.020 A 
ATOM     32  C   UNL     1      -6.884  -4.066   9.334  0.00  0.00    +0.111 A 
ATOM     33  N   UNL     1      -7.271  -3.660   8.141  0.00  0.00    -0.254 NA
ENDBRANCH  26  28
ENDBRANCH  20  23
ENDBRANCH   9  20
BRANCH   6  34
ATOM     34  O   UNL     1      -2.253   2.611   1.220  0.00  0.00    -0.493 OA
ATOM     35  C   UNL     1      -2.412   4.031   1.186  0.00  0.00    +0.277 C 
ENDBRANCH   6  34
TORSDOF 5
