REMARK  Name = ZINC07795554
REMARK  7 active torsions:
REMARK  status: ('A' for Active; 'I' for Inactive)
REMARK    1  A    between atoms: C_1  and  C_2
REMARK    2  A    between atoms: C_7  and  O_8
REMARK    3  A    between atoms: O_8  and  C_9
REMARK    4  A    between atoms: C_9  and  C_10
REMARK    5  A    between atoms: N_12  and  C_13
REMARK    6  A    between atoms: C_17  and  S_19
REMARK    7  A    between atoms: S_19  and  N_22
REMARK                            x       y       z     vdW  Elec       q    Type
REMARK                         _______ _______ _______ _____ _____    ______ ____
ROOT
ATOM      1  C   UNL     1      -0.025   0.451   7.097  0.00  0.00    +0.035 A 
ATOM      2  C   UNL     1      -0.147   1.816   6.870  0.00  0.00    +0.023 A 
ATOM      3  C   UNL     1      -0.237   2.687   7.938  0.00  0.00    +0.004 A 
ATOM      4  C   UNL     1      -0.206   2.201   9.233  0.00  0.00    +0.029 A 
ATOM      5  C   UNL     1      -0.085   0.843   9.462  0.00  0.00    +0.114 A 
ATOM      6  C   UNL     1      -0.001  -0.034   8.398  0.00  0.00    +0.052 A 
ENDROOT
BRANCH   1   9
ATOM      7  C   UNL     1      -0.502  -1.653   6.095  0.00  0.00    +0.255 C 
ATOM      8  O   UNL     1      -1.020  -2.016   7.130  0.00  0.00    -0.272 OA
ATOM      9  N   UNL     1       0.066  -0.433   6.017  0.00  0.00    -0.283 N 
ATOM     10  H   UNL     1       0.538  -0.169   5.212  0.00  0.00    +0.155 HD
BRANCH   7  11
ATOM     11  C   UNL     1      -0.494  -2.566   4.896  0.00  0.00    +0.324 C 
BRANCH  11  12
ATOM     12  O   UNL     1      -1.152  -3.791   5.226  0.00  0.00    -0.483 OA
BRANCH  12  19
ATOM     13  C   UNL     1      -2.447  -6.221   5.857  0.00  0.00    +0.047 C 
ATOM     14  C   UNL     1      -1.857  -5.944   4.498  0.00  0.00    -0.009 A 
ATOM     15  C   UNL     1      -1.942  -6.895   3.500  0.00  0.00    +0.007 A 
ATOM     16  C   UNL     1      -1.400  -6.642   2.254  0.00  0.00    +0.000 A 
ATOM     17  C   UNL     1      -0.772  -5.436   2.003  0.00  0.00    +0.004 A 
ATOM     18  C   UNL     1      -0.684  -4.481   2.997  0.00  0.00    +0.046 A 
ATOM     19  C   UNL     1      -1.232  -4.731   4.247  0.00  0.00    +0.124 A 
ENDBRANCH  12  19
ENDBRANCH  11  12
ENDBRANCH   7  11
ENDBRANCH   1   9
BRANCH   5  20
ATOM     20  S   UNL     1      -0.045   0.229  11.113  0.00  0.00    +0.100 S 
ATOM     21  O   UNL     1       0.623  -1.024  11.064  0.00  0.00    -0.146 OA
ATOM     22  O   UNL     1       0.403   1.299  11.934  0.00  0.00    -0.146 OA
BRANCH  20  23
ATOM     23  N   UNL     1      -1.609  -0.085  11.557  0.00  0.00    -0.118 NA
ATOM     24  C   UNL     1      -1.866  -0.550  12.736  0.00  0.00    +0.117 C 
ATOM     25  N   UNL     1      -0.838  -0.792  13.660  0.00  0.00    -0.331 N 
ATOM     26  C   UNL     1      -0.787   0.051  14.818  0.00  0.00    +0.102 C 
ATOM     27  C   UNL     1      -1.610  -0.421  16.028  0.00  0.00    +0.019 C 
ATOM     28  C   UNL     1      -2.985  -0.968  15.567  0.00  0.00    +0.002 C 
ATOM     29  C   UNL     1      -3.602  -0.151  14.467  0.00  0.00    +0.008 C 
ATOM     30  C   UNL     1      -3.224  -0.834  13.149  0.00  0.00    +0.073 C 
ATOM     31  H   UNL     1      -0.190  -1.501  13.522  0.00  0.00    +0.147 HD
ENDBRANCH  20  23
ENDBRANCH   5  20
TORSDOF 6
