REMARK  Name = ZINC13761677
REMARK  8 active torsions:
REMARK  status: ('A' for Active; 'I' for Inactive)
REMARK    1  A    between atoms: C_3  and  C_19
REMARK    2  A    between atoms: C_5  and  N_7
REMARK    3  A    between atoms: N_7  and  S_8
REMARK    4  A    between atoms: S_8  and  C_11
REMARK    5  A    between atoms: C_14  and  C_17
REMARK    6  A    between atoms: C_19  and  C_21
REMARK    7  A    between atoms: C_19  and  C_35
REMARK    8  A    between atoms: C_22  and  O_34
REMARK                            x       y       z     vdW  Elec       q    Type
REMARK                         _______ _______ _______ _____ _____    ______ ____
ROOT
ATOM      1  C   UNL     1      -2.666  -1.316  -1.809  0.00  0.00    +0.002 A 
ATOM      2  C   UNL     1      -1.804  -0.937  -0.796  0.00  0.00    +0.004 A 
ATOM      3  C   UNL     1      -0.456  -0.771  -1.057  0.00  0.00    -0.038 A 
ATOM      4  C   UNL     1       0.035  -0.995  -2.328  0.00  0.00    +0.028 A 
ATOM      5  C   UNL     1      -0.826  -1.382  -3.346  0.00  0.00    +0.048 A 
ATOM      6  C   UNL     1      -2.181  -1.542  -3.082  0.00  0.00    +0.024 A 
ENDROOT
BRANCH   5   7
ATOM      7  N   UNL     1      -0.332  -1.610  -4.633  0.00  0.00    -0.215 N 
ATOM      8  H   UNL     1       0.295  -0.986  -5.029  0.00  0.00    +0.174 HD
BRANCH   7   9
ATOM      9  S   UNL     1      -0.818  -2.947  -5.481  0.00  0.00    +0.090 S 
ATOM     10  O   UNL     1      -2.239  -2.949  -5.458  0.00  0.00    -0.148 OA
ATOM     11  O   UNL     1      -0.076  -2.950  -6.693  0.00  0.00    -0.148 OA
BRANCH   9  12
ATOM     12  C   UNL     1      -0.297  -4.361  -4.568  0.00  0.00    +0.197 A 
ATOM     13  C   UNL     1      -1.182  -4.971  -3.696  0.00  0.00    +0.050 A 
ATOM     14  C   UNL     1      -0.770  -6.081  -2.980  0.00  0.00    +0.024 A 
ATOM     15  C   UNL     1       0.538  -6.546  -3.170  0.00  0.00    +0.070 A 
ATOM     16  C   UNL     1       1.368  -5.874  -4.069  0.00  0.00    +0.131 A 
ATOM     17  N   UNL     1       0.927  -4.824  -4.731  0.00  0.00    -0.234 NA
BRANCH  15  18
ATOM     18  C   UNL     1       1.015  -7.691  -2.455  0.00  0.00    +0.101 C 
ATOM     19  N   UNL     1       1.393  -8.600  -1.888  0.00  0.00    -0.191 NA
ENDBRANCH  15  18
ENDBRANCH   9  12
ENDBRANCH   7   9
ENDBRANCH   5   7
BRANCH   3  20
ATOM     20  C   UNL     1       0.478  -0.351   0.048  0.00  0.00    +0.063 C 
BRANCH  20  21
ATOM     21  C   UNL     1       0.496   1.152   0.147  0.00  0.00    +0.086 A 
ATOM     22  C   UNL     1       1.647   1.863  -0.148  0.00  0.00    +0.134 A 
ATOM     23  C   UNL     1       1.615   3.267  -0.040  0.00  0.00    +0.033 A 
ATOM     24  C   UNL     1       0.479   3.889   0.348  0.00  0.00    +0.116 A 
ATOM     25  O   UNL     1      -0.630   3.196   0.626  0.00  0.00    -0.427 OA
ATOM     26  C   UNL     1      -0.653   1.853   0.534  0.00  0.00    +0.344 A 
ATOM     27  O   UNL     1      -1.678   1.244   0.792  0.00  0.00    -0.245 OA
ATOM     28  C   UNL     1       0.520   5.390   0.457  0.00  0.00    +0.075 C 
ATOM     29  C   UNL     1       0.286   6.068  -0.855  0.00  0.00    +0.008 C 
ATOM     30  C   UNL     1       1.443   6.146  -1.830  0.00  0.00    +0.000 C 
ATOM     31  C   UNL     1       1.687   4.775  -2.486  0.00  0.00    +0.000 C 
ATOM     32  C   UNL     1       2.985   4.182  -1.877  0.00  0.00    +0.005 C 
ATOM     33  C   UNL     1       2.824   4.106  -0.359  0.00  0.00    +0.042 C 
BRANCH  22  34
ATOM     34  O   UNL     1       2.777   1.224  -0.531  0.00  0.00    -0.506 OA
ATOM     35  H   UNL     1       2.852   1.097  -1.487  0.00  0.00    +0.292 HD
ENDBRANCH  22  34
ENDBRANCH  20  21
BRANCH  20  36
ATOM     36  C   UNL     1      -0.002  -0.944   1.375  0.00  0.00    +0.001 C 
ATOM     37  C   UNL     1       1.019  -1.712   2.216  0.00  0.00    +0.005 C 
ATOM     38  C   UNL     1      -0.088  -2.468   1.477  0.00  0.00    +0.005 C 
ENDBRANCH  20  36
ENDBRANCH   3  20
TORSDOF 8
