REMARK  Name = ZINC01022960
REMARK  4 active torsions:
REMARK  status: ('A' for Active; 'I' for Inactive)
REMARK    1  A    between atoms: C_1  and  O_2
REMARK    2  A    between atoms: O_2  and  C_3
REMARK    3  A    between atoms: C_6  and  C_10
REMARK    4  A    between atoms: N_11  and  N_12
REMARK                            x       y       z     vdW  Elec       q    Type
REMARK                         _______ _______ _______ _____ _____    ______ ____
ROOT
ATOM      1  N   UNL     1       3.291  -4.549   5.346  0.00  0.00    -0.119 N 
ATOM      2  C   UNL     1       3.835  -3.858   6.369  0.00  0.00    +0.274 C 
ATOM      3  O   UNL     1       3.747  -2.646   6.398  0.00  0.00    -0.268 OA
ATOM      4  C   UNL     1       4.533  -4.570   7.446  0.00  0.00    +0.047 A 
ATOM      5  C   UNL     1       5.125  -3.956   8.539  0.00  0.00    +0.014 A 
ATOM      6  C   UNL     1       5.773  -4.701   9.527  0.00  0.00    +0.005 A 
ATOM      7  C   UNL     1       5.848  -6.063   9.454  0.00  0.00    -0.039 A 
ATOM      8  C   UNL     1       5.258  -6.692   8.362  0.00  0.00    -0.010 A 
ATOM      9  C   UNL     1       4.603  -5.979   7.359  0.00  0.00    +0.007 A 
ATOM     10  C   UNL     1       4.026  -6.682   6.277  0.00  0.00    +0.047 A 
ATOM     11  C   UNL     1       4.139  -8.064   6.264  0.00  0.00    +0.014 A 
ATOM     12  C   UNL     1       4.802  -8.746   7.286  0.00  0.00    +0.005 A 
ATOM     13  C   UNL     1       5.364  -8.079   8.337  0.00  0.00    -0.039 A 
ATOM     14  C   UNL     1       6.130  -8.476   9.576  0.00  0.00    +0.040 C 
ATOM     15  C   UNL     1       6.448  -7.153  10.309  0.00  0.00    +0.040 C 
ATOM     16  C   UNL     1       3.342  -5.893   5.245  0.00  0.00    +0.274 C 
ATOM     17  O   UNL     1       2.825  -6.452   4.296  0.00  0.00    -0.268 OA
ENDROOT
BRANCH   1  19
ATOM     18  C   UNL     1       3.305  -3.041   3.558  0.00  0.00    +0.139 C 
ATOM     19  N   UNL     1       2.633  -3.832   4.337  0.00  0.00    -0.177 NA
BRANCH  18  23
ATOM     20  C   UNL     1       1.274  -0.624   0.720  0.00  0.00    +0.134 A 
ATOM     21  C   UNL     1       2.659  -0.567   0.814  0.00  0.00    +0.047 A 
ATOM     22  C   UNL     1       3.322  -1.349   1.734  0.00  0.00    +0.013 A 
ATOM     23  C   UNL     1       2.600  -2.202   2.573  0.00  0.00    -0.004 A 
ATOM     24  C   UNL     1       1.207  -2.256   2.476  0.00  0.00    +0.028 A 
ATOM     25  C   UNL     1       0.551  -1.466   1.556  0.00  0.00    +0.060 A 
ATOM     26 BR   UNL     1      -1.334  -1.533   1.427  0.00  0.00    -0.046 Br
BRANCH  20  28
ATOM     27  C   UNL     1       1.429   0.991  -1.017  0.00  0.00    +0.277 C 
ATOM     28  O   UNL     1       0.625   0.149  -0.189  0.00  0.00    -0.494 OA
ENDBRANCH  20  28
ENDBRANCH  18  23
ENDBRANCH   1  19
TORSDOF 3
