REMARK  Name = ZINC04066622
REMARK  9 active torsions:
REMARK  status: ('A' for Active; 'I' for Inactive)
REMARK    1  A    between atoms: C_1  and  C_2
REMARK    2  A    between atoms: C_6  and  O_12
REMARK    3  A    between atoms: C_9  and  C_11
REMARK    4  A    between atoms: O_12  and  C_13
REMARK    5  A    between atoms: C_13  and  C_15
REMARK    6  A    between atoms: C_16  and  C_31
REMARK    7  A    between atoms: C_21  and  C_23
REMARK    8  A    between atoms: C_28  and  O_29
REMARK    9  A    between atoms: O_29  and  C_30
REMARK                            x       y       z     vdW  Elec       q    Type
REMARK                         _______ _______ _______ _____ _____    ______ ____
ROOT
ATOM      1  C   UNL     1       1.196   1.497   0.090  0.00  0.00    +0.078 C 
ATOM      2  C   UNL     1       1.542   2.429  -0.824  0.00  0.00    +0.021 C 
ATOM      3  N   UNL     1       0.724   2.721  -1.877  0.00  0.00    -0.273 N 
ATOM      4  C   UNL     1      -0.457   2.125  -2.088  0.00  0.00    +0.304 C 
ATOM      5  O   UNL     1      -1.116   2.452  -3.056  0.00  0.00    -0.252 OA
ATOM      6  N   UNL     1      -0.938   1.174  -1.263  0.00  0.00    -0.288 N 
ATOM      7  C   UNL     1      -0.130   0.786  -0.095  0.00  0.00    +0.147 C 
ATOM      8  C   UNL     1       2.852   3.160  -0.678  0.00  0.00    +0.061 C 
ATOM      9  H   UNL     1       1.014   3.398  -2.508  0.00  0.00    +0.156 HD
ATOM     10  H   UNL     1      -1.795   0.755  -1.435  0.00  0.00    +0.151 HD
ENDROOT
BRANCH   7  11
ATOM     11  C   UNL     1      -0.959   1.021   1.141  0.00  0.00    +0.019 A 
ATOM     12  C   UNL     1      -1.853   2.074   1.184  0.00  0.00    +0.009 A 
ATOM     13  C   UNL     1      -2.618   2.287   2.316  0.00  0.00    +0.001 A 
ATOM     14  C   UNL     1      -2.482   1.455   3.412  0.00  0.00    +0.004 A 
ATOM     15  C   UNL     1      -1.585   0.404   3.376  0.00  0.00    +0.046 A 
ATOM     16  C   UNL     1      -0.821   0.185   2.239  0.00  0.00    +0.125 A 
BRANCH  16  17
ATOM     17  O   UNL     1       0.062  -0.848   2.201  0.00  0.00    -0.495 OA
ATOM     18  C   UNL     1       0.071  -1.735   3.322  0.00  0.00    +0.277 C 
ENDBRANCH  16  17
ENDBRANCH   7  11
BRANCH   1  19
ATOM     19  C   UNL     1       2.043   1.193   1.181  0.00  0.00    +0.339 C 
ATOM     20  O   UNL     1       2.748   0.201   1.147  0.00  0.00    -0.245 OA
BRANCH  19  21
ATOM     21  O   UNL     1       2.070   2.002   2.260  0.00  0.00    -0.458 OA
BRANCH  21  26
ATOM     22  C   UNL     1       4.726   4.072   5.264  0.00  0.00    +0.008 C 
ATOM     23  C   UNL     1       4.897   2.555   5.361  0.00  0.00    -0.011 C 
ATOM     24  C   UNL     1       5.389   2.010   4.019  0.00  0.00    +0.007 C 
ATOM     25  C   UNL     1       4.368   2.338   2.929  0.00  0.00    +0.045 C 
ATOM     26  C   UNL     1       3.024   1.695   3.279  0.00  0.00    +0.177 C 
ATOM     27  C   UNL     1       2.531   2.240   4.621  0.00  0.00    +0.048 C 
ATOM     28  C   UNL     1       3.553   1.911   5.711  0.00  0.00    -0.008 C 
ATOM     29  C   UNL     1       3.061   2.457   7.053  0.00  0.00    +0.008 C 
ENDBRANCH  21  26
ENDBRANCH  19  21
ENDBRANCH   1  19
TORSDOF 5
