REMARK  Name = ZINC45865641
REMARK  11 active torsions:
REMARK  status: ('A' for Active; 'I' for Inactive)
REMARK    1  A    between atoms: C_1  and  C_2
REMARK    2  A    between atoms: C_2  and  C_3
REMARK    3  A    between atoms: C_3  and  C_5
REMARK    4  A    between atoms: C_3  and  C_6
REMARK    5  A    between atoms: C_9  and  C_12
REMARK    6  A    between atoms: C_12  and  C_14
REMARK    7  A    between atoms: C_12  and  N_19
REMARK    8  A    between atoms: C_20  and  C_22
REMARK    9  A    between atoms: C_22  and  N_23
REMARK   10  A    between atoms: C_26  and  C_30
REMARK   11  A    between atoms: C_26  and  C_31
REMARK                            x       y       z     vdW  Elec       q    Type
REMARK                         _______ _______ _______ _____ _____    ______ ____
ROOT
ATOM      1  N   UNL     1       2.337  -6.615  -0.195  0.00  0.00    -0.303 N 
ATOM      2  C   UNL     1       2.360  -7.819   0.410  0.00  0.00    +0.232 C 
ATOM      3  O   UNL     1       1.450  -8.602   0.237  0.00  0.00    -0.274 OA
ATOM      4  H   UNL     1       3.066  -5.989  -0.056  0.00  0.00    +0.150 HD
ENDROOT
BRANCH   1   5
ATOM      5  C   UNL     1       1.213  -6.252  -1.060  0.00  0.00    +0.140 C 
BRANCH   5   9
ATOM      6  C   UNL     1       0.847  -1.998  -1.206  0.00  0.00    -0.045 A 
ATOM      7  C   UNL     1      -0.286  -2.787  -1.141  0.00  0.00    +0.004 A 
ATOM      8  C   UNL     1      -0.167  -4.164  -1.094  0.00  0.00    +0.006 A 
ATOM      9  C   UNL     1       1.084  -4.751  -1.113  0.00  0.00    -0.022 A 
ATOM     10  C   UNL     1       2.217  -3.962  -1.179  0.00  0.00    +0.006 A 
ATOM     11  C   UNL     1       2.098  -2.585  -1.230  0.00  0.00    +0.004 A 
BRANCH   6  12
ATOM     12  C   UNL     1       0.718  -0.497  -1.257  0.00  0.00    +0.016 C 
ATOM     13  C   UNL     1      -0.089  -0.097  -2.493  0.00  0.00    +0.012 C 
BRANCH  12  15
ATOM     14  C   UNL     1      -0.019   1.526   0.010  0.00  0.00    +0.004 C 
ATOM     15  C   UNL     1       0.002  -0.004   0.002  0.00  0.00    +0.004 C 
ENDBRANCH  12  15
ENDBRANCH   6  12
ENDBRANCH   5   9
BRANCH   5  16
ATOM     16  C   UNL     1       1.456  -6.783  -2.449  0.00  0.00    +0.014 A 
ATOM     17  C   UNL     1       0.577  -7.343  -3.315  0.00  0.00    +0.013 A 
ATOM     18  C   UNL     1       1.028  -7.763  -4.552  0.00  0.00    +0.008 A 
ATOM     19  C   UNL     1       2.338  -7.604  -4.862  0.00  0.00    +0.045 A 
ATOM     20  S   UNL     1       2.977  -6.833  -3.384  0.00  0.00    -0.099 S 
ENDBRANCH   5  16
ENDBRANCH   1   5
BRANCH   2  21
ATOM     21  C   UNL     1       3.517  -8.194   1.301  0.00  0.00    +0.213 C 
BRANCH  21  22
ATOM     22  N   UNL     1       3.307  -9.542   1.834  0.00  0.00    -0.215 N 
ATOM     23  C   UNL     1       2.657  -9.809   2.984  0.00  0.00    +0.251 C 
ATOM     24  O   UNL     1       2.155  -9.008   3.744  0.00  0.00    -0.272 OA
ATOM     25  C   UNL     1       2.683 -11.317   3.129  0.00  0.00    +0.135 C 
ATOM     26  N   UNL     1       3.413 -11.768   1.932  0.00  0.00    -0.281 N 
ATOM     27  C   UNL     1       3.731 -10.661   1.236  0.00  0.00    +0.310 C 
ATOM     28  O   UNL     1       4.339 -10.676   0.184  0.00  0.00    -0.252 OA
ATOM     29  C   UNL     1       3.432 -11.723   4.400  0.00  0.00    +0.047 C 
ATOM     30  H   UNL     1       3.621 -12.684   1.690  0.00  0.00    +0.152 HD
BRANCH  25  31
ATOM     31  C   UNL     1       1.282 -11.874   3.137  0.00  0.00    -0.015 A 
ATOM     32  C   UNL     1       0.239 -11.111   3.627  0.00  0.00    +0.009 A 
ATOM     33  C   UNL     1      -1.046 -11.620   3.634  0.00  0.00    +0.039 A 
ATOM     34  C   UNL     1      -1.288 -12.894   3.150  0.00  0.00    +0.123 A 
ATOM     35  C   UNL     1      -0.242 -13.658   2.660  0.00  0.00    +0.039 A 
ATOM     36  C   UNL     1       1.041 -13.144   2.649  0.00  0.00    +0.009 A 
ATOM     37  F   UNL     1      -2.543 -13.393   3.157  0.00  0.00    -0.205 F 
ENDBRANCH  25  31
ENDBRANCH  21  22
ENDBRANCH   2  21
TORSDOF 8
