REMARK  Name = ZINC59645544
REMARK  7 active torsions:
REMARK  status: ('A' for Active; 'I' for Inactive)
REMARK    1  A    between atoms: C_5  and  C_7
REMARK    2  A    between atoms: C_7  and  O_8
REMARK    3  A    between atoms: O_8  and  C_9
REMARK    4  A    between atoms: C_12  and  C_16
REMARK    5  A    between atoms: N_17  and  N_18
REMARK    6  A    between atoms: C_19  and  C_21
REMARK    7  A    between atoms: C_21  and  C_22
REMARK                            x       y       z     vdW  Elec       q    Type
REMARK                         _______ _______ _______ _____ _____    ______ ____
ROOT
ATOM      1  C   UNL     1      -0.272  -4.030  -0.017  0.00  0.00    +0.157 A 
ATOM      2  C   UNL     1      -0.360  -4.712  -1.225  0.00  0.00    +0.085 A 
ATOM      3  C   UNL     1      -0.522  -6.081  -1.235  0.00  0.00    +0.033 A 
ATOM      4  C   UNL     1      -0.597  -6.783  -0.029  0.00  0.00    -0.002 A 
ATOM      5  C   UNL     1      -0.508  -6.094   1.183  0.00  0.00    +0.033 A 
ATOM      6  C   UNL     1      -0.341  -4.725   1.184  0.00  0.00    +0.085 A 
ATOM      7 CL   UNL     1      -0.224  -3.868   2.689  0.00  0.00    -0.080 Cl
ATOM      8 CL   UNL     1      -0.267  -3.838  -2.722  0.00  0.00    -0.080 Cl
ENDROOT
BRANCH   4   9
ATOM      9  C   UNL     1      -0.771  -8.247  -0.036  0.00  0.00    +0.138 C 
ATOM     10  N   UNL     1      -0.841  -8.898   1.085  0.00  0.00    -0.188 NA
BRANCH  10  11
ATOM     11  N   UNL     1      -1.006 -10.289   1.079  0.00  0.00    -0.207 N 
ATOM     12  C   UNL     1      -1.078 -10.964   2.243  0.00  0.00    +0.238 C 
ATOM     13  O   UNL     1      -1.001 -10.367   3.296  0.00  0.00    -0.274 OA
ATOM     14  H   UNL     1      -1.068 -10.766   0.237  0.00  0.00    +0.177 HD
BRANCH  12  15
ATOM     15  C   UNL     1      -1.256 -12.460   2.236  0.00  0.00    +0.153 C 
BRANCH  15  16
ATOM     16  C   UNL     1      -1.307 -12.967   3.655  0.00  0.00    +0.059 A 
ATOM     17  C   UNL     1      -2.343 -13.716   4.102  0.00  0.00    +0.072 A 
ATOM     18  S   UNL     1      -1.846 -13.998   5.793  0.00  0.00    -0.061 S 
ATOM     19  C   UNL     1      -0.395 -13.146   5.755  0.00  0.00    +0.156 A 
ATOM     20  N   UNL     1      -0.340 -12.703   4.517  0.00  0.00    -0.230 NA
ATOM     21  N   UNL     1       0.521 -12.959   6.778  0.00  0.00    -0.338 N 
ATOM     22  H   UNL     1       0.359 -13.348   7.652  0.00  0.00    +0.144 HD
ATOM     23  H   UNL     1       1.326 -12.440   6.620  0.00  0.00    +0.144 HD
ENDBRANCH  15  16
ENDBRANCH  12  15
ENDBRANCH  10  11
ENDBRANCH   4   9
BRANCH   1  24
ATOM     24  O   UNL     1      -0.112  -2.680  -0.011  0.00  0.00    -0.484 OA
BRANCH  24  25
ATOM     25  C   UNL     1       1.229  -2.186  -0.022  0.00  0.00    +0.266 C 
BRANCH  25  30
ATOM     26  C   UNL     1      -0.017   1.378   0.010  0.00  0.00    +0.000 A 
ATOM     27  C   UNL     1       1.171   2.086   0.002  0.00  0.00    +0.001 A 
ATOM     28  C   UNL     1       2.377   1.412  -0.013  0.00  0.00    +0.020 A 
ATOM     29  C   UNL     1       2.397   0.029  -0.021  0.00  0.00    +0.047 A 
ATOM     30  C   UNL     1       1.208  -0.679  -0.013  0.00  0.00    +0.008 A 
ATOM     31  C   UNL     1       0.002  -0.004   0.002  0.00  0.00    +0.008 A 
ATOM     32 CL   UNL     1       3.912  -0.818  -0.041  0.00  0.00    -0.083 Cl
ENDBRANCH  25  30
ENDBRANCH  24  25
ENDBRANCH   1  24
TORSDOF 7
