REMARK  Name = ZINC37581832
REMARK  5 active torsions:
REMARK  status: ('A' for Active; 'I' for Inactive)
REMARK    1  A    between atoms: C_4  and  S_11
REMARK    2  A    between atoms: C_5  and  C_7
REMARK    3  A    between atoms: C_8  and  C_9
REMARK    4  A    between atoms: C_9  and  N_10
REMARK    5  A    between atoms: S_11  and  N_14
REMARK                            x       y       z     vdW  Elec       q    Type
REMARK                         _______ _______ _______ _____ _____    ______ ____
ROOT
ATOM      1  C   UNL     1       7.641  -1.986  -2.416  0.00  0.00    +0.001 A 
ATOM      2  C   UNL     1       6.380  -2.350  -2.854  0.00  0.00    +0.002 A 
ATOM      3  C   UNL     1       5.258  -1.990  -2.129  0.00  0.00    +0.030 A 
ATOM      4  C   UNL     1       5.390  -1.264  -0.963  0.00  0.00    +0.121 A 
ATOM      5  C   UNL     1       6.659  -0.894  -0.516  0.00  0.00    +0.051 A 
ATOM      6  C   UNL     1       7.786  -1.260  -1.252  0.00  0.00    +0.019 A 
ENDROOT
BRANCH   4   7
ATOM      7  S   UNL     1       3.960  -0.806  -0.042  0.00  0.00    +0.062 S 
ATOM      8  O   UNL     1       4.144   0.549   0.346  0.00  0.00    -0.153 OA
ATOM      9  O   UNL     1       2.836  -1.237  -0.796  0.00  0.00    -0.153 OA
BRANCH   7  10
ATOM     10  N   UNL     1       3.967  -1.702   1.351  0.00  0.00    -0.177 NA
ATOM     11  C   UNL     1       4.455  -1.117   2.608  0.00  0.00    +0.109 C 
ATOM     12  C   UNL     1       3.484  -0.035   3.063  0.00  0.00    +0.017 C 
ATOM     13  C   UNL     1       2.199  -0.698   3.586  0.00  0.00    +0.001 C 
ATOM     14  C   UNL     1       1.340  -1.139   2.407  0.00  0.00    +0.000 C 
ATOM     15  C   UNL     1       1.238  -2.675   2.351  0.00  0.00    +0.001 C 
ATOM     16  C   UNL     1       2.617  -3.292   2.586  0.00  0.00    +0.017 C 
ATOM     17  C   UNL     1       3.485  -3.073   1.345  0.00  0.00    +0.109 C 
ENDBRANCH   7  10
ENDBRANCH   4   7
BRANCH   5  18
ATOM     18  C   UNL     1       6.803  -0.140   0.693  0.00  0.00    -0.066 C 
ATOM     19  C   UNL     1       6.921   0.478   1.684  0.00  0.00    -0.117 C 
BRANCH  19  20
ATOM     20  C   UNL     1       7.069   1.253   2.927  0.00  0.00    +0.005 C 
BRANCH  20  21
ATOM     21  N   UNL     1       8.493   1.513   3.175  0.00  0.00    +0.385 N 
ATOM     22  H   UNL     1       8.595   2.044   4.027  0.00  0.00    -0.089 HD
ATOM     23  H   UNL     1       8.985   0.636   3.264  0.00  0.00    -0.089 HD
ATOM     24  H   UNL     1       8.879   2.037   2.404  0.00  0.00    -0.089 HD
ENDBRANCH  20  21
ENDBRANCH  19  20
ENDBRANCH   5  18
TORSDOF 5
