REMARK  Name = ZINC50362325
REMARK  12 active torsions:
REMARK  status: ('A' for Active; 'I' for Inactive)
REMARK    1  A    between atoms: C_1  and  C_2
REMARK    2  A    between atoms: C_2  and  C_3
REMARK    3  A    between atoms: C_3  and  C_4
REMARK    4  A    between atoms: C_4  and  N_5
REMARK    5  A    between atoms: N_5  and  C_6
REMARK    6  A    between atoms: N_5  and  C_11
REMARK    7  A    between atoms: C_6  and  C_8
REMARK    8  A    between atoms: C_6  and  C_9
REMARK    9  A    between atoms: C_9  and  C_10
REMARK   10  A    between atoms: C_11  and  C_13
REMARK   11  A    between atoms: C_11  and  C_15
REMARK   12  A    between atoms: C_13  and  N_14
REMARK                            x       y       z     vdW  Elec       q    Type
REMARK                         _______ _______ _______ _____ _____    ______ ____
ROOT
ATOM      1  C   UNL     1       1.123  -3.809  -1.528  0.00  0.00    -0.018 C 
ENDROOT
BRANCH   1   2
ATOM      2  C   UNL     1      -0.297  -4.310  -1.469  0.00  0.00    +0.092 A 
ATOM      3  C   UNL     1      -0.726  -5.511  -1.898  0.00  0.00    +0.059 A 
ATOM      4  C   UNL     1      -2.118  -5.561  -1.653  0.00  0.00    +0.070 A 
ATOM      5  C   UNL     1      -2.457  -4.387  -1.088  0.00  0.00    +0.184 A 
ATOM      6  O   UNL     1      -1.349  -3.635  -0.975  0.00  0.00    -0.454 OA
ATOM      7 BR   UNL     1      -4.195  -3.883  -0.540  0.00  0.00    -0.007 Br
ATOM      8 BR   UNL     1      -3.280  -7.001  -2.043  0.00  0.00    -0.046 Br
ENDBRANCH   1   2
BRANCH   1   9
ATOM      9  N   UNL     1       1.142  -2.458  -2.102  0.00  0.00    +0.387 N 
ATOM     10  H   UNL     1       2.070  -2.070  -2.019  0.00  0.00    -0.081 HD
BRANCH   9  11
ATOM     11  C   UNL     1       0.764  -2.523  -3.520  0.00  0.00    -0.071 C 
ATOM     12  C   UNL     1      -0.674  -3.031  -3.642  0.00  0.00    -0.013 C 
BRANCH  11  13
ATOM     13  C   UNL     1       1.706  -3.478  -4.256  0.00  0.00    -0.019 C 
ATOM     14  C   UNL     1       3.137  -2.942  -4.181  0.00  0.00    +0.002 C 
ENDBRANCH  11  13
ENDBRANCH   9  11
BRANCH   9  15
ATOM     15  C   UNL     1       0.189  -1.605  -1.380  0.00  0.00    -0.078 C 
BRANCH  15  16
ATOM     16  C   UNL     1       0.325  -0.161  -1.868  0.00  0.00    -0.019 C 
BRANCH  16  18
ATOM     17  C   UNL     1      -0.599   2.153  -1.676  0.00  0.00    +0.004 C 
ATOM     18  C   UNL     1      -0.735   0.709  -1.188  0.00  0.00    -0.005 C 
ENDBRANCH  16  18
ENDBRANCH  15  16
ENDBRANCH   9  15
ENDBRANCH   1   9
BRANCH   1  19
ATOM     19  C   UNL     1       1.708  -3.771  -0.115  0.00  0.00    -0.094 C 
BRANCH  19  20
ATOM     20  N   UNL     1       3.062  -3.202  -0.161  0.00  0.00    +0.377 N 
ATOM     21  H   UNL     1       3.010  -2.234  -0.439  0.00  0.00    -0.090 HD
ATOM     22  H   UNL     1       3.486  -3.267   0.752  0.00  0.00    -0.090 HD
ATOM     23  H   UNL     1       3.620  -3.714  -0.828  0.00  0.00    -0.090 HD
ENDBRANCH  19  20
ENDBRANCH   1  19
TORSDOF 9
