REMARK  Name = ZINC46784091
REMARK  5 active torsions:
REMARK  status: ('A' for Active; 'I' for Inactive)
REMARK    1  A    between atoms: C_1  and  C_2
REMARK    2  A    between atoms: C_2  and  C_3
REMARK    3  A    between atoms: C_13  and  C_15
REMARK    4  A    between atoms: C_15  and  C_16
REMARK    5  A    between atoms: C_16  and  C_17
REMARK                            x       y       z     vdW  Elec       q    Type
REMARK                         _______ _______ _______ _____ _____    ______ ____
ROOT
ATOM      1  C   UNL     1       0.718  -0.497  -1.257  0.00  0.00    -0.006 C 
ATOM      2  C   UNL     1       0.845  -2.023  -1.210  0.00  0.00    +0.010 C 
ATOM      3  C   UNL     1       1.767  -2.509  -2.331  0.00  0.00    +0.056 C 
ATOM      4  C   UNL     1       1.278  -1.930  -3.651  0.00  0.00    +0.054 A 
ATOM      5  C   UNL     1       0.446  -0.856  -3.668  0.00  0.00    +0.015 A 
ATOM      6  S   UNL     1       0.188  -0.596  -5.401  0.00  0.00    -0.057 S 
ATOM      7  C   UNL     1       1.151  -1.861  -5.959  0.00  0.00    +0.165 A 
ATOM      8  N   UNL     1       1.606  -2.402  -4.850  0.00  0.00    -0.229 NA
ATOM      9  N   UNL     1       1.403  -2.240  -7.272  0.00  0.00    -0.265 N 
ATOM     10  C   UNL     1       2.209  -3.291  -7.527  0.00  0.00    +0.219 C 
ATOM     11  O   UNL     1       2.713  -3.905  -6.611  0.00  0.00    -0.275 OA
ATOM     12  C   UNL     1      -0.095  -0.102  -2.500  0.00  0.00    +0.048 C 
ATOM     13  H   UNL     1       1.000  -1.750  -8.005  0.00  0.00    +0.157 HD
ENDROOT
BRANCH   1  15
ATOM     14  C   UNL     1      -0.019   1.526   0.010  0.00  0.00    +0.004 C 
ATOM     15  C   UNL     1       0.002  -0.004   0.002  0.00  0.00    +0.000 C 
ENDBRANCH   1  15
BRANCH  10  16
ATOM     16  C   UNL     1       2.483  -3.702  -8.951  0.00  0.00    +0.104 C 
BRANCH  16  17
ATOM     17  C   UNL     1       3.420  -4.912  -8.961  0.00  0.00    +0.083 C 
BRANCH  17  18
ATOM     18  C   UNL     1       3.693  -5.323 -10.385  0.00  0.00    +0.111 A 
ATOM     19  N   UNL     1       4.506  -6.389 -10.602  0.00  0.00    -0.310 N 
ATOM     20  H   UNL     1       4.891  -6.862  -9.848  0.00  0.00    +0.170 HD
ATOM     21  C   UNL     1       4.782  -6.799 -11.862  0.00  0.00    +0.259 A 
ATOM     22  O   UNL     1       5.508  -7.754 -12.072  0.00  0.00    -0.267 OA
ATOM     23  C   UNL     1       4.172  -6.046 -12.968  0.00  0.00    +0.065 A 
ATOM     24  C   UNL     1       4.393  -6.386 -14.301  0.00  0.00    +0.015 A 
ATOM     25  C   UNL     1       3.796  -5.645 -15.298  0.00  0.00    +0.001 A 
ATOM     26  C   UNL     1       2.978  -4.567 -14.984  0.00  0.00    +0.002 A 
ATOM     27  C   UNL     1       2.748  -4.216 -13.674  0.00  0.00    +0.028 A 
ATOM     28  C   UNL     1       3.341  -4.951 -12.645  0.00  0.00    +0.078 A 
ATOM     29  N   UNL     1       3.136  -4.643 -11.340  0.00  0.00    -0.234 NA
ENDBRANCH  17  18
ENDBRANCH  16  17
ENDBRANCH  10  16
TORSDOF 4
