REMARK  Name = ZINC14182911
REMARK  10 active torsions:
REMARK  status: ('A' for Active; 'I' for Inactive)
REMARK    1  A    between atoms: C_1  and  C_2
REMARK    2  A    between atoms: C_5  and  N_8
REMARK    3  A    between atoms: C_9  and  C_11
REMARK    4  A    between atoms: C_11  and  C_12
REMARK    5  A    between atoms: C_11  and  S_18
REMARK    6  A    between atoms: S_18  and  C_19
REMARK    7  A    between atoms: C_22  and  C_25
REMARK    8  A    between atoms: C_25  and  O_26
REMARK    9  A    between atoms: O_26  and  C_27
REMARK   10  A    between atoms: C_32  and  C_33
REMARK                            x       y       z     vdW  Elec       q    Type
REMARK                         _______ _______ _______ _____ _____    ______ ____
ROOT
ATOM      1  C   UNL     1       0.309  -6.349   1.121  0.00  0.00    +0.170 C 
ENDROOT
BRANCH   1   2
ATOM      2  C   UNL     1      -1.051  -6.973   0.937  0.00  0.00    -0.025 A 
ATOM      3  C   UNL     1      -2.053  -6.732   1.859  0.00  0.00    +0.005 A 
ATOM      4  C   UNL     1      -3.300  -7.303   1.690  0.00  0.00    +0.000 A 
ATOM      5  C   UNL     1      -3.546  -8.116   0.598  0.00  0.00    +0.000 A 
ATOM      6  C   UNL     1      -2.544  -8.356  -0.324  0.00  0.00    +0.000 A 
ATOM      7  C   UNL     1      -1.298  -7.781  -0.157  0.00  0.00    +0.005 A 
ENDBRANCH   1   2
BRANCH   1   9
ATOM      8  N   UNL     1       0.059  -4.170  -0.021  0.00  0.00    -0.284 N 
ATOM      9  C   UNL     1       0.175  -4.848   1.138  0.00  0.00    +0.235 C 
ATOM     10  O   UNL     1       0.173  -4.251   2.193  0.00  0.00    -0.274 OA
ATOM     11  H   UNL     1      -0.017  -4.651  -0.860  0.00  0.00    +0.155 HD
BRANCH   8  16
ATOM     12  C   UNL     1       0.008   1.503   0.007  0.00  0.00    +0.044 C 
ATOM     13  C   UNL     1       0.022  -0.004  -0.001  0.00  0.00    -0.050 A 
ATOM     14  C   UNL     1       0.777  -0.692   0.931  0.00  0.00    +0.005 A 
ATOM     15  C   UNL     1       0.791  -2.073   0.927  0.00  0.00    +0.023 A 
ATOM     16  C   UNL     1       0.046  -2.771  -0.014  0.00  0.00    +0.033 A 
ATOM     17  C   UNL     1      -0.712  -2.077  -0.948  0.00  0.00    +0.023 A 
ATOM     18  C   UNL     1      -0.726  -0.696  -0.936  0.00  0.00    +0.005 A 
ENDBRANCH   8  16
ENDBRANCH   1   9
BRANCH   1  19
ATOM     19  S   UNL     1       1.023  -6.910   2.692  0.00  0.00    -0.069 S 
BRANCH  19  20
ATOM     20  C   UNL     1       1.250  -8.642   2.462  0.00  0.00    +0.185 A 
ATOM     21  N   UNL     1       0.953  -9.326   1.377  0.00  0.00    -0.202 NA
ATOM     22  H   UNL     1       2.079  -9.291   4.259  0.00  0.00    +0.191 HD
ATOM     23  C   UNL     1       1.259 -10.612   1.559  0.00  0.00    +0.189 A 
ATOM     24  N   UNL     1       1.754 -10.769   2.757  0.00  0.00    -0.153 NA
ATOM     25  N   UNL     1       1.766  -9.504   3.366  0.00  0.00    -0.253 N 
BRANCH  23  26
ATOM     26  C   UNL     1       1.064 -11.708   0.543  0.00  0.00    +0.306 C 
BRANCH  26  27
ATOM     27  O   UNL     1       2.240 -11.828  -0.260  0.00  0.00    -0.484 OA
BRANCH  27  28
ATOM     28  C   UNL     1       2.229 -12.778  -1.231  0.00  0.00    +0.124 A 
ATOM     29  C   UNL     1       1.107 -13.575  -1.412  0.00  0.00    +0.046 A 
ATOM     30  C   UNL     1       1.099 -14.539  -2.401  0.00  0.00    +0.004 A 
ATOM     31  C   UNL     1       2.207 -14.712  -3.210  0.00  0.00    +0.000 A 
ATOM     32  C   UNL     1       3.326 -13.920  -3.031  0.00  0.00    +0.007 A 
ATOM     33  C   UNL     1       3.337 -12.950  -2.048  0.00  0.00    -0.009 A 
ATOM     34  C   UNL     1       4.555 -12.083  -1.858  0.00  0.00    +0.047 C 
ENDBRANCH  27  28
ENDBRANCH  26  27
ENDBRANCH  23  26
ENDBRANCH  19  20
ENDBRANCH   1  19
TORSDOF 8
