REMARK  Name = ZINC01027678
REMARK  6 active torsions:
REMARK  status: ('A' for Active; 'I' for Inactive)
REMARK    1  A    between atoms: C_1  and  C_2
REMARK    2  A    between atoms: C_5  and  C_28
REMARK    3  A    between atoms: N_6  and  C_7
REMARK    4  A    between atoms: C_8  and  C_16
REMARK    5  A    between atoms: N_18  and  N_19
REMARK    6  A    between atoms: C_20  and  C_22
REMARK                            x       y       z     vdW  Elec       q    Type
REMARK                         _______ _______ _______ _____ _____    ______ ____
ROOT
ATOM      1  C   UNL     1       3.197   0.183  -1.168  0.00  0.00    +0.097 A 
ATOM      2  C   UNL     1       2.903   0.739   0.068  0.00  0.00    +0.073 A 
ATOM      3  C   UNL     1       3.391   0.048   1.249  0.00  0.00    -0.023 A 
ATOM      4  C   UNL     1       4.096  -1.079   1.006  0.00  0.00    -0.004 A 
ATOM      5  S   UNL     1       4.117  -1.228  -0.758  0.00  0.00    -0.075 S 
ATOM      6  C   UNL     1       4.718  -1.990   2.018  0.00  0.00    +0.043 C 
ATOM      7  C   UNL     1       4.759  -1.258   3.368  0.00  0.00    +0.005 C 
ATOM      8  C   UNL     1       3.384  -0.638   3.634  0.00  0.00    +0.005 C 
ATOM      9  C   UNL     1       3.145   0.528   2.674  0.00  0.00    +0.037 C 
ENDROOT
BRANCH   1  15
ATOM     10  C   UNL     1       0.313   0.335  -2.188  0.00  0.00    +0.064 C 
ATOM     11  C   UNL     1       1.570   0.729  -2.921  0.00  0.00    +0.021 A 
ATOM     12  C   UNL     1       1.632   1.226  -4.173  0.00  0.00    +0.023 A 
ATOM     13  C   UNL     1       2.991   1.452  -4.471  0.00  0.00    +0.023 A 
ATOM     14  C   UNL     1       3.710   1.089  -3.390  0.00  0.00    +0.021 A 
ATOM     15  N   UNL     1       2.843   0.646  -2.430  0.00  0.00    -0.311 N 
ATOM     16  C   UNL     1       5.210   1.160  -3.260  0.00  0.00    +0.064 C 
ENDBRANCH   1  15
BRANCH   2  17
ATOM     17  C   UNL     1       2.122   1.976   0.178  0.00  0.00    +0.263 C 
ATOM     18  O   UNL     1       2.674   3.055   0.071  0.00  0.00    -0.269 OA
ATOM     19  N   UNL     1       0.794   1.917   0.399  0.00  0.00    -0.230 N 
ATOM     20  H   UNL     1       0.342   1.059   0.414  0.00  0.00    +0.173 HD
BRANCH  19  21
ATOM     21  N   UNL     1       0.065   3.096   0.602  0.00  0.00    -0.230 N 
ATOM     22  C   UNL     1      -1.264   3.038   0.818  0.00  0.00    +0.260 C 
ATOM     23  O   UNL     1      -1.830   1.962   0.836  0.00  0.00    -0.269 OA
ATOM     24  H   UNL     1       0.517   3.954   0.588  0.00  0.00    +0.173 HD
BRANCH  22  25
ATOM     25  C   UNL     1      -2.034   4.282   1.032  0.00  0.00    +0.038 A 
ATOM     26  C   UNL     1      -1.386   5.518   1.017  0.00  0.00    +0.013 A 
ATOM     27  C   UNL     1      -2.111   6.676   1.213  0.00  0.00    +0.001 A 
ATOM     28  C   UNL     1      -3.475   6.612   1.433  0.00  0.00    +0.000 A 
ATOM     29  C   UNL     1      -4.122   5.390   1.455  0.00  0.00    +0.001 A 
ATOM     30  C   UNL     1      -3.410   4.225   1.255  0.00  0.00    +0.013 A 
ENDBRANCH  22  25
ENDBRANCH  19  21
ENDBRANCH   2  17
TORSDOF 4
