REMARK  Name = ZINC65106172
REMARK  6 active torsions:
REMARK  status: ('A' for Active; 'I' for Inactive)
REMARK    1  A    between atoms: C_1  and  C_2
REMARK    2  A    between atoms: C_2  and  C_3
REMARK    3  A    between atoms: C_2  and  C_4
REMARK    4  A    between atoms: C_9  and  N_10
REMARK    5  A    between atoms: C_11  and  C_13
REMARK    6  A    between atoms: C_15  and  C_19
REMARK                            x       y       z     vdW  Elec       q    Type
REMARK                         _______ _______ _______ _____ _____    ______ ____
ROOT
ATOM      1  N   UNL     1      -1.314  -1.497   2.035  0.00  0.00    -0.280 N 
ATOM      2  C   UNL     1      -1.863  -2.569   2.640  0.00  0.00    +0.267 C 
ATOM      3  O   UNL     1      -1.195  -3.251   3.394  0.00  0.00    -0.268 OA
ATOM      4  H   UNL     1      -1.861  -0.921   1.479  0.00  0.00    +0.155 HD
ENDROOT
BRANCH   2   5
ATOM      5  C   UNL     1      -3.270  -2.914   2.389  0.00  0.00    +0.135 A 
ATOM      6  C   UNL     1      -3.977  -3.974   2.934  0.00  0.00    +0.071 A 
ATOM      7  C   UNL     1      -5.263  -3.878   2.393  0.00  0.00    +0.081 A 
ATOM      8  N   UNL     1      -5.287  -2.839   1.598  0.00  0.00    -0.177 NA
ATOM      9  N   UNL     1      -4.145  -2.251   1.574  0.00  0.00    -0.271 N 
ATOM     10  H   UNL     1      -3.936  -1.458   1.056  0.00  0.00    +0.189 HD
ATOM     11 BR   UNL     1      -3.339  -5.273   4.151  0.00  0.00    -0.046 Br
BRANCH   7  12
ATOM     12  C   UNL     1      -6.415  -4.806   2.676  0.00  0.00    +0.041 C 
ATOM     13  C   UNL     1      -7.678  -4.643   1.828  0.00  0.00    +0.010 C 
ATOM     14  C   UNL     1      -7.678  -4.198   3.291  0.00  0.00    +0.010 C 
ENDBRANCH   7  12
ENDBRANCH   2   5
BRANCH   1  20
ATOM     15  C   UNL     1       0.738  -0.504   1.239  0.00  0.00    -0.024 A 
ATOM     16  C   UNL     1       2.079  -0.224   1.417  0.00  0.00    +0.006 A 
ATOM     17  C   UNL     1       2.732  -0.654   2.557  0.00  0.00    +0.000 A 
ATOM     18  C   UNL     1       2.045  -1.368   3.523  0.00  0.00    +0.002 A 
ATOM     19  C   UNL     1       0.705  -1.652   3.351  0.00  0.00    +0.023 A 
ATOM     20  C   UNL     1       0.044  -1.216   2.209  0.00  0.00    +0.037 A 
BRANCH  15  22
ATOM     21  C   UNL     1      -0.005   1.495  -0.025  0.00  0.00    +0.012 C 
ATOM     22  C   UNL     1       0.027  -0.034  -0.004  0.00  0.00    +0.015 C 
ATOM     23  C   UNL     1       0.768  -0.546  -1.240  0.00  0.00    +0.012 C 
ENDBRANCH  15  22
ENDBRANCH   1  20
TORSDOF 4
