REMARK  Name = ZINC32399913
REMARK  8 active torsions:
REMARK  status: ('A' for Active; 'I' for Inactive)
REMARK    1  A    between atoms: C_1  and  C_2
REMARK    2  A    between atoms: C_2  and  C_3
REMARK    3  A    between atoms: C_2  and  C_4
REMARK    4  A    between atoms: C_2  and  N_11
REMARK    5  A    between atoms: C_12  and  C_14
REMARK    6  A    between atoms: N_17  and  C_20
REMARK    7  A    between atoms: C_21  and  C_30
REMARK    8  A    between atoms: C_23  and  C_25
REMARK                            x       y       z     vdW  Elec       q    Type
REMARK                         _______ _______ _______ _____ _____    ______ ____
ROOT
ATOM      1  C   UNL     1      -4.316   0.824   0.164  0.00  0.00    +0.078 C 
ATOM      2  C   UNL     1      -4.312  -0.704   0.266  0.00  0.00    +0.032 C 
ATOM      3  C   UNL     1      -5.750  -1.220   0.182  0.00  0.00    +0.109 C 
ATOM      4  N   UNL     1      -6.351  -0.797  -1.089  0.00  0.00    -0.299 N 
ATOM      5  C   UNL     1      -6.409   0.667  -1.188  0.00  0.00    +0.109 C 
ATOM      6  C   UNL     1      -4.990   1.239  -1.146  0.00  0.00    +0.032 C 
ENDROOT
BRANCH   4   7
ATOM      7  C   UNL     1      -7.601  -1.353  -1.254  0.00  0.00    +0.228 A 
ATOM      8  C   UNL     1      -7.916  -2.703  -1.222  0.00  0.00    +0.201 A 
ATOM      9  N   UNL     1      -9.257  -2.801  -1.428  0.00  0.00    -0.194 NA
ATOM     10  C   UNL     1      -9.746  -1.595  -1.579  0.00  0.00    +0.266 A 
ATOM     11  O   UNL     1      -8.752  -0.691  -1.472  0.00  0.00    -0.417 OA
BRANCH  10  12
ATOM     12  C   UNL     1     -11.160  -1.276  -1.822  0.00  0.00    +0.189 A 
ATOM     13  C   UNL     1     -12.177  -2.178  -1.928  0.00  0.00    +0.055 A 
ATOM     14  C   UNL     1     -13.352  -1.438  -2.159  0.00  0.00    +0.042 A 
ATOM     15  C   UNL     1     -13.002  -0.137  -2.183  0.00  0.00    +0.196 A 
ATOM     16  O   UNL     1     -11.679  -0.042  -1.974  0.00  0.00    -0.458 OA
ENDBRANCH  10  12
BRANCH   8  17
ATOM     17  C   UNL     1      -7.004  -3.787  -1.012  0.00  0.00    +0.124 C 
ATOM     18  N   UNL     1      -6.281  -4.647  -0.846  0.00  0.00    -0.189 NA
ENDBRANCH   8  17
ENDBRANCH   4   7
BRANCH   1  20
ATOM     19  N   UNL     1      -2.107   1.083   1.247  0.00  0.00    -0.306 N 
ATOM     20  C   UNL     1      -2.898   1.334   0.185  0.00  0.00    +0.217 C 
ATOM     21  O   UNL     1      -2.469   1.970  -0.755  0.00  0.00    -0.275 OA
ATOM     22  H   UNL     1      -2.497   0.507   2.099  0.00  0.00    +0.150 HD
BRANCH  19  24
ATOM     23  C   UNL     1       0.035   1.012   0.069  0.00  0.00    +0.036 C 
ATOM     24  C   UNL     1      -0.729   1.579   1.267  0.00  0.00    +0.054 C 
ATOM     25  C   UNL     1      -0.735   3.107   1.190  0.00  0.00    +0.036 C 
BRANCH  24  26
ATOM     26  C   UNL     1      -0.057   1.143   2.543  0.00  0.00    -0.025 A 
ATOM     27  C   UNL     1       1.014   1.862   3.040  0.00  0.00    +0.007 A 
ATOM     28  C   UNL     1       1.628   1.466   4.214  0.00  0.00    +0.015 A 
ATOM     29  C   UNL     1       1.177   0.343   4.885  0.00  0.00    +0.018 A 
ATOM     30  C   UNL     1       0.109  -0.379   4.384  0.00  0.00    +0.015 A 
ATOM     31  C   UNL     1      -0.507   0.021   3.213  0.00  0.00    +0.007 A 
ATOM     32 BR   UNL     1       2.021  -0.204   6.486  0.00  0.00    -0.050 Br
ENDBRANCH  24  26
ENDBRANCH  19  24
ENDBRANCH   1  20
TORSDOF 6
