REMARK  Name = ZINC10131582
REMARK  10 active torsions:
REMARK  status: ('A' for Active; 'I' for Inactive)
REMARK    1  A    between atoms: C_1  and  O_2
REMARK    2  A    between atoms: O_2  and  C_3
REMARK    3  A    between atoms: C_6  and  C_11
REMARK    4  A    between atoms: C_7  and  O_9
REMARK    5  A    between atoms: O_9  and  C_10
REMARK    6  A    between atoms: C_16  and  C_17
REMARK    7  A    between atoms: C_16  and  N_59
REMARK    8  A    between atoms: N_19  and  C_20
REMARK    9  A    between atoms: C_20  and  C_22
REMARK   10  A    between atoms: C_20  and  C_29
REMARK                            x       y       z     vdW  Elec       q    Type
REMARK                         _______ _______ _______ _____ _____    ______ ____
ROOT
ATOM      1  C   UNL     1      -2.132   7.796   2.411  0.00  0.00    +0.019 C 
ENDROOT
BRANCH   1   6
ATOM      2  C   UNL     1      -2.976   9.787   3.510  0.00  0.00    -0.033 C 
ATOM      3  C   UNL     1      -2.583  10.173   4.952  0.00  0.00    -0.012 C 
ATOM      4  C   UNL     1      -1.034  10.241   4.886  0.00  0.00    -0.020 C 
ATOM      5  C   UNL     1      -0.713   9.094   3.896  0.00  0.00    -0.077 C 
ATOM      6  N   UNL     1      -1.793   9.160   2.894  0.00  0.00    +0.390 N 
ATOM      7  H   UNL     1      -1.482   9.730   2.098  0.00  0.00    -0.080 HD
BRANCH   2  11
ATOM      8  C   UNL     1      -6.263   7.051   3.583  0.00  0.00    +0.124 A 
ATOM      9  C   UNL     1      -5.125   6.795   4.337  0.00  0.00    +0.046 A 
ATOM     10  C   UNL     1      -4.063   7.678   4.307  0.00  0.00    +0.009 A 
ATOM     11  C   UNL     1      -4.134   8.823   3.536  0.00  0.00    -0.019 A 
ATOM     12  C   UNL     1      -5.269   9.083   2.781  0.00  0.00    +0.125 A 
ATOM     13  C   UNL     1      -6.334   8.195   2.805  0.00  0.00    +0.091 A 
BRANCH   8  15
ATOM     14  C   UNL     1      -7.162   5.021   4.432  0.00  0.00    +0.277 C 
ATOM     15  O   UNL     1      -7.305   6.179   3.608  0.00  0.00    -0.495 OA
ENDBRANCH   8  15
BRANCH  12  16
ATOM     16  O   UNL     1      -5.336  10.206   2.019  0.00  0.00    -0.495 OA
ATOM     17  C   UNL     1      -6.535  10.409   1.268  0.00  0.00    +0.277 C 
ENDBRANCH  12  16
ENDBRANCH   2  11
ENDBRANCH   1   6
BRANCH   1  18
ATOM     18  C   UNL     1      -1.057   7.324   1.466  0.00  0.00    +0.197 C 
ATOM     19  O   UNL     1      -0.108   8.039   1.221  0.00  0.00    -0.278 OA
ATOM     20  N   UNL     1      -1.150   6.107   0.894  0.00  0.00    -0.306 N 
ATOM     21  H   UNL     1      -1.908   5.535   1.090  0.00  0.00    +0.150 HD
BRANCH  20  22
ATOM     22  C   UNL     1      -0.105   5.648  -0.025  0.00  0.00    +0.140 C 
BRANCH  22  23
ATOM     23  C   UNL     1      -0.079   4.141  -0.043  0.00  0.00    -0.022 A 
ATOM     24  C   UNL     1       1.130   3.472  -0.080  0.00  0.00    +0.008 A 
ATOM     25  C   UNL     1       1.155   2.090  -0.097  0.00  0.00    +0.038 A 
ATOM     26  C   UNL     1      -0.031   1.376  -0.077  0.00  0.00    +0.123 A 
ATOM     27  C   UNL     1      -1.242   2.048  -0.046  0.00  0.00    +0.038 A 
ATOM     28  C   UNL     1      -1.264   3.430  -0.023  0.00  0.00    +0.008 A 
ATOM     29  F   UNL     1      -0.008   0.026  -0.094  0.00  0.00    -0.205 F 
ENDBRANCH  22  23
BRANCH  22  30
ATOM     30  C   UNL     1      -0.393   6.162  -1.411  0.00  0.00    +0.014 A 
ATOM     31  C   UNL     1       0.469   6.646  -2.339  0.00  0.00    +0.013 A 
ATOM     32  C   UNL     1      -0.026   7.066  -3.559  0.00  0.00    +0.008 A 
ATOM     33  C   UNL     1      -1.358   6.982  -3.792  0.00  0.00    +0.045 A 
ATOM     34  S   UNL     1      -1.958   6.287  -2.261  0.00  0.00    -0.099 S 
ENDBRANCH  22  30
ENDBRANCH  20  22
ENDBRANCH   1  18
TORSDOF 8
