REMARK  Name = ZINC35632333
REMARK  6 active torsions:
REMARK  status: ('A' for Active; 'I' for Inactive)
REMARK    1  A    between atoms: C_1  and  C_2
REMARK    2  A    between atoms: C_2  and  C_4
REMARK    3  A    between atoms: C_2  and  O_22
REMARK    4  A    between atoms: C_7  and  O_13
REMARK    5  A    between atoms: C_8  and  N_10
REMARK    6  A    between atoms: O_13  and  C_14
REMARK                            x       y       z     vdW  Elec       q    Type
REMARK                         _______ _______ _______ _____ _____    ______ ____
ROOT
ATOM      1  C   UNL     1       0.776  -0.246  -1.305  0.00  0.00    -0.017 A 
ATOM      2  C   UNL     1       0.048  -0.480  -2.457  0.00  0.00    +0.010 A 
ATOM      3  C   UNL     1       0.669  -1.008  -3.573  0.00  0.00    +0.049 A 
ATOM      4  C   UNL     1       2.025  -1.302  -3.536  0.00  0.00    +0.159 A 
ATOM      5  C   UNL     1       2.753  -1.065  -2.379  0.00  0.00    +0.168 A 
ATOM      6  C   UNL     1       2.127  -0.533  -1.268  0.00  0.00    +0.042 A 
ENDROOT
BRANCH   5   7
ATOM      7  N   UNL     1       4.199  -1.378  -2.337  0.00  0.00    +0.060 N 
ATOM      8  O   UNL     1       4.832  -1.172  -1.328  0.00  0.00    -0.126 OA
ATOM      9  O   UNL     1       4.746  -1.840  -3.311  0.00  0.00    -0.126 OA
ENDBRANCH   5   7
BRANCH   1  11
ATOM     10  C   UNL     1      -0.061   1.842  -0.261  0.00  0.00    +0.043 C 
ATOM     11  C   UNL     1       0.095   0.330  -0.090  0.00  0.00    +0.141 C 
BRANCH  11  12
ATOM     12  O   UNL     1      -1.194  -0.269   0.062  0.00  0.00    -0.387 OA
ATOM     13  H   UNL     1      -1.690   0.055   0.827  0.00  0.00    +0.210 HD
ENDBRANCH  11  12
ENDBRANCH   1  11
BRANCH   4  14
ATOM     14  O   UNL     1       2.638  -1.821  -4.632  0.00  0.00    -0.452 OA
BRANCH  14  15
ATOM     15  C   UNL     1       1.913  -1.934  -5.776  0.00  0.00    +0.147 A 
ATOM     16  C   UNL     1       1.266  -3.124  -6.074  0.00  0.00    +0.049 A 
ATOM     17  C   UNL     1       0.529  -3.236  -7.237  0.00  0.00    +0.023 A 
ATOM     18  C   UNL     1       0.436  -2.163  -8.106  0.00  0.00    +0.043 A 
ATOM     19  C   UNL     1       1.081  -0.975  -7.811  0.00  0.00    +0.043 A 
ATOM     20  C   UNL     1       1.814  -0.856  -6.646  0.00  0.00    +0.085 A 
ATOM     21 CL   UNL     1       2.617   0.638  -6.273  0.00  0.00    -0.080 Cl
ATOM     22 CL   UNL     1      -0.489  -2.309  -9.567  0.00  0.00    -0.083 Cl
ENDBRANCH  14  15
ENDBRANCH   4  14
TORSDOF 5
