REMARK  Name = ZINC43222964
REMARK  6 active torsions:
REMARK  status: ('A' for Active; 'I' for Inactive)
REMARK    1  A    between atoms: C_1  and  C_2
REMARK    2  A    between atoms: C_9  and  C_11
REMARK    3  A    between atoms: C_16  and  C_18
REMARK    4  A    between atoms: N_20  and  C_21
REMARK    5  A    between atoms: C_21  and  C_23
REMARK    6  A    between atoms: C_21  and  C_24
REMARK                            x       y       z     vdW  Elec       q    Type
REMARK                         _______ _______ _______ _____ _____    ______ ____
ROOT
ATOM      1  C   UNL     1       0.438  -4.058   2.195  0.00  0.00    +0.068 C 
ATOM      2  C   UNL     1       1.943  -4.386   2.097  0.00  0.00    -0.069 C 
ATOM      3  N   UNL     1       2.342  -4.731   3.486  0.00  0.00    +0.380 N 
ATOM      4  C   UNL     1       1.196  -5.517   4.010  0.00  0.00    -0.069 C 
ATOM      5  C   UNL     1      -0.056  -4.803   3.452  0.00  0.00    +0.068 C 
ATOM      6  H   UNL     1       3.182  -5.290   3.483  0.00  0.00    -0.086 HD
ATOM      7  H   UNL     1       2.475  -3.893   4.033  0.00  0.00    -0.086 HD
ENDROOT
BRANCH   1  15
ATOM      8  C   UNL     1      -0.412   1.761   0.347  0.00  0.00    +0.009 C 
ATOM      9  C   UNL     1      -0.322   0.235   0.286  0.00  0.00    +0.003 C 
ATOM     10  C   UNL     1       0.425  -0.182  -0.983  0.00  0.00    +0.006 C 
ATOM     11  C   UNL     1       0.487  -1.710  -1.062  0.00  0.00    +0.019 C 
ATOM     12  C   UNL     1       1.254  -2.248   0.150  0.00  0.00    +0.108 C 
ATOM     13  N   UNL     1       0.627  -1.732   1.374  0.00  0.00    -0.301 N 
ATOM     14  C   UNL     1       0.435  -0.282   1.513  0.00  0.00    +0.111 C 
ATOM     15  C   UNL     1       0.235  -2.573   2.352  0.00  0.00    +0.218 C 
ATOM     16  O   UNL     1      -0.282  -2.135   3.357  0.00  0.00    -0.275 OA
ENDBRANCH   1  15
BRANCH   5  17
ATOM     17  C   UNL     1      -1.115  -5.809   3.082  0.00  0.00    +0.215 C 
ATOM     18  O   UNL     1      -1.455  -5.934   1.925  0.00  0.00    -0.276 OA
ATOM     19  N   UNL     1      -1.683  -6.571   4.038  0.00  0.00    -0.309 N 
ATOM     20  H   UNL     1      -1.411  -6.472   4.963  0.00  0.00    +0.149 HD
BRANCH  19  21
ATOM     21  C   UNL     1      -2.712  -7.550   3.678  0.00  0.00    +0.101 C 
ATOM     22  C   UNL     1      -4.084  -6.872   3.679  0.00  0.00    +0.033 C 
BRANCH  21  23
ATOM     23  C   UNL     1      -2.708  -8.675   4.681  0.00  0.00    -0.020 A 
ATOM     24  C   UNL     1      -2.281  -8.454   5.955  0.00  0.00    +0.006 A 
ATOM     25  C   UNL     1      -2.270  -9.482   6.896  0.00  0.00    +0.001 A 
ATOM     26  C   UNL     1      -2.685 -10.736   6.569  0.00  0.00    +0.008 A 
ATOM     27  C   UNL     1      -3.134 -11.002   5.265  0.00  0.00    -0.018 A 
ATOM     28  C   UNL     1      -3.151  -9.955   4.309  0.00  0.00    -0.013 A 
ATOM     29  C   UNL     1      -3.604 -10.220   3.005  0.00  0.00    +0.009 A 
ATOM     30  C   UNL     1      -4.026 -11.473   2.680  0.00  0.00    +0.001 A 
ATOM     31  C   UNL     1      -4.015 -12.500   3.622  0.00  0.00    +0.001 A 
ATOM     32  C   UNL     1      -3.570 -12.284   4.890  0.00  0.00    +0.008 A 
ENDBRANCH  21  23
ENDBRANCH  19  21
ENDBRANCH   5  17
TORSDOF 4
