REMARK  Name = ZINC10061551
REMARK  10 active torsions:
REMARK  status: ('A' for Active; 'I' for Inactive)
REMARK    1  A    between atoms: C_1  and  C_2
REMARK    2  A    between atoms: C_2  and  C_26
REMARK    3  A    between atoms: C_5  and  C_22
REMARK    4  A    between atoms: C_6  and  N_12
REMARK    5  A    between atoms: C_9  and  C_10
REMARK    6  A    between atoms: C_9  and  C_11
REMARK    7  A    between atoms: C_13  and  C_15
REMARK    8  A    between atoms: C_15  and  C_16
REMARK    9  A    between atoms: C_22  and  O_24
REMARK   10  A    between atoms: O_24  and  C_25
REMARK                            x       y       z     vdW  Elec       q    Type
REMARK                         _______ _______ _______ _____ _____    ______ ____
ROOT
ATOM      1  C   UNL     1       0.002   8.513   6.630  0.00  0.00    -0.010 C 
ATOM      2  C   UNL     1       1.506   8.555   6.914  0.00  0.00    -0.069 C 
ATOM      3  C   UNL     1       2.269   8.614   5.586  0.00  0.00    +0.024 C 
ATOM      4  C   UNL     1       2.057   7.283   4.877  0.00  0.00    -0.024 A 
ATOM      5  C   UNL     1       2.011   7.081   3.444  0.00  0.00    +0.091 A 
ATOM      6  C   UNL     1       1.796   5.783   2.990  0.00  0.00    +0.086 A 
ATOM      7  S   UNL     1       1.664   4.867   4.455  0.00  0.00    -0.079 S 
ATOM      8  C   UNL     1       1.889   6.171   5.629  0.00  0.00    -0.016 A 
ATOM      9  C   UNL     1       1.903   6.097   7.121  0.00  0.00    -0.041 C 
ATOM     10  C   UNL     1       0.682   5.301   7.602  0.00  0.00    -0.005 C 
ATOM     11  C   UNL     1       3.169   5.335   7.557  0.00  0.00    -0.005 C 
ATOM     12  C   UNL     1       1.806   9.852   7.688  0.00  0.00    -0.010 C 
ATOM     13  N   UNL     1       1.932   7.431   7.788  0.00  0.00    +0.389 N 
ATOM     14  H   UNL     1       1.305   7.399   8.600  0.00  0.00    -0.084 HD
ATOM     15  H   UNL     1       2.892   7.613   8.103  0.00  0.00    -0.084 HD
ENDROOT
BRANCH   6  16
ATOM     16  N   UNL     1       1.709   5.334   1.682  0.00  0.00    -0.279 N 
ATOM     17  C   UNL     1       1.495   4.028   1.430  0.00  0.00    +0.222 C 
ATOM     18  O   UNL     1       1.377   3.245   2.349  0.00  0.00    -0.275 OA
ATOM     19  H   UNL     1       1.803   5.960   0.947  0.00  0.00    +0.155 HD
BRANCH  17  20
ATOM     20  C   UNL     1       1.401   3.539   0.008  0.00  0.00    +0.138 C 
BRANCH  20  21
ATOM     21  C   UNL     1       1.159   2.052   0.002  0.00  0.00    -0.000 A 
ATOM     22  C   UNL     1      -0.017   1.379   0.010  0.00  0.00    +0.013 A 
ATOM     23  C   UNL     1       0.002  -0.004   0.002  0.00  0.00    +0.028 A 
ATOM     24  C   UNL     1       1.198  -0.645  -0.013  0.00  0.00    +0.078 A 
ATOM     25  S   UNL     1       2.348   0.720  -0.017  0.00  0.00    -0.081 S 
ATOM     26 CL   UNL     1       1.524  -2.350  -0.026  0.00  0.00    -0.076 Cl
ENDBRANCH  20  21
ENDBRANCH  17  20
ENDBRANCH   6  16
BRANCH   5  27
ATOM     27  C   UNL     1       2.185   8.187   2.500  0.00  0.00    +0.342 C 
ATOM     28  O   UNL     1       1.217   8.817   2.116  0.00  0.00    -0.245 OA
BRANCH  27  29
ATOM     29  O   UNL     1       3.418   8.508   2.057  0.00  0.00    -0.464 OA
ATOM     30  C   UNL     1       3.515   9.616   1.123  0.00  0.00    +0.280 C 
ENDBRANCH  27  29
ENDBRANCH   5  27
TORSDOF 5
