REMARK  Name = ZINC21301823
REMARK  9 active torsions:
REMARK  status: ('A' for Active; 'I' for Inactive)
REMARK    1  A    between atoms: C_6  and  C_11
REMARK    2  A    between atoms: C_11  and  C_13
REMARK    3  A    between atoms: C_11  and  C_20
REMARK    4  A    between atoms: C_13  and  C_15
REMARK    5  A    between atoms: C_13  and  N_19
REMARK    6  A    between atoms: C_15  and  C_16
REMARK    7  A    between atoms: C_20  and  O_22
REMARK    8  A    between atoms: O_22  and  C_23
REMARK    9  A    between atoms: C_23  and  C_24
REMARK                            x       y       z     vdW  Elec       q    Type
REMARK                         _______ _______ _______ _____ _____    ______ ____
ROOT
ATOM      1  C   UNL     1      -4.058   6.429   2.279  0.00  0.00    +0.114 C 
ENDROOT
BRANCH   1   7
ATOM      2  C   UNL     1      -6.617   7.871   8.031  0.00  0.00    +0.001 A 
ATOM      3  C   UNL     1      -7.076   6.621   7.623  0.00  0.00    +0.001 A 
ATOM      4  C   UNL     1      -6.683   6.083   6.436  0.00  0.00    +0.008 A 
ATOM      5  C   UNL     1      -5.801   6.797   5.608  0.00  0.00    -0.018 A 
ATOM      6  C   UNL     1      -5.372   6.274   4.375  0.00  0.00    +0.013 A 
ATOM      7  C   UNL     1      -4.516   6.993   3.600  0.00  0.00    -0.035 A 
ATOM      8  C   UNL     1      -4.052   8.242   4.011  0.00  0.00    +0.005 A 
ATOM      9  C   UNL     1      -4.450   8.782   5.195  0.00  0.00    +0.009 A 
ATOM     10  C   UNL     1      -5.333   8.068   6.023  0.00  0.00    -0.018 A 
ATOM     11  C   UNL     1      -5.761   8.591   7.255  0.00  0.00    +0.008 A 
ENDBRANCH   1   7
BRANCH   1  12
ATOM     12  C   UNL     1      -2.558   6.289   2.286  0.00  0.00    +0.313 C 
ATOM     13  O   UNL     1      -1.862   7.233   1.997  0.00  0.00    -0.250 OA
BRANCH  12  14
ATOM     14  O   UNL     1      -1.995   5.116   2.614  0.00  0.00    -0.463 OA
BRANCH  14  15
ATOM     15  C   UNL     1      -0.544   5.053   2.599  0.00  0.00    +0.245 C 
BRANCH  15  16
ATOM     16  C   UNL     1      -0.090   3.647   2.996  0.00  0.00    +0.088 C 
ATOM     17  C   UNL     1      -0.405   3.391   4.450  0.00  0.00    -0.029 A 
ATOM     18  C   UNL     1      -1.593   3.366   5.149  0.00  0.00    +0.005 A 
ATOM     19  C   UNL     1      -1.593   3.094   6.505  0.00  0.00    +0.000 A 
ATOM     20  C   UNL     1      -0.401   2.856   7.165  0.00  0.00    +0.001 A 
ATOM     21  C   UNL     1       0.792   2.878   6.473  0.00  0.00    +0.009 A 
ATOM     22  C   UNL     1       0.799   3.147   5.104  0.00  0.00    -0.014 A 
ATOM     23  C   UNL     1       1.916   3.233   4.130  0.00  0.00    -0.014 A 
ATOM     24  C   UNL     1       1.409   3.530   2.868  0.00  0.00    -0.029 A 
ATOM     25  C   UNL     1       2.259   3.661   1.790  0.00  0.00    +0.005 A 
ATOM     26  C   UNL     1       3.622   3.498   1.959  0.00  0.00    +0.000 A 
ATOM     27  C   UNL     1       4.136   3.202   3.209  0.00  0.00    +0.001 A 
ATOM     28  C   UNL     1       3.293   3.070   4.293  0.00  0.00    +0.009 A 
ENDBRANCH  15  16
ENDBRANCH  14  15
ENDBRANCH  12  14
ENDBRANCH   1  12
BRANCH   1  29
ATOM     29  C   UNL     1      -4.477   7.372   1.149  0.00  0.00    -0.046 C 
BRANCH  29  30
ATOM     30  N   UNL     1      -5.932   7.570   1.192  0.00  0.00    +0.381 N 
ATOM     31  H   UNL     1      -6.234   8.248   0.379  0.00  0.00    -0.090 HD
ATOM     32  H   UNL     1      -6.214   8.010   2.159  0.00  0.00    -0.090 HD
ATOM     33  H   UNL     1      -6.438   6.601   1.068  0.00  0.00    -0.090 HD
ENDBRANCH  29  30
BRANCH  29  34
ATOM     34  C   UNL     1      -4.085   6.760  -0.197  0.00  0.00    +0.110 C 
BRANCH  34  35
ATOM     35  C   UNL     1      -4.369   7.747  -1.299  0.00  0.00    +0.354 C 
ATOM     36  O   UNL     1      -4.838   8.829  -1.035  0.00  0.00    -0.246 OA
ATOM     37  O   UNL     1      -4.102   7.425  -2.575  0.00  0.00    -0.246 OA
ENDBRANCH  34  35
ENDBRANCH  29  34
ENDBRANCH   1  29
TORSDOF 9
