REMARK  Name = ZINC58914866
REMARK  9 active torsions:
REMARK  status: ('A' for Active; 'I' for Inactive)
REMARK    1  A    between atoms: C_1  and  C_2
REMARK    2  A    between atoms: C_2  and  C_9
REMARK    3  A    between atoms: C_11  and  S_17
REMARK    4  A    between atoms: C_14  and  O_15
REMARK    5  A    between atoms: O_15  and  C_16
REMARK    6  A    between atoms: S_17  and  N_20
REMARK    7  A    between atoms: N_20  and  C_21
REMARK    8  A    between atoms: C_21  and  C_23
REMARK    9  A    between atoms: C_21  and  C_29
REMARK                            x       y       z     vdW  Elec       q    Type
REMARK                         _______ _______ _______ _____ _____    ______ ____
ROOT
ATOM      1  C   UNL     1      -1.333  -1.038   0.184  0.00  0.00    +0.028 A 
ATOM      2  C   UNL     1      -1.841  -1.734   1.264  0.00  0.00    +0.038 A 
ATOM      3  C   UNL     1      -3.123  -2.250   1.214  0.00  0.00    +0.106 A 
ATOM      4  C   UNL     1      -3.900  -2.071   0.084  0.00  0.00    +0.032 A 
ATOM      5  C   UNL     1      -3.397  -1.375  -0.998  0.00  0.00    +0.048 A 
ATOM      6  C   UNL     1      -2.113  -0.851  -0.949  0.00  0.00    +0.126 A 
ENDROOT
BRANCH   1   8
ATOM      7  C   UNL     1       0.038   1.044   0.059  0.00  0.00    +0.047 C 
ATOM      8  C   UNL     1       0.064  -0.475   0.238  0.00  0.00    +0.138 C 
ATOM      9  C   UNL     1       0.944  -1.122  -0.813  0.00  0.00    +0.248 C 
ATOM     10  O   UNL     1       0.792  -1.091  -2.015  0.00  0.00    -0.273 OA
ATOM     11  N   UNL     1       1.930  -1.739  -0.133  0.00  0.00    -0.238 N 
ATOM     12  C   UNL     1       1.798  -1.573   1.188  0.00  0.00    +0.307 C 
ATOM     13  O   UNL     1       2.566  -2.037   2.007  0.00  0.00    -0.252 OA
ATOM     14  N   UNL     1       0.718  -0.837   1.508  0.00  0.00    -0.281 N 
ATOM     15  H   UNL     1       2.648  -2.241  -0.550  0.00  0.00    +0.159 HD
ATOM     16  H   UNL     1       0.428  -0.591   2.400  0.00  0.00    +0.152 HD
ENDBRANCH   1   8
BRANCH   3  17
ATOM     17  S   UNL     1      -3.767  -3.139   2.592  0.00  0.00    +0.059 S 
ATOM     18  O   UNL     1      -4.876  -3.886   2.111  0.00  0.00    -0.153 OA
ATOM     19  O   UNL     1      -2.658  -3.752   3.235  0.00  0.00    -0.153 OA
BRANCH  17  20
ATOM     20  N   UNL     1      -4.373  -2.023   3.655  0.00  0.00    -0.182 NA
ATOM     21  H   UNL     1      -3.983  -1.933   4.539  0.00  0.00    +0.149 HD
BRANCH  20  22
ATOM     22  C   UNL     1      -5.497  -1.170   3.260  0.00  0.00    +0.109 C 
BRANCH  22  23
ATOM     23  C   UNL     1      -6.785  -1.775   3.755  0.00  0.00    -0.029 A 
ATOM     24  C   UNL     1      -6.840  -2.350   5.011  0.00  0.00    +0.005 A 
ATOM     25  C   UNL     1      -8.022  -2.905   5.465  0.00  0.00    +0.000 A 
ATOM     26  C   UNL     1      -9.148  -2.885   4.664  0.00  0.00    +0.000 A 
ATOM     27  C   UNL     1      -9.093  -2.309   3.409  0.00  0.00    +0.000 A 
ATOM     28  C   UNL     1      -7.912  -1.750   2.956  0.00  0.00    +0.005 A 
ENDBRANCH  22  23
BRANCH  22  29
ATOM     29  C   UNL     1      -5.319   0.222   3.870  0.00  0.00    +0.012 C 
ATOM     30  C   UNL     1      -5.546   1.428   2.956  0.00  0.00    +0.006 C 
ATOM     31  C   UNL     1      -4.128   1.056   3.394  0.00  0.00    +0.006 C 
ENDBRANCH  22  29
ENDBRANCH  20  22
ENDBRANCH  17  20
ENDBRANCH   3  17
BRANCH   6  32
ATOM     32  O   UNL     1      -1.618  -0.161  -2.010  0.00  0.00    -0.495 OA
ATOM     33  C   UNL     1      -2.477  -0.008  -3.142  0.00  0.00    +0.277 C 
ENDBRANCH   6  32
TORSDOF 7
