REMARK  Name = ZINC04571702
REMARK  4 active torsions:
REMARK  status: ('A' for Active; 'I' for Inactive)
REMARK    1  A    between atoms: C_1  and  C_2
REMARK    2  A    between atoms: C_11  and  O_28
REMARK    3  A    between atoms: C_13  and  C_16
REMARK    4  A    between atoms: C_19  and  C_21
REMARK                            x       y       z     vdW  Elec       q    Type
REMARK                         _______ _______ _______ _____ _____    ______ ____
ROOT
ATOM      1  C   UNL     1      -0.019   1.526   0.010  0.00  0.00    +0.008 C 
ATOM      2  C   UNL     1       0.002  -0.004   0.002  0.00  0.00    -0.009 C 
ATOM      3  C   UNL     1      -1.434  -0.537   0.019  0.00  0.00    +0.008 C 
ATOM      4  C   UNL     1      -1.433  -2.045  -0.237  0.00  0.00    +0.037 C 
ATOM      5  C   UNL     1      -0.467  -2.706   0.737  0.00  0.00    -0.023 A 
ATOM      6  C   UNL     1       0.483  -1.985   1.377  0.00  0.00    -0.004 A 
ATOM      7  S   UNL     1       1.344  -3.164   2.381  0.00  0.00    -0.078 S 
ATOM      8  C   UNL     1       0.503  -4.535   1.978  0.00  0.00    +0.080 A 
ATOM      9  C   UNL     1      -0.471  -4.120   1.062  0.00  0.00    +0.068 A 
ATOM     10  C   UNL     1      -1.397  -5.154   0.532  0.00  0.00    +0.220 C 
ATOM     11  N   UNL     1      -1.097  -6.406   0.750  0.00  0.00    -0.220 NA
ATOM     12  C   UNL     1       0.114  -6.860   1.422  0.00  0.00    +0.260 C 
ATOM     13  N   UNL     1       0.623  -5.850   2.368  0.00  0.00    -0.311 N 
ATOM     14  C   UNL     1       0.739  -0.515   1.249  0.00  0.00    +0.046 C 
ATOM     15  H   UNL     1       1.020  -6.098   3.217  0.00  0.00    +0.149 HD
ENDROOT
BRANCH  12  16
ATOM     16  C   UNL     1       1.174  -7.140   0.388  0.00  0.00    +0.148 A 
ATOM     17  C   UNL     1       0.949  -7.548  -0.877  0.00  0.00    +0.049 A 
ATOM     18  C   UNL     1       2.208  -7.689  -1.495  0.00  0.00    +0.050 A 
ATOM     19  C   UNL     1       3.141  -7.356  -0.564  0.00  0.00    +0.138 A 
ATOM     20  O   UNL     1       2.499  -7.020   0.572  0.00  0.00    -0.456 OA
BRANCH  19  21
ATOM     21  C   UNL     1       4.605  -7.358  -0.764  0.00  0.00    +0.052 A 
ATOM     22  C   UNL     1       5.236  -8.472  -1.320  0.00  0.00    +0.014 A 
ATOM     23  C   UNL     1       6.603  -8.467  -1.504  0.00  0.00    +0.001 A 
ATOM     24  C   UNL     1       7.350  -7.361  -1.141  0.00  0.00    +0.003 A 
ATOM     25  C   UNL     1       6.734  -6.252  -0.589  0.00  0.00    +0.039 A 
ATOM     26  C   UNL     1       5.364  -6.241  -0.404  0.00  0.00    +0.134 A 
ATOM     27  F   UNL     1       4.762  -5.155   0.130  0.00  0.00    -0.205 F 
ENDBRANCH  19  21
ENDBRANCH  12  16
BRANCH  10  28
ATOM     28  O   UNL     1      -2.512  -4.810  -0.154  0.00  0.00    -0.492 OA
ATOM     29  H   UNL     1      -3.039  -5.565  -0.450  0.00  0.00    +0.294 HD
ENDBRANCH  10  28
TORSDOF 3
