REMARK  Name = ZINC59392524
REMARK  4 active torsions:
REMARK  status: ('A' for Active; 'I' for Inactive)
REMARK    1  A    between atoms: C_1  and  N_2
REMARK    2  A    between atoms: N_10  and  C_11
REMARK    3  A    between atoms: C_18  and  S_20
REMARK    4  A    between atoms: S_20  and  C_21
REMARK                            x       y       z     vdW  Elec       q    Type
REMARK                         _______ _______ _______ _____ _____    ______ ____
ROOT
ATOM      1  C   UNL     1      -0.018   1.461   0.010  0.00  0.00    +0.138 C 
ATOM      2  N   UNL     1       0.002  -0.004   0.002  0.00  0.00    -0.269 N 
ATOM      3  C   UNL     1      -1.137  -0.803   0.003  0.00  0.00    +0.046 A 
ATOM      4  C   UNL     1      -2.489  -0.482   0.012  0.00  0.00    +0.025 A 
ATOM      5  C   UNL     1      -3.440  -1.484   0.012  0.00  0.00    +0.017 A 
ATOM      6  C   UNL     1      -3.062  -2.817   0.002  0.00  0.00    +0.019 A 
ATOM      7  C   UNL     1      -1.723  -3.155  -0.007  0.00  0.00    +0.027 A 
ATOM      8  C   UNL     1      -0.757  -2.153  -0.007  0.00  0.00    +0.028 A 
ATOM      9  C   UNL     1       0.722  -2.172  -0.015  0.00  0.00    +0.135 C 
ATOM     10  N   UNL     1       1.508  -3.224  -0.025  0.00  0.00    -0.242 NA
ATOM     11  C   UNL     1       1.123  -0.746  -0.013  0.00  0.00    +0.270 C 
ATOM     12  O   UNL     1       2.262  -0.322  -0.022  0.00  0.00    -0.268 OA
ATOM     13 BR   UNL     1      -4.379  -4.173   0.002  0.00  0.00    -0.050 Br
ENDROOT
BRANCH  10  14
ATOM     14  C   UNL     1       2.849  -3.065  -0.031  0.00  0.00    +0.066 A 
ATOM     15  C   UNL     1       3.453  -2.120  -0.881  0.00  0.00    +0.030 A 
ATOM     16  C   UNL     1       4.795  -1.946  -0.901  0.00  0.00    +0.031 A 
ATOM     17  C   UNL     1       5.647  -2.712  -0.063  0.00  0.00    +0.080 A 
ATOM     18  C   UNL     1       5.016  -3.658   0.784  0.00  0.00    +0.042 A 
ATOM     19  C   UNL     1       3.663  -3.836   0.815  0.00  0.00    +0.045 A 
ATOM     20  S   UNL     1       6.397  -4.380   1.638  0.00  0.00    -0.061 S 
ATOM     21  C   UNL     1       7.677  -3.417   0.844  0.00  0.00    +0.135 A 
ATOM     22  N   UNL     1       6.983  -2.652   0.026  0.00  0.00    -0.233 NA
BRANCH  21  23
ATOM     23  S   UNL     1       9.420  -3.475   1.093  0.00  0.00    -0.102 S 
ATOM     24  C   UNL     1      10.068  -2.223  -0.049  0.00  0.00    +0.092 C 
ENDBRANCH  21  23
ENDBRANCH  10  14
TORSDOF 2
