REMARK  Name = ZINC20882246
REMARK  7 active torsions:
REMARK  status: ('A' for Active; 'I' for Inactive)
REMARK    1  A    between atoms: C_1  and  C_2
REMARK    2  A    between atoms: C_2  and  C_3
REMARK    3  A    between atoms: C_2  and  C_4
REMARK    4  A    between atoms: C_4  and  O_5
REMARK    5  A    between atoms: O_5  and  C_6
REMARK    6  A    between atoms: C_9  and  C_12
REMARK    7  A    between atoms: C_17  and  C_27
REMARK                            x       y       z     vdW  Elec       q    Type
REMARK                         _______ _______ _______ _____ _____    ______ ____
ROOT
ATOM      1  C   UNL     1       1.428   2.005  -0.001  0.00  0.00    +0.032 C 
ATOM      2  C   UNL     1       2.123   1.406  -1.222  0.00  0.00    +0.059 C 
ATOM      3  C   UNL     1       2.104  -0.111  -1.135  0.00  0.00    +0.017 C 
ATOM      4  C   UNL     1       1.067  -0.745  -0.561  0.00  0.00    +0.039 C 
ATOM      5  C   UNL     1       0.901  -2.241  -0.440  0.00  0.00    +0.172 C 
ATOM      6  N   UNL     1       2.089  -3.004  -0.762  0.00  0.00    -0.329 N 
ATOM      7  C   UNL     1       2.621  -2.999  -2.050  0.00  0.00    +0.049 A 
ATOM      8  C   UNL     1       2.595  -4.132  -2.847  0.00  0.00    +0.025 A 
ATOM      9  C   UNL     1       3.036  -4.052  -4.157  0.00  0.00    +0.002 A 
ATOM     10  C   UNL     1       3.500  -2.853  -4.668  0.00  0.00    +0.002 A 
ATOM     11  C   UNL     1       3.547  -1.725  -3.867  0.00  0.00    +0.025 A 
ATOM     12  C   UNL     1       3.122  -1.807  -2.553  0.00  0.00    +0.052 A 
ATOM     13  N   UNL     1       3.183  -0.724  -1.683  0.00  0.00    -0.316 N 
ATOM     14  C   UNL     1       0.002  -0.004   0.002  0.00  0.00    +0.163 C 
ATOM     15  O   UNL     1      -0.931  -0.605   0.497  0.00  0.00    -0.292 OA
ATOM     16  C   UNL     1      -0.018   1.495   0.010  0.00  0.00    +0.088 C 
ATOM     17  H   UNL     1       2.587  -3.601   0.016  0.00  0.00    +0.147 HD
ATOM     18  H   UNL     1       4.197  -0.368  -1.446  0.00  0.00    +0.152 HD
ENDROOT
BRANCH   1  22
ATOM     19  C   UNL     1       1.457   6.270  -0.264  0.00  0.00    +0.121 A 
ATOM     20  C   UNL     1       2.038   5.637   0.825  0.00  0.00    +0.046 A 
ATOM     21  C   UNL     1       2.027   4.258   0.908  0.00  0.00    +0.007 A 
ATOM     22  C   UNL     1       1.438   3.509  -0.094  0.00  0.00    -0.043 A 
ATOM     23  C   UNL     1       0.863   4.137  -1.183  0.00  0.00    +0.007 A 
ATOM     24  C   UNL     1       0.866   5.516  -1.268  0.00  0.00    +0.046 A 
BRANCH  19  25
ATOM     25  O   UNL     1       1.465   7.627  -0.348  0.00  0.00    -0.492 OA
BRANCH  25  26
ATOM     26  C   UNL     1       0.849   8.210  -1.497  0.00  0.00    +0.232 C 
BRANCH  26  28
ATOM     27  C   UNL     1       2.428  10.146  -1.493  0.00  0.00    +0.010 C 
ATOM     28  C   UNL     1       0.957   9.734  -1.416  0.00  0.00    +0.020 C 
ATOM     29  C   UNL     1       0.189  10.362  -2.581  0.00  0.00    +0.010 C 
ENDBRANCH  26  28
ENDBRANCH  25  26
ENDBRANCH  19  25
ENDBRANCH   1  22
BRANCH   5  30
ATOM     30  C   UNL     1      -0.210  -2.675  -1.361  0.00  0.00    +0.130 A 
ATOM     31  C   UNL     1      -1.477  -2.938  -0.995  0.00  0.00    +0.047 A 
ATOM     32  C   UNL     1      -2.174  -3.308  -2.169  0.00  0.00    +0.041 A 
ATOM     33  C   UNL     1      -1.290  -3.249  -3.181  0.00  0.00    +0.195 A 
ATOM     34  O   UNL     1      -0.104  -2.860  -2.687  0.00  0.00    -0.466 OA
ENDBRANCH   5  30
TORSDOF 5
