REMARK  Name = ZINC32103909
REMARK  4 active torsions:
REMARK  status: ('A' for Active; 'I' for Inactive)
REMARK    1  A    between atoms: C_7  and  C_23
REMARK    2  A    between atoms: N_15  and  C_18
REMARK    3  A    between atoms: N_25  and  C_26
REMARK    4  A    between atoms: C_31  and  O_32
REMARK                            x       y       z     vdW  Elec       q    Type
REMARK                         _______ _______ _______ _____ _____    ______ ____
ROOT
ATOM      1  C   UNL     1      -1.557   8.837  -2.063  0.00  0.00    +0.000 A 
ATOM      2  C   UNL     1      -0.821   9.069  -3.212  0.00  0.00    +0.001 A 
ATOM      3  C   UNL     1       0.530   8.783  -3.240  0.00  0.00    +0.013 A 
ATOM      4  C   UNL     1       1.147   8.259  -2.107  0.00  0.00    +0.041 A 
ATOM      5  C   UNL     1       0.398   8.021  -0.953  0.00  0.00    -0.021 A 
ATOM      6  C   UNL     1      -0.949   8.314  -0.935  0.00  0.00    +0.005 A 
ATOM      7  C   UNL     1       1.079   7.442   0.259  0.00  0.00    +0.129 C 
ATOM      8  C   UNL     1       2.522   7.986   0.337  0.00  0.00    +0.053 C 
ATOM      9  C   UNL     1       3.194   7.371   1.550  0.00  0.00    +0.027 C 
ATOM     10  C   UNL     1       4.442   8.095   2.031  0.00  0.00    +0.002 C 
ATOM     11  C   UNL     1       4.200   9.596   2.172  0.00  0.00    +0.000 C 
ATOM     12  C   UNL     1       3.738  10.143   0.819  0.00  0.00    +0.002 C 
ATOM     13  C   UNL     1       2.393   9.509   0.478  0.00  0.00    +0.027 C 
ATOM     14  N   UNL     1       3.203   7.681  -0.918  0.00  0.00    -0.288 N 
ATOM     15  C   UNL     1       2.592   7.957  -2.094  0.00  0.00    +0.248 C 
ATOM     16  O   UNL     1       3.234   7.954  -3.125  0.00  0.00    -0.270 OA
ENDROOT
BRANCH  14  17
ATOM     17  C   UNL     1       4.546   7.096  -0.962  0.00  0.00    +0.077 C 
ATOM     18  C   UNL     1       5.528   8.080  -1.631  0.00  0.00    +0.022 C 
ATOM     19  C   UNL     1       6.475   7.171  -2.453  0.00  0.00    +0.002 C 
ATOM     20  C   UNL     1       5.518   6.080  -2.993  0.00  0.00    +0.002 C 
ATOM     21  C   UNL     1       4.540   5.825  -1.828  0.00  0.00    +0.022 C 
ENDBRANCH  14  17
BRANCH   7  22
ATOM     22  C   UNL     1       1.102   5.942   0.151  0.00  0.00    +0.227 C 
ATOM     23  O   UNL     1       2.161   5.351   0.139  0.00  0.00    -0.275 OA
ATOM     24  N   UNL     1      -0.055   5.255   0.067  0.00  0.00    -0.282 N 
ATOM     25  H   UNL     1      -1.010   5.794  -0.016  0.00  0.00    +0.155 HD
BRANCH  24  26
ATOM     26  C   UNL     1      -0.040   3.854   0.086  0.00  0.00    +0.075 A 
ATOM     27  C   UNL     1       1.014   3.177   0.683  0.00  0.00    +0.027 A 
ATOM     28  C   UNL     1       1.026   1.796   0.701  0.00  0.00    +0.002 A 
ATOM     29  C   UNL     1      -0.011   1.084   0.125  0.00  0.00    +0.004 A 
ATOM     30  C   UNL     1      -1.061   1.751  -0.477  0.00  0.00    +0.047 A 
ATOM     31  C   UNL     1      -1.083   3.136  -0.494  0.00  0.00    +0.138 A 
BRANCH  31  32
ATOM     32  O   UNL     1      -2.119   3.794  -1.080  0.00  0.00    -0.505 OA
ATOM     33  H   UNL     1      -2.943   3.227  -1.538  0.00  0.00    +0.292 HD
ENDBRANCH  31  32
ENDBRANCH  24  26
ENDBRANCH   7  22
TORSDOF 4
