REMARK  Name = ZINC15965845
REMARK  10 active torsions:
REMARK  status: ('A' for Active; 'I' for Inactive)
REMARK    1  A    between atoms: C_1  and  C_2
REMARK    2  A    between atoms: C_3  and  C_31
REMARK    3  A    between atoms: C_11  and  C_13
REMARK    4  A    between atoms: C_13  and  S_14
REMARK    5  A    between atoms: S_14  and  C_15
REMARK    6  A    between atoms: C_15  and  C_17
REMARK    7  A    between atoms: C_15  and  C_18
REMARK    8  A    between atoms: N_20  and  C_21
REMARK    9  A    between atoms: N_20  and  C_22
REMARK   10  A    between atoms: C_22  and  C_23
REMARK                            x       y       z     vdW  Elec       q    Type
REMARK                         _______ _______ _______ _____ _____    ______ ____
ROOT
ATOM      1  S   UNL     1      -0.212  -2.738  -0.829  0.00  0.00    -0.141 S 
ENDROOT
BRANCH   1   2
ATOM      2  C   UNL     1      -0.746  -1.173  -0.082  0.00  0.00    +0.130 C 
ATOM      3  C   UNL     1      -1.132  -1.412   1.379  0.00  0.00    +0.029 C 
BRANCH   2   4
ATOM      4  C   UNL     1       0.382  -0.175  -0.146  0.00  0.00    +0.228 C 
ATOM      5  O   UNL     1       1.522  -0.558  -0.298  0.00  0.00    -0.274 OA
ATOM      6  N   UNL     1       0.122   1.143  -0.035  0.00  0.00    -0.299 N 
ATOM      7  C   UNL     1      -1.264   1.613   0.030  0.00  0.00    +0.132 C 
BRANCH   6   8
ATOM      8  C   UNL     1       1.225   2.105   0.015  0.00  0.00    +0.144 C 
BRANCH   8   9
ATOM      9  C   UNL     1       1.724   2.224   1.433  0.00  0.00    -0.012 A 
ATOM     10  C   UNL     1       2.861   1.541   1.824  0.00  0.00    +0.008 A 
ATOM     11  C   UNL     1       3.320   1.649   3.123  0.00  0.00    +0.020 A 
ATOM     12  C   UNL     1       2.641   2.442   4.033  0.00  0.00    +0.042 A 
ATOM     13  C   UNL     1       1.504   3.125   3.642  0.00  0.00    +0.040 A 
ATOM     14  C   UNL     1       1.048   3.020   2.339  0.00  0.00    +0.047 A 
ATOM     15 CL   UNL     1      -0.375   3.882   1.845  0.00  0.00    -0.083 Cl
ATOM     16 CL   UNL     1       3.217   2.578   5.665  0.00  0.00    -0.083 Cl
ENDBRANCH   8   9
ENDBRANCH   6   8
ENDBRANCH   2   4
ENDBRANCH   1   2
BRANCH   1  17
ATOM     17  C   UNL     1      -1.706  -3.765  -0.812  0.00  0.00    +0.144 C 
BRANCH  17  28
ATOM     18  C   UNL     1      -1.250  -9.967  -3.317  0.00  0.00    +0.045 C 
ATOM     19  C   UNL     1      -0.335  -8.787  -3.117  0.00  0.00    -0.026 A 
ATOM     20  C   UNL     1       0.952  -8.854  -3.497  0.00  0.00    -0.008 A 
ATOM     21  S   UNL     1       1.595  -7.250  -3.059  0.00  0.00    -0.073 S 
ATOM     22  C   UNL     1       0.119  -6.538  -2.379  0.00  0.00    +0.116 A 
ATOM     23  C   UNL     1      -0.832  -7.566  -2.511  0.00  0.00    +0.075 A 
ATOM     24  C   UNL     1      -2.147  -7.260  -2.032  0.00  0.00    +0.260 A 
ATOM     25  O   UNL     1      -3.040  -8.086  -2.103  0.00  0.00    -0.267 OA
ATOM     26  N   UNL     1      -2.379  -6.047  -1.496  0.00  0.00    -0.310 N 
ATOM     27  H   UNL     1      -3.266  -5.835  -1.165  0.00  0.00    +0.170 HD
ATOM     28  C   UNL     1      -1.397  -5.112  -1.414  0.00  0.00    +0.121 A 
ATOM     29  N   UNL     1      -0.189  -5.361  -1.842  0.00  0.00    -0.226 NA
ATOM     30  C   UNL     1       1.677 -10.008  -4.140  0.00  0.00    +0.052 C 
ENDBRANCH  17  28
ENDBRANCH   1  17
TORSDOF 6
