REMARK  Name = ZINC31686598
REMARK  6 active torsions:
REMARK  status: ('A' for Active; 'I' for Inactive)
REMARK    1  A    between atoms: C_1  and  C_2
REMARK    2  A    between atoms: C_2  and  C_3
REMARK    3  A    between atoms: C_2  and  C_4
REMARK    4  A    between atoms: C_6  and  C_9
REMARK    5  A    between atoms: C_9  and  C_10
REMARK    6  A    between atoms: C_15  and  C_18
REMARK                            x       y       z     vdW  Elec       q    Type
REMARK                         _______ _______ _______ _____ _____    ______ ____
ROOT
ATOM      1  C   UNL     1      -2.799   8.740   0.071  0.00  0.00    +0.224 C 
ATOM      2  O   UNL     1      -3.956   8.375   0.080  0.00  0.00    -0.275 OA
ATOM      3  N   UNL     1      -1.805   7.829   0.057  0.00  0.00    -0.264 N 
ATOM      4  C   UNL     1      -2.106   6.473   0.053  0.00  0.00    +0.165 A 
ATOM      5  N   UNL     1      -1.282   5.445   0.046  0.00  0.00    -0.225 NA
ATOM      6  C   UNL     1      -1.737   4.200   0.039  0.00  0.00    +0.082 A 
ATOM      7  C   UNL     1      -3.091   4.011   0.050  0.00  0.00    +0.077 A 
ATOM      8  S   UNL     1      -3.663   5.704   0.064  0.00  0.00    -0.060 S 
ATOM      9  H   UNL     1      -0.756   8.160   0.048  0.00  0.00    +0.157 HD
ENDROOT
BRANCH   6  10
ATOM     10  C   UNL     1      -0.805   3.046   0.025  0.00  0.00    +0.026 A 
ATOM     11  C   UNL     1      -1.143   1.734   0.016  0.00  0.00    +0.093 A 
ATOM     12  N   UNL     1      -0.011   0.966   0.007  0.00  0.00    -0.360 N 
ATOM     13  H   UNL     1      -0.091  -0.131   0.006  0.00  0.00    +0.165 HD
ATOM     14  C   UNL     1       1.107   1.770   0.001  0.00  0.00    +0.047 A 
ATOM     15  C   UNL     1       0.665   3.105   0.011  0.00  0.00    +0.009 A 
ATOM     16  C   UNL     1       1.591   4.146   0.007  0.00  0.00    +0.010 A 
ATOM     17  C   UNL     1       2.929   3.865  -0.007  0.00  0.00    +0.001 A 
ATOM     18  C   UNL     1       3.372   2.550  -0.017  0.00  0.00    +0.002 A 
ATOM     19  C   UNL     1       2.473   1.506  -0.013  0.00  0.00    +0.026 A 
ENDBRANCH   6  10
BRANCH   1  20
ATOM     20  C   UNL     1      -2.473  10.211   0.075  0.00  0.00    +0.152 C 
BRANCH  20  23
ATOM     21  C   UNL     1      -5.395  12.151  -1.029  0.00  0.00    +0.081 A 
ATOM     22  N   UNL     1      -4.279  11.459  -1.028  0.00  0.00    -0.248 NA
ATOM     23  C   UNL     1      -3.751  11.009   0.091  0.00  0.00    +0.057 A 
ATOM     24  C   UNL     1      -4.383  11.286   1.260  0.00  0.00    +0.070 A 
ATOM     25  S   UNL     1      -5.783  12.222   0.662  0.00  0.00    -0.080 S 
BRANCH  21  27
ATOM     26  C   UNL     1      -7.554  12.146  -2.249  0.00  0.00    +0.014 C 
ATOM     27  C   UNL     1      -6.144  12.738  -2.197  0.00  0.00    +0.038 C 
ATOM     28  C   UNL     1      -6.234  14.257  -2.034  0.00  0.00    +0.014 C 
ENDBRANCH  21  27
ENDBRANCH  20  23
ENDBRANCH   1  20
TORSDOF 4
