REMARK  Name = ZINC22017258
REMARK  6 active torsions:
REMARK  status: ('A' for Active; 'I' for Inactive)
REMARK    1  A    between atoms: C_4  and  C_7
REMARK    2  A    between atoms: C_8  and  C_9
REMARK    3  A    between atoms: C_9  and  C_25
REMARK    4  A    between atoms: N_10  and  N_11
REMARK    5  A    between atoms: C_12  and  C_14
REMARK    6  A    between atoms: C_17  and  C_19
REMARK                            x       y       z     vdW  Elec       q    Type
REMARK                         _______ _______ _______ _____ _____    ______ ____
ROOT
ATOM      1  C   UNL     1      -3.030  -2.685   2.613  0.00  0.00    +0.089 C 
ATOM      2  N   UNL     1      -1.805  -2.241   2.475  0.00  0.00    -0.180 NA
ENDROOT
BRANCH   1   3
ATOM      3  C   UNL     1      -3.516  -3.113   3.946  0.00  0.00    +0.002 A 
ATOM      4  C   UNL     1      -4.821  -3.581   4.098  0.00  0.00    +0.010 A 
ATOM      5  C   UNL     1      -5.266  -3.984   5.340  0.00  0.00    +0.001 A 
ATOM      6  C   UNL     1      -4.425  -3.914   6.436  0.00  0.00    +0.000 A 
ATOM      7  C   UNL     1      -3.131  -3.445   6.293  0.00  0.00    +0.001 A 
ATOM      8  C   UNL     1      -2.673  -3.044   5.054  0.00  0.00    +0.010 A 
ENDBRANCH   1   3
BRANCH   2   9
ATOM      9  N   UNL     1      -1.288  -2.001   1.195  0.00  0.00    -0.206 N 
ATOM     10  C   UNL     1      -0.015  -1.581   1.050  0.00  0.00    +0.236 C 
ATOM     11  O   UNL     1       0.682  -1.411   2.028  0.00  0.00    -0.274 OA
ATOM     12  H   UNL     1      -1.920  -2.155   0.308  0.00  0.00    +0.177 HD
BRANCH  10  13
ATOM     13  C   UNL     1       0.542  -1.323  -0.326  0.00  0.00    +0.085 C 
ATOM     14  C   UNL     1       0.849   0.127  -0.704  0.00  0.00    +0.022 C 
ATOM     15  C   UNL     1       1.993  -0.849  -0.424  0.00  0.00    +0.032 C 
BRANCH  15  16
ATOM     16  C   UNL     1       2.803  -1.327  -1.601  0.00  0.00    -0.044 A 
ATOM     17  C   UNL     1       2.393  -1.033  -2.888  0.00  0.00    +0.004 A 
ATOM     18  C   UNL     1       3.139  -1.468  -3.967  0.00  0.00    +0.000 A 
ATOM     19  C   UNL     1       4.290  -2.204  -3.761  0.00  0.00    +0.000 A 
ATOM     20  C   UNL     1       4.698  -2.502  -2.474  0.00  0.00    +0.000 A 
ATOM     21  C   UNL     1       3.954  -2.064  -1.394  0.00  0.00    +0.004 A 
ENDBRANCH  15  16
ENDBRANCH  10  13
ENDBRANCH   2   9
BRANCH   1  23
ATOM     22  C   UNL     1      -3.823  -1.842   0.468  0.00  0.00    +0.010 C 
ATOM     23  C   UNL     1      -3.921  -2.759   1.448  0.00  0.00    +0.030 C 
BRANCH  22  27
ATOM     24  C   UNL     1      -6.147  -2.251  -3.058  0.00  0.00    +0.000 A 
ATOM     25  C   UNL     1      -5.290  -1.173  -2.920  0.00  0.00    +0.001 A 
ATOM     26  C   UNL     1      -4.531  -1.034  -1.777  0.00  0.00    +0.008 A 
ATOM     27  C   UNL     1      -4.630  -1.984  -0.756  0.00  0.00    -0.025 A 
ATOM     28  C   UNL     1      -5.494  -3.073  -0.905  0.00  0.00    +0.008 A 
ATOM     29  C   UNL     1      -6.250  -3.196  -2.052  0.00  0.00    +0.001 A 
ENDBRANCH  22  27
ENDBRANCH   1  23
TORSDOF 6
