REMARK  Name = ZINC11937148
REMARK  6 active torsions:
REMARK  status: ('A' for Active; 'I' for Inactive)
REMARK    1  A    between atoms: C_3  and  C_6
REMARK    2  A    between atoms: C_6  and  N_55
REMARK    3  A    between atoms: C_12  and  C_14
REMARK    4  A    between atoms: C_14  and  C_15
REMARK    5  A    between atoms: N_20  and  C_23
REMARK    6  A    between atoms: C_26  and  O_29
REMARK                            x       y       z     vdW  Elec       q    Type
REMARK                         _______ _______ _______ _____ _____    ______ ____
ROOT
ATOM      1  C   UNL     1      -0.940   1.791  -0.123  0.00  0.00    +0.090 C 
ENDROOT
BRANCH   1   7
ATOM      2  C   UNL     1      -3.392  -0.835  -1.212  0.00  0.00    -0.058 C 
ATOM      3  C   UNL     1      -3.063  -1.855  -0.120  0.00  0.00    +0.085 C 
ATOM      4  N   UNL     1      -2.660  -1.167   1.103  0.00  0.00    -0.318 N 
ATOM      5  C   UNL     1      -2.263   0.110   1.121  0.00  0.00    +0.200 C 
ATOM      6  O   UNL     1      -1.916   0.595   2.176  0.00  0.00    -0.278 OA
ATOM      7  C   UNL     1      -2.230   0.969  -0.112  0.00  0.00    +0.028 C 
ATOM      8  H   UNL     1      -2.682  -1.657   1.939  0.00  0.00    +0.149 HD
ATOM      9  N   UNL     1      -2.262   0.110  -1.311  0.00  0.00    +0.392 N 
ATOM     10  H   UNL     1      -1.385  -0.421  -1.367  0.00  0.00    -0.080 HD
BRANCH   9  11
ATOM     11  C   UNL     1      -2.401   0.943  -2.527  0.00  0.00    -0.034 C 
BRANCH  11  14
ATOM     12  C   UNL     1      -2.375  -1.344  -5.573  0.00  0.00    +0.008 A 
ATOM     13  C   UNL     1      -2.902  -0.647  -4.502  0.00  0.00    +0.009 A 
ATOM     14  C   UNL     1      -2.074   0.102  -3.734  0.00  0.00    -0.027 A 
ATOM     15  S   UNL     1      -0.497  -0.159  -4.528  0.00  0.00    -0.103 S 
ATOM     16  C   UNL     1      -1.046  -1.257  -5.825  0.00  0.00    +0.045 A 
ENDBRANCH  11  14
ENDBRANCH   9  11
ENDBRANCH   1   7
BRANCH   1  17
ATOM     17  C   UNL     1       0.246   0.863  -0.192  0.00  0.00    +0.215 C 
ATOM     18  O   UNL     1       0.076  -0.331  -0.321  0.00  0.00    -0.276 OA
ATOM     19  N   UNL     1       1.496   1.361  -0.116  0.00  0.00    -0.299 N 
ATOM     20  C   UNL     1       1.726   2.806   0.034  0.00  0.00    +0.126 C 
ATOM     21  C   UNL     1       2.680   3.022   1.220  0.00  0.00    +0.124 C 
ATOM     22  N   UNL     1       3.893   2.219   1.018  0.00  0.00    -0.327 N 
ATOM     23  C   UNL     1       3.585   0.782   1.001  0.00  0.00    +0.124 C 
ATOM     24  C   UNL     1       2.668   0.474  -0.188  0.00  0.00    +0.126 C 
BRANCH  22  25
ATOM     25  C   UNL     1       4.857   2.513   1.988  0.00  0.00    +0.030 A 
ATOM     26  C   UNL     1       5.379   1.498   2.780  0.00  0.00    +0.027 A 
ATOM     27  C   UNL     1       6.334   1.789   3.734  0.00  0.00    +0.047 A 
ATOM     28  C   UNL     1       6.764   3.096   3.909  0.00  0.00    +0.117 A 
ATOM     29  C   UNL     1       6.239   4.111   3.123  0.00  0.00    +0.047 A 
ATOM     30  C   UNL     1       5.288   3.821   2.165  0.00  0.00    +0.027 A 
BRANCH  28  31
ATOM     31  O   UNL     1       7.700   3.383   4.853  0.00  0.00    -0.507 OA
ATOM     32  H   UNL     1       7.331   3.596   5.721  0.00  0.00    +0.292 HD
ENDBRANCH  28  31
ENDBRANCH  22  25
ENDBRANCH   1  17
TORSDOF 6
