REMARK  Name = ZINC36685685
REMARK  9 active torsions:
REMARK  status: ('A' for Active; 'I' for Inactive)
REMARK    1  A    between atoms: C_1  and  C_2
REMARK    2  A    between atoms: C_5  and  S_8
REMARK    3  A    between atoms: S_8  and  C_9
REMARK    4  A    between atoms: C_9  and  C_10
REMARK    5  A    between atoms: N_12  and  C_13
REMARK    6  A    between atoms: C_14  and  C_25
REMARK    7  A    between atoms: N_19  and  C_22
REMARK    8  A    between atoms: C_22  and  C_23
REMARK    9  A    between atoms: C_22  and  C_24
REMARK                            x       y       z     vdW  Elec       q    Type
REMARK                         _______ _______ _______ _____ _____    ______ ____
ROOT
ATOM      1  C   UNL     1       0.129  -8.433   3.218  0.00  0.00    +0.082 A 
ATOM      2  C   UNL     1       0.139  -9.201   4.372  0.00  0.00    +0.039 A 
ATOM      3  C   UNL     1       0.159 -10.643   4.226  0.00  0.00    -0.023 A 
ATOM      4  C   UNL     1       0.166 -11.117   2.956  0.00  0.00    +0.009 A 
ATOM      5  S   UNL     1       0.138  -9.672   1.934  0.00  0.00    -0.076 S 
ATOM      6  C   UNL     1       0.189 -12.555   2.542  0.00  0.00    +0.127 C 
ATOM      7  N   UNL     1       0.559 -13.368   3.715  0.00  0.00    -0.295 NA
ATOM      8  C   UNL     1      -0.254 -12.995   4.881  0.00  0.00    +0.089 C 
ATOM      9  C   UNL     1       0.169 -11.618   5.399  0.00  0.00    +0.052 C 
ENDROOT
BRANCH   2  10
ATOM     10  C   UNL     1       0.131  -8.573   5.704  0.00  0.00    +0.112 A 
ATOM     11  N   UNL     1       0.144  -9.148   6.889  0.00  0.00    -0.239 NA
ATOM     12  C   UNL     1       0.135  -8.439   8.037  0.00  0.00    +0.079 A 
ATOM     13  C   UNL     1       0.147  -8.928   9.364  0.00  0.00    +0.029 A 
ATOM     14  C   UNL     1       0.133  -8.065  10.428  0.00  0.00    +0.002 A 
ATOM     15  C   UNL     1       0.107  -6.689  10.246  0.00  0.00    +0.001 A 
ATOM     16  C   UNL     1       0.095  -6.176   8.962  0.00  0.00    +0.017 A 
ATOM     17  C   UNL     1       0.108  -7.033   7.889  0.00  0.00    +0.040 A 
ATOM     18  S   UNL     1       0.107  -6.836   6.124  0.00  0.00    -0.067 S 
ENDBRANCH   2  10
BRANCH   1  21
ATOM     19  C   UNL     1       0.097  -6.482   1.870  0.00  0.00    +0.228 C 
ATOM     20  O   UNL     1       0.101  -7.180   0.878  0.00  0.00    -0.275 OA
ATOM     21  N   UNL     1       0.110  -7.048   3.093  0.00  0.00    -0.279 N 
ATOM     22  H   UNL     1       0.107  -6.489   3.886  0.00  0.00    +0.155 HD
BRANCH  19  23
ATOM     23  C   UNL     1       0.077  -4.981   1.735  0.00  0.00    +0.170 C 
BRANCH  23  24
ATOM     24  S   UNL     1       0.062  -4.533  -0.023  0.00  0.00    -0.116 S 
BRANCH  24  29
ATOM     25  C   UNL     1      -0.018   1.503   0.010  0.00  0.00    +0.044 C 
ATOM     26  C   UNL     1       0.002  -0.004   0.002  0.00  0.00    -0.050 A 
ATOM     27  C   UNL     1       0.006  -0.687  -1.200  0.00  0.00    +0.004 A 
ATOM     28  C   UNL     1       0.024  -2.068  -1.212  0.00  0.00    +0.015 A 
ATOM     29  C   UNL     1       0.039  -2.771  -0.013  0.00  0.00    +0.008 A 
ATOM     30  C   UNL     1       0.036  -2.081   1.193  0.00  0.00    +0.015 A 
ATOM     31  C   UNL     1       0.023  -0.700   1.197  0.00  0.00    +0.004 A 
ENDBRANCH  24  29
ENDBRANCH  23  24
ENDBRANCH  19  23
ENDBRANCH   1  21
BRANCH   7  32
ATOM     32  C   UNL     1       0.433 -14.802   3.423  0.00  0.00    +0.051 C 
ATOM     33  C   UNL     1       1.283 -15.149   2.199  0.00  0.00    +0.024 C 
ATOM     34  C   UNL     1       0.918 -15.613   4.626  0.00  0.00    +0.024 C 
ENDBRANCH   7  32
TORSDOF 6
