REMARK  Name = ZINC04567223
REMARK  3 active torsions:
REMARK  status: ('A' for Active; 'I' for Inactive)
REMARK    1  A    between atoms: C_4  and  C_7
REMARK    2  A    between atoms: C_10  and  C_11
REMARK    3  A    between atoms: N_15  and  C_18
REMARK                            x       y       z     vdW  Elec       q    Type
REMARK                         _______ _______ _______ _____ _____    ______ ____
ROOT
ATOM      1  C   UNL     1       2.324   9.784   1.131  0.00  0.00    +0.232 C 
ATOM      2  N   UNL     1       2.006   8.540   0.906  0.00  0.00    -0.205 NA
ATOM      3  C   UNL     1       2.719   7.738   1.748  0.00  0.00    +0.152 C 
ATOM      4  C   UNL     1       2.673   6.356   1.829  0.00  0.00    +0.045 C 
ATOM      5  C   UNL     1       3.543   8.650   2.556  0.00  0.00    +0.364 C 
ATOM      6  O   UNL     1       4.328   8.351   3.437  0.00  0.00    -0.243 OA
ATOM      7  O   UNL     1       3.244   9.889   2.110  0.00  0.00    -0.402 OA
ENDROOT
BRANCH   4   8
ATOM      8  C   UNL     1       1.929   5.617   0.880  0.00  0.00    +0.008 A 
ATOM      9  C   UNL     1       0.965   6.240   0.078  0.00  0.00    +0.012 A 
ATOM     10  C   UNL     1       0.258   5.472  -0.843  0.00  0.00    +0.019 A 
ATOM     11  C   UNL     1       0.495   4.142  -0.965  0.00  0.00    +0.092 A 
ATOM     12  N   UNL     1       1.420   3.506  -0.206  0.00  0.00    -0.310 N 
ATOM     13  C   UNL     1       2.144   4.175   0.713  0.00  0.00    +0.099 A 
ATOM     14  S   UNL     1       3.304   3.355   1.668  0.00  0.00    -0.032 S 
BRANCH  12  15
ATOM     15  C   UNL     1       1.623   2.131  -0.374  0.00  0.00    +0.047 A 
ATOM     16  C   UNL     1       0.539   1.262  -0.370  0.00  0.00    +0.026 A 
ATOM     17  C   UNL     1       0.743  -0.093  -0.537  0.00  0.00    +0.002 A 
ATOM     18  C   UNL     1       2.023  -0.586  -0.708  0.00  0.00    +0.000 A 
ATOM     19  C   UNL     1       3.104   0.276  -0.712  0.00  0.00    +0.002 A 
ATOM     20  C   UNL     1       2.908   1.633  -0.546  0.00  0.00    +0.026 A 
ENDBRANCH  12  15
ENDBRANCH   4   8
BRANCH   1  24
ATOM     21  C   UNL     1       0.670  13.090  -0.958  0.00  0.00    +0.000 A 
ATOM     22  C   UNL     1       1.611  13.303   0.034  0.00  0.00    +0.001 A 
ATOM     23  C   UNL     1       2.153  12.234   0.717  0.00  0.00    +0.013 A 
ATOM     24  C   UNL     1       1.749  10.934   0.405  0.00  0.00    +0.037 A 
ATOM     25  C   UNL     1       0.803  10.726  -0.601  0.00  0.00    +0.013 A 
ATOM     26  C   UNL     1       0.266  11.805  -1.272  0.00  0.00    +0.001 A 
ENDBRANCH   1  24
TORSDOF 3
