REMARK  Name = ZINC41604970
REMARK  4 active torsions:
REMARK  status: ('A' for Active; 'I' for Inactive)
REMARK    1  A    between atoms: C_1  and  C_2
REMARK    2  A    between atoms: N_7  and  C_9
REMARK    3  A    between atoms: C_9  and  C_10
REMARK    4  A    between atoms: C_13  and  N_16
REMARK                            x       y       z     vdW  Elec       q    Type
REMARK                         _______ _______ _______ _____ _____    ______ ____
ROOT
ATOM      1  C   UNL     1       1.671  -3.962   2.353  0.00  0.00    -0.064 A 
ATOM      2  C   UNL     1       0.827  -4.773   3.090  0.00  0.00    +0.003 A 
ATOM      3  C   UNL     1       0.944  -6.147   3.010  0.00  0.00    +0.023 A 
ATOM      4  C   UNL     1       1.910  -6.714   2.189  0.00  0.00    +0.034 A 
ATOM      5  C   UNL     1       2.756  -5.896   1.451  0.00  0.00    +0.023 A 
ATOM      6  C   UNL     1       2.631  -4.523   1.531  0.00  0.00    +0.003 A 
ENDROOT
BRANCH   4   7
ATOM      7  N   UNL     1       2.032  -8.104   2.107  0.00  0.00    -0.285 N 
ATOM      8  C   UNL     1       0.918  -8.897   2.208  0.00  0.00    +0.200 A 
ATOM      9  N   UNL     1       1.060 -10.250   2.248  0.00  0.00    -0.295 N 
ATOM     10  H   UNL     1       1.942 -10.651   2.209  0.00  0.00    +0.172 HD
ATOM     11  C   UNL     1      -0.036 -11.029   2.342  0.00  0.00    +0.256 A 
ATOM     12  O   UNL     1       0.070 -12.244   2.378  0.00  0.00    -0.267 OA
ATOM     13  C   UNL     1      -1.309 -10.421   2.399  0.00  0.00    +0.038 A 
ATOM     14  C   UNL     1      -1.390  -9.066   2.364  0.00  0.00    +0.053 A 
ATOM     15  N   UNL     1      -0.271  -8.338   2.271  0.00  0.00    -0.220 NA
ATOM     16  C   UNL     1      -2.702  -8.329   2.440  0.00  0.00    +0.056 C 
ATOM     17  C   UNL     1      -3.864  -9.263   2.109  0.00  0.00    +0.006 C 
ATOM     18  C   UNL     1      -3.732 -10.523   2.973  0.00  0.00    +0.005 C 
ATOM     19  C   UNL     1      -2.517 -11.312   2.489  0.00  0.00    +0.042 C 
ATOM     20  H   UNL     1       2.904  -8.508   1.978  0.00  0.00    +0.155 HD
ENDBRANCH   4   7
BRANCH   1  21
ATOM     21  C   UNL     1       1.540  -2.463   2.443  0.00  0.00    -0.043 C 
BRANCH  21  27
ATOM     22  C   UNL     1      -0.395   1.500   0.319  0.00  0.00    +0.005 C 
ATOM     23  C   UNL     1      -0.364  -0.029   0.313  0.00  0.00    -0.031 C 
ATOM     24  C   UNL     1      -1.777  -0.570   0.553  0.00  0.00    -0.001 C 
ATOM     25  C   UNL     1      -1.722  -2.099   0.623  0.00  0.00    -0.018 C 
ATOM     26  C   UNL     1      -0.746  -2.519   1.724  0.00  0.00    -0.078 C 
ATOM     27  N   UNL     1       0.591  -1.993   1.425  0.00  0.00    +0.383 N 
ATOM     28  C   UNL     1       0.562  -0.526   1.425  0.00  0.00    -0.075 C 
ATOM     29  H   UNL     1       0.885  -2.322   0.517  0.00  0.00    -0.081 HD
ENDBRANCH  21  27
ENDBRANCH   1  21
TORSDOF 3
