REMARK  Name = ZINC12329225
REMARK  8 active torsions:
REMARK  status: ('A' for Active; 'I' for Inactive)
REMARK    1  A    between atoms: C_1  and  C_2
REMARK    2  A    between atoms: C_8  and  O_32
REMARK    3  A    between atoms: C_17  and  C_18
REMARK    4  A    between atoms: C_17  and  N_63
REMARK    5  A    between atoms: C_18  and  C_20
REMARK    6  A    between atoms: C_18  and  O_31
REMARK    7  A    between atoms: C_21  and  C_30
REMARK    8  A    between atoms: N_22  and  C_29
REMARK                            x       y       z     vdW  Elec       q    Type
REMARK                         _______ _______ _______ _____ _____    ______ ____
ROOT
ATOM      1  C   UNL     1     -10.730   1.005   2.129  0.00  0.00    +0.044 C 
ATOM      2  C   UNL     1      -9.391   1.658   2.356  0.00  0.00    -0.050 A 
ATOM      3  C   UNL     1      -8.439   1.029   3.137  0.00  0.00    +0.007 A 
ATOM      4  C   UNL     1      -7.213   1.628   3.345  0.00  0.00    +0.046 A 
ATOM      5  C   UNL     1      -6.932   2.864   2.771  0.00  0.00    +0.127 A 
ATOM      6  C   UNL     1      -7.886   3.490   1.988  0.00  0.00    +0.023 A 
ATOM      7  C   UNL     1      -9.115   2.884   1.784  0.00  0.00    +0.013 A 
ATOM      8  C   UNL     1      -7.620   4.825   1.340  0.00  0.00    +0.152 C 
ATOM      9  C   UNL     1      -6.434   5.504   2.030  0.00  0.00    +0.084 C 
ATOM     10  C   UNL     1      -5.295   4.484   2.145  0.00  0.00    +0.110 C 
ATOM     11  O   UNL     1      -5.716   3.425   3.002  0.00  0.00    -0.485 OA
ATOM     12  C   UNL     1      -4.057   5.166   2.731  0.00  0.00    +0.029 C 
ATOM     13  C   UNL     1      -2.903   4.162   2.783  0.00  0.00    -0.075 C 
ATOM     14  C   UNL     1      -3.781   2.964   0.868  0.00  0.00    -0.075 C 
ATOM     15  C   UNL     1      -4.963   3.931   0.758  0.00  0.00    +0.029 C 
ATOM     16  N   UNL     1      -2.615   3.692   1.411  0.00  0.00    +0.382 N 
ATOM     17  H   UNL     1      -2.423   4.505   0.814  0.00  0.00    -0.082 HD
ENDROOT
BRANCH   8  18
ATOM     18  O   UNL     1      -8.778   5.653   1.463  0.00  0.00    -0.387 OA
ATOM     19  H   UNL     1      -9.570   5.286   1.046  0.00  0.00    +0.210 HD
ENDBRANCH   8  18
BRANCH  16  20
ATOM     20  C   UNL     1      -1.429   2.811   1.418  0.00  0.00    -0.042 C 
BRANCH  20  21
ATOM     21  C   UNL     1      -1.223   2.241   0.013  0.00  0.00    +0.130 C 
BRANCH  21  22
ATOM     22  C   UNL     1       0.017   1.385  -0.005  0.00  0.00    +0.007 A 
ATOM     23  C   UNL     1       0.061   0.044  -0.031  0.00  0.00    +0.022 A 
ATOM     24  N   UNL     1       1.362  -0.380  -0.046  0.00  0.00    -0.347 N 
ATOM     25  C   UNL     1       2.208   0.706  -0.031  0.00  0.00    +0.049 A 
ATOM     26  C   UNL     1       1.403   1.859  -0.005  0.00  0.00    +0.006 A 
ATOM     27  C   UNL     1       1.996   3.123   0.016  0.00  0.00    +0.010 A 
ATOM     28  C   UNL     1       3.359   3.233   0.009  0.00  0.00    +0.001 A 
ATOM     29  C   UNL     1       4.157   2.098  -0.017  0.00  0.00    +0.002 A 
ATOM     30  C   UNL     1       3.593   0.841  -0.037  0.00  0.00    +0.026 A 
ATOM     31  C   UNL     1       1.791  -1.781  -0.075  0.00  0.00    +0.149 C 
ATOM     32  C   UNL     1      -1.144  -0.862  -0.041  0.00  0.00    +0.064 C 
ENDBRANCH  21  22
BRANCH  21  33
ATOM     33  O   UNL     1      -1.075   3.313  -0.920  0.00  0.00    -0.389 OA
ATOM     34  H   UNL     1      -0.325   3.895  -0.735  0.00  0.00    +0.210 HD
ENDBRANCH  21  33
ENDBRANCH  20  21
ENDBRANCH  16  20
TORSDOF 5
