REMARK  Name = ZINC06197902
REMARK  9 active torsions:
REMARK  status: ('A' for Active; 'I' for Inactive)
REMARK    1  A    between atoms: C_1  and  C_2
REMARK    2  A    between atoms: C_2  and  C_3
REMARK    3  A    between atoms: C_10  and  C_15
REMARK    4  A    between atoms: C_15  and  C_17
REMARK    5  A    between atoms: C_15  and  N_72
REMARK    6  A    between atoms: N_21  and  C_22
REMARK    7  A    between atoms: C_22  and  C_23
REMARK    8  A    between atoms: C_22  and  C_24
REMARK    9  A    between atoms: C_22  and  C_25
REMARK                            x       y       z     vdW  Elec       q    Type
REMARK                         _______ _______ _______ _____ _____    ______ ____
ROOT
ATOM      1  C   UNL     1      -2.280   1.111   0.180  0.00  0.00    +0.039 C 
ENDROOT
BRANCH   1   9
ATOM      2  C   UNL     1       3.762   2.278   0.824  0.00  0.00    -0.047 A 
ATOM      3  C   UNL     1       3.650   3.661   0.869  0.00  0.00    +0.005 A 
ATOM      4  C   UNL     1       2.417   4.270   0.775  0.00  0.00    +0.026 A 
ATOM      5  C   UNL     1       1.272   3.492   0.632  0.00  0.00    +0.049 A 
ATOM      6  C   UNL     1       1.390   2.091   0.587  0.00  0.00    -0.001 A 
ATOM      7  C   UNL     1       2.652   1.494   0.684  0.00  0.00    +0.013 A 
ATOM      8  C   UNL     1       0.180   1.281   0.437  0.00  0.00    +0.017 A 
ATOM      9  C   UNL     1      -1.015   1.914   0.341  0.00  0.00    +0.011 A 
ATOM     10  C   UNL     1      -1.079   3.323   0.398  0.00  0.00    +0.251 A 
ATOM     11  O   UNL     1      -2.164   3.872   0.314  0.00  0.00    -0.268 OA
ATOM     12  N   UNL     1       0.027   4.075   0.535  0.00  0.00    -0.322 N 
ATOM     13  H   UNL     1      -0.056   5.071   0.568  0.00  0.00    +0.169 HD
BRANCH   2  15
ATOM     14  C   UNL     1       5.720   1.476  -0.470  0.00  0.00    +0.009 C 
ATOM     15  C   UNL     1       5.121   1.635   0.929  0.00  0.00    +0.032 C 
ENDBRANCH   2  15
ENDBRANCH   1   9
BRANCH   1  26
ATOM     16  C   UNL     1      -2.112   1.605  -2.184  0.00  0.00    -0.077 C 
ATOM     17  C   UNL     1      -2.854   2.220  -3.372  0.00  0.00    -0.018 C 
ATOM     18  C   UNL     1      -4.097   1.381  -3.681  0.00  0.00    +0.003 C 
ATOM     19  C   UNL     1      -4.982   1.317  -2.434  0.00  0.00    -0.044 C 
ATOM     20  C   UNL     1      -4.179   0.728  -1.272  0.00  0.00    -0.071 C 
ATOM     21  C   UNL     1      -5.450   2.727  -2.069  0.00  0.00    +0.005 C 
ATOM     22  C   UNL     1      -6.337   2.664  -0.824  0.00  0.00    +0.000 C 
ATOM     23  C   UNL     1      -7.553   1.780  -1.108  0.00  0.00    +0.000 C 
ATOM     24  C   UNL     1      -7.084   0.370  -1.471  0.00  0.00    +0.000 C 
ATOM     25  C   UNL     1      -6.197   0.432  -2.716  0.00  0.00    +0.005 C 
ATOM     26  N   UNL     1      -3.010   1.595  -1.010  0.00  0.00    +0.390 N 
ATOM     27  H   UNL     1      -3.338   2.552  -0.833  0.00  0.00    -0.080 HD
ENDBRANCH   1  26
BRANCH   1  28
ATOM     28  C   UNL     1      -3.152   1.298   1.395  0.00  0.00    +0.143 A 
ATOM     29  N   UNL     1      -3.771   2.397   1.752  0.00  0.00    -0.115 NA
ATOM     30  N   UNL     1      -4.414   2.155   2.842  0.00  0.00    -0.023 NA
ATOM     31  N   UNL     1      -4.216   0.933   3.193  0.00  0.00    -0.043 NA
ATOM     32  N   UNL     1      -3.443   0.371   2.326  0.00  0.00    -0.225 N 
BRANCH  32  33
ATOM     33  C   UNL     1      -2.970  -1.016   2.351  0.00  0.00    +0.059 C 
ATOM     34  C   UNL     1      -1.440  -1.033   2.354  0.00  0.00    +0.036 C 
ATOM     35  C   UNL     1      -3.491  -1.709   3.611  0.00  0.00    +0.036 C 
ATOM     36  C   UNL     1      -3.486  -1.752   1.113  0.00  0.00    +0.036 C 
ENDBRANCH  32  33
ENDBRANCH   1  28
TORSDOF 5
