REMARK  Name = ZINC03663893
REMARK  10 active torsions:
REMARK  status: ('A' for Active; 'I' for Inactive)
REMARK    1  A    between atoms: C_1  and  C_2
REMARK    2  A    between atoms: C_2  and  O_3
REMARK    3  A    between atoms: O_3  and  C_4
REMARK    4  A    between atoms: C_4  and  C_6
REMARK    5  A    between atoms: C_7  and  N_36
REMARK    6  A    between atoms: N_8  and  C_27
REMARK    7  A    between atoms: C_11  and  C_13
REMARK    8  A    between atoms: C_23  and  C_25
REMARK    9  A    between atoms: C_23  and  C_26
REMARK   10  A    between atoms: C_31  and  N_33
REMARK                            x       y       z     vdW  Elec       q    Type
REMARK                         _______ _______ _______ _____ _____    ______ ____
ROOT
ATOM      1  C   UNL     1      -0.286  -0.261  -0.445  0.00  0.00    +0.084 C 
ATOM      2  C   UNL     1       0.967  -0.788  -0.527  0.00  0.00    +0.103 C 
ATOM      3  N   UNL     1       1.222  -2.041  -0.023  0.00  0.00    -0.260 N 
ATOM      4  C   UNL     1       0.378  -2.608   0.896  0.00  0.00    +0.025 C 
ATOM      5  C   UNL     1      -0.885  -2.156   1.042  0.00  0.00    +0.025 C 
ATOM      6  C   UNL     1      -1.408  -1.028   0.191  0.00  0.00    +0.094 C 
ATOM      7  C   UNL     1      -1.753  -2.722   1.993  0.00  0.00    +0.162 C 
ATOM      8  O   UNL     1      -2.887  -2.297   2.093  0.00  0.00    -0.292 OA
ATOM      9  C   UNL     1      -1.303  -3.843   2.890  0.00  0.00    +0.086 C 
ATOM     10  C   UNL     1       0.210  -3.736   3.103  0.00  0.00    -0.023 C 
ATOM     11  C   UNL     1       0.895  -3.751   1.734  0.00  0.00    +0.058 C 
ATOM     12  C   UNL     1       0.536  -2.427   3.826  0.00  0.00    +0.011 C 
ATOM     13  C   UNL     1       0.697  -4.920   3.939  0.00  0.00    +0.011 C 
ENDROOT
BRANCH   6  14
ATOM     14  C   UNL     1      -2.291  -1.599  -0.889  0.00  0.00    -0.035 A 
ATOM     15  C   UNL     1      -1.763  -2.471  -1.823  0.00  0.00    +0.007 A 
ATOM     16  C   UNL     1      -2.573  -2.998  -2.812  0.00  0.00    +0.038 A 
ATOM     17  C   UNL     1      -3.910  -2.644  -2.872  0.00  0.00    +0.123 A 
ATOM     18  C   UNL     1      -4.436  -1.766  -1.940  0.00  0.00    +0.038 A 
ATOM     19  C   UNL     1      -3.626  -1.244  -0.949  0.00  0.00    +0.007 A 
ATOM     20  F   UNL     1      -4.701  -3.156  -3.841  0.00  0.00    -0.205 F 
ENDBRANCH   6  14
BRANCH   3  21
ATOM     21  C   UNL     1       2.354  -2.744  -0.452  0.00  0.00    +0.042 A 
ATOM     22  C   UNL     1       3.565  -2.582   0.210  0.00  0.00    +0.024 A 
ATOM     23  C   UNL     1       4.680  -3.277  -0.215  0.00  0.00    +0.004 A 
ATOM     24  C   UNL     1       4.592  -4.133  -1.298  0.00  0.00    +0.033 A 
ATOM     25  C   UNL     1       3.389  -4.296  -1.958  0.00  0.00    +0.128 A 
ATOM     26  C   UNL     1       2.268  -3.608  -1.535  0.00  0.00    +0.056 A 
BRANCH  25  27
ATOM     27  N   UNL     1       3.299  -5.214  -3.116  0.00  0.00    +0.056 N 
ATOM     28  O   UNL     1       4.285  -5.825  -3.487  0.00  0.00    -0.126 OA
ATOM     29  O   UNL     1       2.239  -5.359  -3.698  0.00  0.00    -0.126 OA
ENDBRANCH  25  27
ENDBRANCH   3  21
BRANCH   2  30
ATOM     30  N   UNL     1       1.975  -0.068  -1.114  0.00  0.00    -0.346 N 
ATOM     31  H   UNL     1       2.041   0.888  -0.961  0.00  0.00    +0.143 HD
ATOM     32  H   UNL     1       2.623  -0.514  -1.681  0.00  0.00    +0.143 HD
ENDBRANCH   2  30
BRANCH   1  33
ATOM     33  C   UNL     1      -0.530   1.021  -0.957  0.00  0.00    +0.339 C 
ATOM     34  O   UNL     1       0.349   1.615  -1.556  0.00  0.00    -0.245 OA
BRANCH  33  35
ATOM     35  O   UNL     1      -1.741   1.595  -0.791  0.00  0.00    -0.462 OA
BRANCH  35  37
ATOM     36  C   UNL     1      -3.344   3.385  -1.054  0.00  0.00    +0.048 C 
ATOM     37  C   UNL     1      -1.920   2.903  -1.339  0.00  0.00    +0.229 C 
ENDBRANCH  35  37
ENDBRANCH  33  35
ENDBRANCH   1  33
TORSDOF 7
