REMARK  Name = ZINC39449277
REMARK  6 active torsions:
REMARK  status: ('A' for Active; 'I' for Inactive)
REMARK    1  A    between atoms: C_4  and  C_7
REMARK    2  A    between atoms: C_7  and  N_8
REMARK    3  A    between atoms: C_16  and  C_19
REMARK    4  A    between atoms: C_24  and  O_25
REMARK    5  A    between atoms: C_27  and  C_32
REMARK    6  A    between atoms: C_37  and  O_38
REMARK                            x       y       z     vdW  Elec       q    Type
REMARK                         _______ _______ _______ _____ _____    ______ ____
ROOT
ATOM      1  N   UNL     1       4.087  -1.163   1.473  0.00  0.00    -0.299 N 
ATOM      2  C   UNL     1       4.820  -0.214   2.175  0.00  0.00    +0.111 A 
ATOM      3  C   UNL     1       5.213  -0.443   3.481  0.00  0.00    +0.081 A 
ATOM      4  C   UNL     1       4.863  -1.710   4.137  0.00  0.00    +0.099 A 
ATOM      5  C   UNL     1       4.119  -2.659   3.400  0.00  0.00    +0.067 A 
ATOM      6  C   UNL     1       3.728  -2.338   2.019  0.00  0.00    +0.261 A 
ATOM      7  O   UNL     1       3.081  -3.139   1.369  0.00  0.00    -0.267 OA
ATOM      8  C   UNL     1       3.773  -3.868   3.998  0.00  0.00    +0.025 A 
ATOM      9  C   UNL     1       4.183  -4.088   5.314  0.00  0.00    +0.004 A 
ATOM     10  C   UNL     1       4.917  -3.098   5.977  0.00  0.00    +0.120 A 
ATOM     11  N   UNL     1       5.229  -1.967   5.387  0.00  0.00    -0.252 NA
ATOM     12  N   UNL     1       5.928   0.522   4.165  0.00  0.00    -0.333 N 
ATOM     13  C   UNL     1       5.761   1.927   3.765  0.00  0.00    +0.112 C 
ATOM     14  C   UNL     1       6.005   2.028   2.255  0.00  0.00    +0.108 C 
ATOM     15  C   UNL     1       5.162   1.003   1.543  0.00  0.00    +0.183 C 
ATOM     16  O   UNL     1       4.771   1.225   0.414  0.00  0.00    -0.290 OA
ATOM     17  H   UNL     1       6.525   0.279   4.890  0.00  0.00    +0.147 HD
ENDROOT
BRANCH   9  18
ATOM     18  C   UNL     1       3.843  -5.355   6.002  0.00  0.00    +0.025 A 
ATOM     19  C   UNL     1       2.531  -5.827   5.994  0.00  0.00    +0.012 A 
ATOM     20  C   UNL     1       2.221  -7.008   6.636  0.00  0.00    +0.001 A 
ATOM     21  C   UNL     1       3.207  -7.728   7.288  0.00  0.00    +0.004 A 
ATOM     22  C   UNL     1       4.510  -7.269   7.303  0.00  0.00    +0.046 A 
ATOM     23  C   UNL     1       4.838  -6.087   6.658  0.00  0.00    +0.125 A 
BRANCH  23  24
ATOM     24  O   UNL     1       6.120  -5.639   6.667  0.00  0.00    -0.506 OA
ATOM     25  H   UNL     1       6.330  -5.062   7.415  0.00  0.00    +0.292 HD
ENDBRANCH  23  24
ENDBRANCH   9  18
BRANCH  13  26
ATOM     26  C   UNL     1       4.362   2.385   4.085  0.00  0.00    +0.014 A 
ATOM     27  C   UNL     1       3.369   1.455   4.326  0.00  0.00    +0.009 A 
ATOM     28  C   UNL     1       2.084   1.874   4.620  0.00  0.00    +0.001 A 
ATOM     29  C   UNL     1       1.790   3.224   4.675  0.00  0.00    +0.004 A 
ATOM     30  C   UNL     1       2.780   4.158   4.436  0.00  0.00    +0.046 A 
ATOM     31  C   UNL     1       4.071   3.740   4.145  0.00  0.00    +0.122 A 
BRANCH  31  32
ATOM     32  O   UNL     1       5.048   4.657   3.915  0.00  0.00    -0.506 OA
ATOM     33  H   UNL     1       5.132   4.917   2.988  0.00  0.00    +0.292 HD
ENDBRANCH  31  32
ENDBRANCH  13  26
BRANCH   1  34
ATOM     34  C   UNL     1       3.688  -0.871   0.094  0.00  0.00    +0.160 C 
BRANCH  34  38
ATOM     35  C   UNL     1       6.723  -2.229  -2.587  0.00  0.00    +0.000 A 
ATOM     36  C   UNL     1       5.781  -3.117  -2.103  0.00  0.00    +0.000 A 
ATOM     37  C   UNL     1       4.799  -2.677  -1.235  0.00  0.00    +0.005 A 
ATOM     38  C   UNL     1       4.759  -1.350  -0.851  0.00  0.00    -0.028 A 
ATOM     39  C   UNL     1       5.702  -0.462  -1.334  0.00  0.00    +0.005 A 
ATOM     40  C   UNL     1       6.684  -0.901  -2.203  0.00  0.00    +0.000 A 
ENDBRANCH  34  38
ENDBRANCH   1  34
TORSDOF 6
