REMARK  Name = ZINC67297432
REMARK  6 active torsions:
REMARK  status: ('A' for Active; 'I' for Inactive)
REMARK    1  A    between atoms: C_1  and  C_2
REMARK    2  A    between atoms: C_2  and  C_3
REMARK    3  A    between atoms: C_2  and  O_4
REMARK    4  A    between atoms: O_4  and  C_5
REMARK    5  A    between atoms: C_10  and  N_11
REMARK    6  A    between atoms: C_18  and  C_20
REMARK                            x       y       z     vdW  Elec       q    Type
REMARK                         _______ _______ _______ _____ _____    ______ ____
ROOT
ATOM      1  N   UNL     1      -3.871  -1.370  -0.148  0.00  0.00    -0.266 N 
ATOM      2  C   UNL     1      -5.114  -1.889  -0.177  0.00  0.00    +0.307 C 
ATOM      3  O   UNL     1      -5.333  -2.909  -0.803  0.00  0.00    -0.252 OA
ATOM      4  N   UNL     1      -6.115  -1.278   0.486  0.00  0.00    -0.278 N 
ATOM      5  C   UNL     1      -5.992  -0.038   1.275  0.00  0.00    +0.110 C 
ATOM      6  C   UNL     1      -7.419   0.565   1.291  0.00  0.00    +0.021 C 
ATOM      7  C   UNL     1      -8.296  -0.712   1.390  0.00  0.00    +0.029 C 
ATOM      8  C   UNL     1      -7.512  -1.733   0.539  0.00  0.00    +0.114 C 
ATOM      9  H   UNL     1      -3.709  -0.524   0.298  0.00  0.00    +0.156 HD
ENDROOT
BRANCH   1  15
ATOM     10  C   UNL     1      -1.534  -2.000  -0.211  0.00  0.00    +0.142 A 
ATOM     11  C   UNL     1      -0.491  -2.680  -0.818  0.00  0.00    +0.050 A 
ATOM     12  C   UNL     1      -0.718  -3.407  -1.972  0.00  0.00    +0.042 A 
ATOM     13  C   UNL     1      -1.987  -3.457  -2.524  0.00  0.00    +0.125 A 
ATOM     14  C   UNL     1      -3.033  -2.779  -1.923  0.00  0.00    +0.065 A 
ATOM     15  C   UNL     1      -2.812  -2.053  -0.762  0.00  0.00    +0.080 A 
ATOM     16  F   UNL     1      -2.204  -4.168  -3.652  0.00  0.00    -0.205 F 
BRANCH  10  17
ATOM     17  O   UNL     1      -1.311  -1.284   0.925  0.00  0.00    -0.488 OA
BRANCH  17  19
ATOM     18  C   UNL     1       0.251   0.201   2.017  0.00  0.00    +0.051 C 
ATOM     19  C   UNL     1       0.044  -1.166   1.362  0.00  0.00    +0.167 C 
ATOM     20  C   UNL     1       0.351  -2.270   2.376  0.00  0.00    +0.051 C 
ENDBRANCH  17  19
ENDBRANCH  10  17
ENDBRANCH   1  15
BRANCH   8  21
ATOM     21  C   UNL     1      -7.584  -3.095   1.181  0.00  0.00    +0.010 A 
ATOM     22  C   UNL     1      -8.369  -4.151   0.858  0.00  0.00    +0.013 A 
ATOM     23  C   UNL     1      -8.263  -5.316   1.595  0.00  0.00    +0.008 A 
ATOM     24  C   UNL     1      -7.377  -5.366   2.620  0.00  0.00    +0.045 A 
ATOM     25  S   UNL     1      -6.652  -3.736   2.562  0.00  0.00    -0.100 S 
ENDBRANCH   8  21
TORSDOF 4
