REMARK  Name = ZINC01679814
REMARK  25 active torsions:
REMARK  status: ('A' for Active; 'I' for Inactive)
REMARK    1  A    between atoms: C_1  and  C_2
REMARK    2  A    between atoms: C_3  and  C_32
REMARK    3  A    between atoms: C_5  and  C_28
REMARK    4  A    between atoms: C_6  and  O_27
REMARK    5  A    between atoms: C_7  and  C_8
REMARK    6  A    between atoms: C_8  and  N_89
REMARK    7  A    between atoms: C_9  and  N_89
REMARK    8  A    between atoms: C_10  and  C_11
REMARK    9  A    between atoms: C_10  and  N_89
REMARK   10  A    between atoms: C_12  and  C_26
REMARK   11  A    between atoms: C_13  and  C_22
REMARK   12  A    between atoms: C_15  and  C_18
REMARK   13  A    between atoms: C_16  and  O_17
REMARK   14  A    between atoms: C_18  and  C_19
REMARK   15  A    between atoms: C_18  and  C_20
REMARK   16  A    between atoms: C_18  and  C_21
REMARK   17  A    between atoms: C_22  and  C_23
REMARK   18  A    between atoms: C_22  and  C_24
REMARK   19  A    between atoms: C_22  and  C_25
REMARK   20  A    between atoms: C_28  and  C_29
REMARK   21  A    between atoms: C_28  and  C_30
REMARK   22  A    between atoms: C_28  and  C_31
REMARK   23  A    between atoms: C_32  and  C_33
REMARK   24  A    between atoms: C_32  and  C_34
REMARK   25  A    between atoms: C_32  and  C_35
REMARK                            x       y       z     vdW  Elec       q    Type
REMARK                         _______ _______ _______ _____ _____    ______ ____
ROOT
ATOM      1  C   UNL     1       1.722   4.366   0.440  0.00  0.00    -0.095 C 
ATOM      2  N   UNL     1       0.470   4.312   1.224  0.00  0.00    +0.383 N 
ATOM      3  H   UNL     1      -0.091   3.514   0.902  0.00  0.00    -0.081 HD
ENDROOT
BRANCH   2   4
ATOM      4  C   UNL     1       0.779   4.133   2.658  0.00  0.00    -0.039 C 
BRANCH   4  11
ATOM      5  C   UNL     1      -1.090   2.037   3.331  0.00  0.00    +0.044 C 
ATOM      6  C   UNL     1       0.377   1.722   3.197  0.00  0.00    -0.042 A 
ATOM      7  C   UNL     1       0.828   0.430   3.397  0.00  0.00    -0.038 A 
ATOM      8  C   UNL     1       2.174   0.139   3.275  0.00  0.00    +0.012 A 
ATOM      9  C   UNL     1       3.072   1.138   2.953  0.00  0.00    -0.000 A 
ATOM     10  C   UNL     1       2.622   2.434   2.748  0.00  0.00    +0.122 A 
ATOM     11  C   UNL     1       1.271   2.725   2.876  0.00  0.00    -0.019 A 
BRANCH   9  12
ATOM     12  C   UNL     1       4.539   0.820   2.820  0.00  0.00    -0.009 C 
ATOM     13  C   UNL     1       4.764  -0.670   3.089  0.00  0.00    +0.015 C 
ATOM     14  C   UNL     1       5.008   1.158   1.403  0.00  0.00    +0.015 C 
ATOM     15  C   UNL     1       5.335   1.647   3.832  0.00  0.00    +0.015 C 
ENDBRANCH   9  12
BRANCH   7  16
ATOM     16  C   UNL     1      -0.149  -0.661   3.748  0.00  0.00    -0.012 C 
ATOM     17  C   UNL     1       0.564  -2.014   3.715  0.00  0.00    +0.015 C 
ATOM     18  C   UNL     1      -0.709  -0.414   5.150  0.00  0.00    +0.015 C 
ATOM     19  C   UNL     1      -1.296  -0.665   2.735  0.00  0.00    +0.015 C 
ENDBRANCH   7  16
BRANCH  10  20
ATOM     20  O   UNL     1       3.502   3.418   2.425  0.00  0.00    -0.506 OA
ATOM     21  H   UNL     1       3.876   3.877   3.190  0.00  0.00    +0.292 HD
ENDBRANCH  10  20
ENDBRANCH   4  11
ENDBRANCH   2   4
BRANCH   2  22
ATOM     22  C   UNL     1      -0.305   5.555   1.026  0.00  0.00    -0.039 C 
BRANCH  22  23
ATOM     23  C   UNL     1      -0.793   5.601  -0.399  0.00  0.00    -0.019 A 
ATOM     24  C   UNL     1      -2.009   5.035  -0.732  0.00  0.00    -0.042 A 
ATOM     25  C   UNL     1      -2.458   5.077  -2.039  0.00  0.00    -0.038 A 
ATOM     26  C   UNL     1      -1.692   5.685  -3.016  0.00  0.00    +0.012 A 
ATOM     27  C   UNL     1      -0.476   6.253  -2.689  0.00  0.00    -0.000 A 
ATOM     28  C   UNL     1      -0.026   6.217  -1.377  0.00  0.00    +0.122 A 
ATOM     29  C   UNL     1      -2.846   4.371   0.331  0.00  0.00    +0.044 C 
BRANCH  27  30
ATOM     30  C   UNL     1       0.357   6.917  -3.754  0.00  0.00    -0.009 C 
ATOM     31  C   UNL     1      -0.366   6.824  -5.099  0.00  0.00    +0.015 C 
ATOM     32  C   UNL     1       0.572   8.388  -3.392  0.00  0.00    +0.015 C 
ATOM     33  C   UNL     1       1.712   6.213  -3.854  0.00  0.00    +0.015 C 
ENDBRANCH  27  30
BRANCH  25  34
ATOM     34  C   UNL     1      -3.784   4.458  -2.399  0.00  0.00    -0.012 C 
ATOM     35  C   UNL     1      -4.111   4.767  -3.861  0.00  0.00    +0.015 C 
ATOM     36  C   UNL     1      -3.711   2.943  -2.202  0.00  0.00    +0.015 C 
ATOM     37  C   UNL     1      -4.878   5.037  -1.499  0.00  0.00    +0.015 C 
ENDBRANCH  25  34
BRANCH  28  38
ATOM     38  O   UNL     1       1.168   6.779  -1.051  0.00  0.00    -0.506 OA
ATOM     39  H   UNL     1       1.919   6.175  -1.121  0.00  0.00    +0.292 HD
ENDBRANCH  28  38
ENDBRANCH  22  23
ENDBRANCH   2  22
TORSDOF 10
