REMARK  Name = ZINC35523389
REMARK  10 active torsions:
REMARK  status: ('A' for Active; 'I' for Inactive)
REMARK    1  A    between atoms: C_1  and  C_2
REMARK    2  A    between atoms: C_5  and  C_8
REMARK    3  A    between atoms: N_17  and  C_18
REMARK    4  A    between atoms: C_18  and  C_19
REMARK    5  A    between atoms: C_22  and  C_24
REMARK    6  A    between atoms: N_26  and  C_27
REMARK    7  A    between atoms: C_27  and  C_29
REMARK    8  A    between atoms: C_27  and  C_30
REMARK    9  A    between atoms: C_30  and  C_31
REMARK   10  A    between atoms: C_31  and  C_32
REMARK                            x       y       z     vdW  Elec       q    Type
REMARK                         _______ _______ _______ _____ _____    ______ ____
ROOT
ATOM      1  C   UNL     1       3.244  -4.833   1.844  0.00  0.00    +0.090 A 
ATOM      2  C   UNL     1       3.845  -6.034   1.997  0.00  0.00    +0.043 A 
ATOM      3  C   UNL     1       4.589  -5.975   3.185  0.00  0.00    +0.055 A 
ATOM      4  C   UNL     1       4.403  -4.726   3.704  0.00  0.00    +0.189 A 
ATOM      5  O   UNL     1       3.587  -4.046   2.873  0.00  0.00    -0.457 OA
ENDROOT
BRANCH   4   6
ATOM      6  C   UNL     1       4.990  -4.212   4.946  0.00  0.00    +0.280 C 
ATOM      7  O   UNL     1       5.718  -4.922   5.614  0.00  0.00    -0.267 OA
ATOM      8  N   UNL     1       4.724  -2.953   5.347  0.00  0.00    -0.306 N 
ATOM      9  H   UNL     1       4.143  -2.387   4.815  0.00  0.00    +0.149 HD
BRANCH   8  10
ATOM     10  C   UNL     1       5.311  -2.440   6.587  0.00  0.00    +0.071 C 
ATOM     11  C   UNL     1       6.712  -1.896   6.302  0.00  0.00    +0.028 C 
BRANCH  10  12
ATOM     12  C   UNL     1       4.431  -1.318   7.142  0.00  0.00    +0.026 C 
BRANCH  12  13
ATOM     13  C   UNL     1       3.069  -1.889   7.544  0.00  0.00    +0.037 C 
BRANCH  13  14
ATOM     14  C   UNL     1       2.203  -0.783   8.090  0.00  0.00    -0.047 A 
ATOM     15  C   UNL     1       2.226  -0.490   9.441  0.00  0.00    +0.003 A 
ATOM     16  C   UNL     1       1.431   0.524   9.941  0.00  0.00    +0.000 A 
ATOM     17  C   UNL     1       0.613   1.245   9.091  0.00  0.00    +0.000 A 
ATOM     18  C   UNL     1       0.590   0.952   7.740  0.00  0.00    +0.000 A 
ATOM     19  C   UNL     1       1.389  -0.059   7.239  0.00  0.00    +0.003 A 
ENDBRANCH  13  14
ENDBRANCH  12  13
ENDBRANCH  10  12
ENDBRANCH   8  10
ENDBRANCH   4   6
BRANCH   1  20
ATOM     20  C   UNL     1       2.343  -4.441   0.702  0.00  0.00    -0.002 C 
BRANCH  20  29
ATOM     21  C   UNL     1       0.059  -4.275  -0.021  0.00  0.00    +0.011 C 
ATOM     22  C   UNL     1      -1.329  -4.804   0.245  0.00  0.00    +0.009 A 
ATOM     23  C   UNL     1      -2.492  -4.383  -0.271  0.00  0.00    +0.021 A 
ATOM     24  C   UNL     1      -3.513  -5.184   0.284  0.00  0.00    +0.019 A 
ATOM     25  C   UNL     1      -2.926  -6.067   1.120  0.00  0.00    +0.086 A 
ATOM     26  N   UNL     1      -1.588  -5.843   1.100  0.00  0.00    -0.353 N 
ATOM     27  C   UNL     1      -0.536  -6.555   1.837  0.00  0.00    +0.103 C 
ATOM     28  C   UNL     1       0.810  -6.222   1.183  0.00  0.00    -0.055 C 
ATOM     29  N   UNL     1       0.951  -4.767   1.043  0.00  0.00    +0.394 N 
ATOM     30  H   UNL     1       0.709  -4.322   1.915  0.00  0.00    -0.080 HD
BRANCH  21  35
ATOM     31  C   UNL     1      -0.018   1.503   0.010  0.00  0.00    +0.044 C 
ATOM     32  C   UNL     1       0.002  -0.004   0.002  0.00  0.00    -0.050 A 
ATOM     33  C   UNL     1       0.006  -0.689  -1.199  0.00  0.00    +0.003 A 
ATOM     34  C   UNL     1       0.025  -2.071  -1.206  0.00  0.00    +0.002 A 
ATOM     35  C   UNL     1       0.040  -2.768  -0.013  0.00  0.00    -0.055 A 
ATOM     36  C   UNL     1       0.037  -2.084   1.188  0.00  0.00    +0.002 A 
ATOM     37  C   UNL     1       0.023  -0.702   1.195  0.00  0.00    +0.003 A 
ENDBRANCH  21  35
ENDBRANCH  20  29
ENDBRANCH   1  20
TORSDOF 8
