REMARK  Name = ZINC64053358
REMARK  5 active torsions:
REMARK  status: ('A' for Active; 'I' for Inactive)
REMARK    1  A    between atoms: C_6  and  C_11
REMARK    2  A    between atoms: N_13  and  C_14
REMARK    3  A    between atoms: C_14  and  C_15
REMARK    4  A    between atoms: N_20  and  C_22
REMARK    5  A    between atoms: C_22  and  C_23
REMARK                            x       y       z     vdW  Elec       q    Type
REMARK                         _______ _______ _______ _____ _____    ______ ____
ROOT
ATOM      1  C   UNL     1       3.391  -6.211   2.553  0.00  0.00    -0.011 C 
ATOM      2  C   UNL     1       1.864  -6.256   2.670  0.00  0.00    +0.001 C 
ATOM      3  C   UNL     1       1.409  -7.717   2.728  0.00  0.00    -0.018 C 
ATOM      4  C   UNL     1       2.102  -8.415   3.900  0.00  0.00    -0.078 C 
ATOM      5  N   UNL     1       3.557  -8.361   3.716  0.00  0.00    +0.383 N 
ATOM      6  C   UNL     1       4.010  -6.965   3.731  0.00  0.00    -0.073 C 
ATOM      7  H   UNL     1       3.799  -8.783   2.832  0.00  0.00    -0.081 HD
ENDROOT
BRANCH   1   8
ATOM      8  C   UNL     1       3.862  -4.756   2.573  0.00  0.00    +0.106 C 
BRANCH   8  11
ATOM      9  C   UNL     1       3.656  -2.764   1.185  0.00  0.00    +0.239 C 
ATOM     10  O   UNL     1       4.332  -2.165   1.995  0.00  0.00    -0.273 OA
ATOM     11  N   UNL     1       3.363  -4.065   1.381  0.00  0.00    -0.313 N 
ATOM     12  H   UNL     1       2.823  -4.543   0.734  0.00  0.00    +0.149 HD
BRANCH   9  18
ATOM     13  C   UNL     1      -0.016   1.348   0.009  0.00  0.00    +0.001 A 
ATOM     14  C   UNL     1       1.166   2.101   0.002  0.00  0.00    +0.002 A 
ATOM     15  C   UNL     1       2.391   1.535  -0.013  0.00  0.00    +0.026 A 
ATOM     16  C   UNL     1       2.529   0.120  -0.022  0.00  0.00    +0.043 A 
ATOM     17  N   UNL     1       3.587  -0.654  -0.037  0.00  0.00    -0.370 N 
ATOM     18  C   UNL     1       3.143  -2.053  -0.041  0.00  0.00    +0.190 C 
ATOM     19  C   UNL     1       1.631  -2.008  -0.025  0.00  0.00    +0.016 C 
ATOM     20  C   UNL     1       1.295  -0.698  -0.014  0.00  0.00    -0.004 A 
ATOM     21  C   UNL     1       0.002  -0.004   0.002  0.00  0.00    +0.010 A 
ATOM     22  H   UNL     1       4.509  -0.353  -0.045  0.00  0.00    +0.161 HD
ENDBRANCH   9  18
ENDBRANCH   8  11
ENDBRANCH   1   8
BRANCH   5  23
ATOM     23  C   UNL     1       4.214  -9.100   4.803  0.00  0.00    -0.043 C 
BRANCH  23  24
ATOM     24  C   UNL     1       3.854 -10.560   4.708  0.00  0.00    -0.060 A 
ATOM     25  C   UNL     1       2.734 -11.038   5.364  0.00  0.00    +0.005 A 
ATOM     26  C   UNL     1       2.401 -12.377   5.280  0.00  0.00    +0.049 A 
ATOM     27  C   UNL     1       3.189 -13.244   4.538  0.00  0.00    +0.162 A 
ATOM     28  C   UNL     1       4.313 -12.763   3.877  0.00  0.00    +0.162 A 
ATOM     29  C   UNL     1       4.639 -11.417   3.962  0.00  0.00    +0.051 A 
ATOM     30  O   UNL     1       5.095 -13.595   3.137  0.00  0.00    -0.485 OA
ATOM     31  C   UNL     1       4.946 -14.999   3.374  0.00  0.00    +0.270 C 
ATOM     32  C   UNL     1       3.447 -15.323   3.414  0.00  0.00    +0.270 C 
ATOM     33  O   UNL     1       2.851 -14.560   4.469  0.00  0.00    -0.485 OA
ENDBRANCH  23  24
ENDBRANCH   5  23
TORSDOF 5
