REMARK  Name = ZINC44317394
REMARK  7 active torsions:
REMARK  status: ('A' for Active; 'I' for Inactive)
REMARK    1  A    between atoms: C_1  and  C_2
REMARK    2  A    between atoms: C_2  and  C_4
REMARK    3  A    between atoms: C_2  and  N_7
REMARK    4  A    between atoms: C_4  and  C_5
REMARK    5  A    between atoms: C_4  and  C_6
REMARK    6  A    between atoms: N_7  and  C_8
REMARK    7  A    between atoms: C_9  and  C_11
REMARK                            x       y       z     vdW  Elec       q    Type
REMARK                         _______ _______ _______ _____ _____    ______ ____
ROOT
ATOM      1  N   UNL     1      -1.464  -0.561   0.095  0.00  0.00    -0.295 N 
ATOM      2  C   UNL     1      -2.568  -0.329  -0.840  0.00  0.00    +0.132 C 
ATOM      3  C   UNL     1      -1.587  -1.490   1.065  0.00  0.00    +0.282 C 
ATOM      4  O   UNL     1      -0.711  -1.616   1.900  0.00  0.00    -0.267 OA
ENDROOT
BRANCH   3   5
ATOM      5  C   UNL     1      -2.774  -2.347   1.112  0.00  0.00    +0.191 A 
ATOM      6  C   UNL     1      -3.081  -3.239   2.101  0.00  0.00    +0.056 A 
ATOM      7  C   UNL     1      -4.298  -3.837   1.742  0.00  0.00    +0.058 A 
ATOM      8  C   UNL     1      -4.677  -3.292   0.563  0.00  0.00    +0.171 A 
ATOM      9  O   UNL     1      -3.759  -2.390   0.190  0.00  0.00    -0.444 OA
ATOM     10 BR   UNL     1      -6.248  -3.725  -0.397  0.00  0.00    -0.008 Br
ENDBRANCH   3   5
BRANCH   1  12
ATOM     11  C   UNL     1      -0.544   1.704   0.139  0.00  0.00    +0.028 C 
ATOM     12  C   UNL     1      -0.228   0.216  -0.023  0.00  0.00    +0.076 C 
BRANCH  12  13
ATOM     13  C   UNL     1       0.397  -0.026  -1.399  0.00  0.00    +0.003 C 
ATOM     14  C   UNL     1       1.688   0.786  -1.523  0.00  0.00    +0.009 C 
ATOM     15  C   UNL     1       0.712  -1.514  -1.562  0.00  0.00    +0.009 C 
ENDBRANCH  12  13
ENDBRANCH   1  12
TORSDOF 3
