REMARK  Name = ZINC02450498
REMARK  7 active torsions:
REMARK  status: ('A' for Active; 'I' for Inactive)
REMARK    1  A    between atoms: C_1  and  C_2
REMARK    2  A    between atoms: C_2  and  C_3
REMARK    3  A    between atoms: C_14  and  S_16
REMARK    4  A    between atoms: S_16  and  C_17
REMARK    5  A    between atoms: C_17  and  C_18
REMARK    6  A    between atoms: N_20  and  C_21
REMARK    7  A    between atoms: C_25  and  O_27
REMARK                            x       y       z     vdW  Elec       q    Type
REMARK                         _______ _______ _______ _____ _____    ______ ____
ROOT
ATOM      1  C   UNL     1       0.953  11.538   0.578  0.00  0.00    +0.131 A 
ATOM      2  N   UNL     1       1.915  12.432   0.683  0.00  0.00    -0.228 NA
ATOM      3  C   UNL     1       3.191  12.055   0.695  0.00  0.00    +0.121 A 
ATOM      4  C   UNL     1       4.481  12.757   0.795  0.00  0.00    +0.046 A 
ATOM      5  C   UNL     1       4.849  14.094   0.916  0.00  0.00    +0.014 A 
ATOM      6  C   UNL     1       6.183  14.432   0.990  0.00  0.00    +0.001 A 
ATOM      7  C   UNL     1       7.156  13.445   0.942  0.00  0.00    +0.004 A 
ATOM      8  C   UNL     1       6.804  12.118   0.822  0.00  0.00    +0.047 A 
ATOM      9  C   UNL     1       5.463  11.757   0.747  0.00  0.00    +0.138 A 
ATOM     10  O   UNL     1       4.849  10.559   0.629  0.00  0.00    -0.451 OA
ATOM     11  C   UNL     1       3.507  10.695   0.601  0.00  0.00    +0.186 A 
ATOM     12  C   UNL     1       2.450   9.783   0.485  0.00  0.00    +0.144 A 
ATOM     13  N   UNL     1       1.204  10.247   0.481  0.00  0.00    -0.222 NA
ENDROOT
BRANCH   1  15
ATOM     14  C   UNL     1      -1.012  12.047   2.002  0.00  0.00    +0.012 C 
ATOM     15  C   UNL     1      -0.479  12.006   0.568  0.00  0.00    +0.073 C 
ENDBRANCH   1  15
BRANCH  12  16
ATOM     16  S   UNL     1       2.766   8.055   0.355  0.00  0.00    -0.093 S 
BRANCH  16  17
ATOM     17  C   UNL     1       1.070   7.433   0.247  0.00  0.00    +0.172 C 
BRANCH  17  18
ATOM     18  C   UNL     1       1.092   5.931   0.125  0.00  0.00    +0.227 C 
ATOM     19  O   UNL     1       2.151   5.339   0.113  0.00  0.00    -0.275 OA
ATOM     20  N   UNL     1      -0.064   5.245   0.030  0.00  0.00    -0.285 N 
ATOM     21  H   UNL     1      -0.906   5.721  -0.037  0.00  0.00    +0.155 HD
BRANCH  20  22
ATOM     22  C   UNL     1      -0.050   3.846   0.029  0.00  0.00    +0.037 A 
ATOM     23  C   UNL     1       0.906   3.159   0.767  0.00  0.00    +0.023 A 
ATOM     24  C   UNL     1       0.920   1.778   0.765  0.00  0.00    +0.005 A 
ATOM     25  C   UNL     1      -0.016   1.076   0.030  0.00  0.00    +0.045 A 
ATOM     26  C   UNL     1      -0.969   1.756  -0.714  0.00  0.00    +0.119 A 
ATOM     27  C   UNL     1      -0.990   3.143  -0.711  0.00  0.00    +0.068 A 
BRANCH  26  28
ATOM     28  O   UNL     1      -1.885   1.064  -1.442  0.00  0.00    -0.507 OA
ATOM     29  H   UNL     1      -2.696   0.857  -0.958  0.00  0.00    +0.292 HD
ENDBRANCH  26  28
ENDBRANCH  20  22
ENDBRANCH  17  18
ENDBRANCH  16  17
ENDBRANCH  12  16
TORSDOF 6
