REMARK  Name = ZINC04791087
REMARK  6 active torsions:
REMARK  status: ('A' for Active; 'I' for Inactive)
REMARK    1  A    between atoms: C_1  and  C_2
REMARK    2  A    between atoms: N_5  and  S_8
REMARK    3  A    between atoms: S_8  and  C_11
REMARK    4  A    between atoms: N_13  and  C_22
REMARK    5  A    between atoms: C_22  and  C_23
REMARK    6  A    between atoms: N_28  and  C_31
REMARK                            x       y       z     vdW  Elec       q    Type
REMARK                         _______ _______ _______ _____ _____    ______ ____
ROOT
ATOM      1  C   UNL     1       2.032   4.298  -3.378  0.00  0.00    +0.129 A 
ATOM      2  C   UNL     1       3.371   4.213  -3.331  0.00  0.00    +0.118 A 
ATOM      3  N   UNL     1       4.094   3.534  -4.269  0.00  0.00    -0.304 N 
ATOM      4  C   UNL     1       3.513   2.901  -5.308  0.00  0.00    +0.260 A 
ATOM      5  O   UNL     1       4.191   2.305  -6.125  0.00  0.00    -0.267 OA
ATOM      6  C   UNL     1       2.052   2.939  -5.442  0.00  0.00    +0.049 A 
ATOM      7  C   UNL     1       1.306   3.640  -4.466  0.00  0.00    +0.015 A 
ATOM      8  C   UNL     1      -0.084   3.699  -4.570  0.00  0.00    +0.010 A 
ATOM      9  C   UNL     1      -0.712   3.071  -5.609  0.00  0.00    +0.001 A 
ATOM     10  C   UNL     1       0.016   2.377  -6.567  0.00  0.00    +0.001 A 
ATOM     11  C   UNL     1       1.390   2.306  -6.493  0.00  0.00    +0.014 A 
ENDROOT
BRANCH   1  12
ATOM     12  S   UNL     1       1.154   5.190  -2.137  0.00  0.00    +0.063 S 
ATOM     13  O   UNL     1       0.084   5.854  -2.794  0.00  0.00    -0.153 OA
ATOM     14  O   UNL     1       2.128   5.886  -1.372  0.00  0.00    -0.153 OA
BRANCH  12  19
ATOM     15  C   UNL     1      -0.386  -0.005  -0.262  0.00  0.00    +0.007 C 
ATOM     16  C   UNL     1      -0.302   1.520  -0.182  0.00  0.00    -0.012 C 
ATOM     17  C   UNL     1      -0.987   2.134  -1.405  0.00  0.00    +0.020 C 
ATOM     18  C   UNL     1      -0.931   3.661  -1.304  0.00  0.00    +0.110 C 
ATOM     19  N   UNL     1       0.468   4.073  -1.125  0.00  0.00    -0.177 NA
ATOM     20  C   UNL     1       1.246   3.474  -0.032  0.00  0.00    +0.110 C 
ATOM     21  C   UNL     1       1.166   1.949  -0.148  0.00  0.00    +0.020 C 
ENDBRANCH  12  19
ENDBRANCH   1  12
BRANCH   3  22
ATOM     22  C   UNL     1       5.553   3.490  -4.142  0.00  0.00    +0.220 C 
BRANCH  22  23
ATOM     23  C   UNL     1       5.950   2.291  -3.320  0.00  0.00    +0.236 C 
ATOM     24  O   UNL     1       5.099   1.546  -2.884  0.00  0.00    -0.274 OA
ATOM     25  N   UNL     1       7.252   2.047  -3.071  0.00  0.00    -0.297 N 
ATOM     26  C   UNL     1       8.301   2.934  -3.596  0.00  0.00    +0.126 C 
ATOM     27  C   UNL     1       9.221   3.335  -2.431  0.00  0.00    +0.124 C 
ATOM     28  N   UNL     1       9.711   2.122  -1.762  0.00  0.00    -0.325 N 
ATOM     29  C   UNL     1       8.607   1.361  -1.164  0.00  0.00    +0.124 C 
ATOM     30  C   UNL     1       7.662   0.882  -2.271  0.00  0.00    +0.126 C 
BRANCH  28  31
ATOM     31  C   UNL     1      10.681   2.436  -0.804  0.00  0.00    +0.065 A 
ATOM     32  C   UNL     1      11.333   1.422  -0.116  0.00  0.00    +0.026 A 
ATOM     33  C   UNL     1      12.293   1.735   0.827  0.00  0.00    +0.002 A 
ATOM     34  C   UNL     1      12.599   3.056   1.093  0.00  0.00    +0.003 A 
ATOM     35  C   UNL     1      11.949   4.071   0.414  0.00  0.00    +0.040 A 
ATOM     36  C   UNL     1      10.990   3.765  -0.534  0.00  0.00    +0.144 A 
ATOM     37  F   UNL     1      10.354   4.755  -1.197  0.00  0.00    -0.204 F 
ENDBRANCH  28  31
ENDBRANCH  22  23
ENDBRANCH   3  22
TORSDOF 5
