REMARK  Name = ZINC43008670
REMARK  6 active torsions:
REMARK  status: ('A' for Active; 'I' for Inactive)
REMARK    1  A    between atoms: C_3  and  C_9
REMARK    2  A    between atoms: C_9  and  C_10
REMARK    3  A    between atoms: C_10  and  C_11
REMARK    4  A    between atoms: N_13  and  C_14
REMARK    5  A    between atoms: C_14  and  C_15
REMARK    6  A    between atoms: C_15  and  C_16
REMARK                            x       y       z     vdW  Elec       q    Type
REMARK                         _______ _______ _______ _____ _____    ______ ____
ROOT
ATOM      1  C   UNL     1       5.546   2.998   1.383  0.00  0.00    +0.213 C 
ATOM      2  O   UNL     1       5.962   3.471   0.347  0.00  0.00    -0.276 OA
ATOM      3  N   UNL     1       6.240   3.164   2.526  0.00  0.00    -0.315 N 
ATOM      4  H   UNL     1       5.907   2.786   3.355  0.00  0.00    +0.149 HD
ENDROOT
BRANCH   1   5
ATOM      5  C   UNL     1       4.252   2.225   1.392  0.00  0.00    +0.100 C 
BRANCH   5   6
ATOM      6  C   UNL     1       3.671   2.186  -0.023  0.00  0.00    +0.046 C 
BRANCH   6   9
ATOM      7  C   UNL     1      -0.017   1.378   0.010  0.00  0.00    +0.002 A 
ATOM      8  C   UNL     1       1.171   2.086   0.002  0.00  0.00    +0.005 A 
ATOM      9  C   UNL     1       2.378   1.413  -0.013  0.00  0.00    -0.027 A 
ATOM     10  C   UNL     1       2.398   0.030  -0.021  0.00  0.00    +0.062 A 
ATOM     11  C   UNL     1       1.209  -0.679  -0.013  0.00  0.00    +0.060 A 
ATOM     12  C   UNL     1       0.002  -0.004   0.002  0.00  0.00    +0.021 A 
ATOM     13 CL   UNL     1       1.234  -2.415  -0.023  0.00  0.00    -0.082 Cl
ATOM     14 CL   UNL     1       3.914  -0.816  -0.041  0.00  0.00    -0.082 Cl
ENDBRANCH   6   9
ENDBRANCH   5   6
ENDBRANCH   1   5
BRANCH   3  15
ATOM     15  C   UNL     1       7.497   3.916   2.518  0.00  0.00    +0.112 C 
BRANCH  15  16
ATOM     16  C   UNL     1       8.078   3.955   3.933  0.00  0.00    +0.095 C 
BRANCH  16  17
ATOM     17  C   UNL     1       9.371   4.728   3.923  0.00  0.00    +0.135 A 
ATOM     18  N   UNL     1      10.566   4.239   3.721  0.00  0.00    -0.134 NA
ATOM     19  N   UNL     1      11.438   5.186   3.775  0.00  0.00    -0.134 NA
ATOM     20  C   UNL     1      10.837   6.317   4.010  0.00  0.00    +0.133 A 
ATOM     21  N   UNL     1       9.513   6.058   4.117  0.00  0.00    -0.315 N 
ATOM     22  C   UNL     1       8.456   7.028   4.404  0.00  0.00    +0.125 C 
ATOM     23  C   UNL     1       8.880   8.408   3.893  0.00  0.00    +0.022 C 
ATOM     24  C   UNL     1       9.647   9.149   4.987  0.00  0.00    +0.002 C 
ATOM     25  C   UNL     1      10.913   8.386   5.364  0.00  0.00    +0.008 C 
ATOM     26  C   UNL     1      11.474   7.678   4.133  0.00  0.00    +0.076 C 
ENDBRANCH  16  17
ENDBRANCH  15  16
ENDBRANCH   3  15
TORSDOF 6
