REMARK  Name = ZINC08848796
REMARK  8 active torsions:
REMARK  status: ('A' for Active; 'I' for Inactive)
REMARK    1  A    between atoms: C_1  and  C_2
REMARK    2  A    between atoms: C_2  and  C_3
REMARK    3  A    between atoms: C_2  and  N_4
REMARK    4  A    between atoms: C_5  and  C_7
REMARK    5  A    between atoms: C_7  and  N_72
REMARK    6  A    between atoms: C_13  and  C_15
REMARK    7  A    between atoms: N_18  and  S_21
REMARK    8  A    between atoms: S_21  and  C_24
REMARK                            x       y       z     vdW  Elec       q    Type
REMARK                         _______ _______ _______ _____ _____    ______ ____
ROOT
ATOM      1  C   UNL     1       1.431   1.849  -0.202  0.00  0.00    +0.078 C 
ATOM      2  C   UNL     1      -0.001   1.312  -0.257  0.00  0.00    +0.030 C 
ATOM      3  C   UNL     1       0.034  -0.217  -0.344  0.00  0.00    +0.110 C 
ATOM      4  N   UNL     1       0.831  -0.736   0.776  0.00  0.00    -0.177 NA
ATOM      5  C   UNL     1       2.192  -0.219   0.974  0.00  0.00    +0.110 C 
ATOM      6  C   UNL     1       2.132   1.310   1.046  0.00  0.00    +0.030 C 
ENDROOT
BRANCH   1  12
ATOM      7  C   UNL     1       0.510   6.103  -2.207  0.00  0.00    -0.059 C 
ATOM      8  C   UNL     1       1.569   5.539  -1.254  0.00  0.00    +0.089 C 
ATOM      9  N   UNL     1       1.494   4.070  -1.289  0.00  0.00    -0.305 N 
ATOM     10  C   UNL     1       1.530   3.403  -2.599  0.00  0.00    +0.089 C 
ATOM     11  C   UNL     1       0.466   4.052  -3.500  0.00  0.00    -0.059 C 
ATOM     12  C   UNL     1       1.401   3.355  -0.151  0.00  0.00    +0.219 C 
ATOM     13  O   UNL     1       1.293   3.923   0.915  0.00  0.00    -0.275 OA
ATOM     14  N   UNL     1       0.712   5.509  -3.547  0.00  0.00    +0.387 N 
ATOM     15  H   UNL     1       1.682   5.674  -3.841  0.00  0.00    -0.081 HD
BRANCH  14  16
ATOM     16  C   UNL     1      -0.199   6.143  -4.522  0.00  0.00    +0.019 C 
BRANCH  16  18
ATOM     17  N   UNL     1      -2.628   6.454  -4.866  0.00  0.00    -0.315 N 
ATOM     18  C   UNL     1      -1.636   5.904  -4.138  0.00  0.00    +0.197 C 
ATOM     19  O   UNL     1      -1.900   5.217  -3.174  0.00  0.00    -0.278 OA
ATOM     20  H   UNL     1      -2.417   7.003  -5.637  0.00  0.00    +0.149 HD
BRANCH  17  22
ATOM     21  C   UNL     1      -4.445   7.235  -3.426  0.00  0.00    +0.027 C 
ATOM     22  C   UNL     1      -4.026   6.221  -4.493  0.00  0.00    +0.067 C 
ATOM     23  C   UNL     1      -4.917   6.381  -5.727  0.00  0.00    +0.027 C 
ENDBRANCH  17  22
ENDBRANCH  16  18
ENDBRANCH  14  16
ENDBRANCH   1  12
BRANCH   4  24
ATOM     24  S   UNL     1       0.207  -1.883   1.795  0.00  0.00    +0.061 S 
ATOM     25  O   UNL     1       0.919  -1.767   3.020  0.00  0.00    -0.153 OA
ATOM     26  O   UNL     1      -1.207  -1.765   1.722  0.00  0.00    -0.153 OA
BRANCH  24  27
ATOM     27  C   UNL     1       0.617  -3.458   1.121  0.00  0.00    +0.106 A 
ATOM     28  C   UNL     1      -0.245  -4.080   0.236  0.00  0.00    +0.029 A 
ATOM     29  C   UNL     1       0.084  -5.311  -0.290  0.00  0.00    +0.006 A 
ATOM     30  C   UNL     1       1.270  -5.939   0.070  0.00  0.00    -0.044 A 
ATOM     31  C   UNL     1       2.128  -5.321   0.953  0.00  0.00    -0.042 A 
ATOM     32  C   UNL     1       1.796  -4.078   1.478  0.00  0.00    +0.032 A 
ATOM     33  C   UNL     1       3.434  -5.937   1.380  0.00  0.00    +0.035 C 
ATOM     34  C   UNL     1       3.447  -7.434   1.076  0.00  0.00    +0.005 C 
ATOM     35  C   UNL     1       3.042  -7.633  -0.390  0.00  0.00    +0.005 C 
ATOM     36  C   UNL     1       1.560  -7.289  -0.531  0.00  0.00    +0.035 C 
ENDBRANCH  24  27
ENDBRANCH   4  24
TORSDOF 6
