REMARK  Name = ZINC06837690
REMARK  11 active torsions:
REMARK  status: ('A' for Active; 'I' for Inactive)
REMARK    1  A    between atoms: C_1  and  C_2
REMARK    2  A    between atoms: C_2  and  C_3
REMARK    3  A    between atoms: C_12  and  C_13
REMARK    4  A    between atoms: C_13  and  C_15
REMARK    5  A    between atoms: C_13  and  C_24
REMARK    6  A    between atoms: C_15  and  C_16
REMARK    7  A    between atoms: N_18  and  C_19
REMARK    8  A    between atoms: C_19  and  C_20
REMARK    9  A    between atoms: C_20  and  C_21
REMARK   10  A    between atoms: C_21  and  C_22
REMARK   11  A    between atoms: C_21  and  C_23
REMARK                            x       y       z     vdW  Elec       q    Type
REMARK                         _______ _______ _______ _____ _____    ______ ____
ROOT
ATOM      1  C   UNL     1      -2.479   0.934   0.019  0.00  0.00    +0.060 C 
ENDROOT
BRANCH   1  11
ATOM      2  C   UNL     1      -6.937   2.474  -1.686  0.00  0.00    -0.024 A 
ATOM      3  C   UNL     1      -6.990   1.692  -2.818  0.00  0.00    +0.005 A 
ATOM      4  C   UNL     1      -5.952   0.824  -3.128  0.00  0.00    +0.001 A 
ATOM      5  C   UNL     1      -4.858   0.732  -2.314  0.00  0.00    +0.010 A 
ATOM      6  C   UNL     1      -4.784   1.515  -1.161  0.00  0.00    +0.004 A 
ATOM      7  C   UNL     1      -5.834   2.396  -0.843  0.00  0.00    +0.050 A 
ATOM      8  N   UNL     1      -5.491   3.028   0.332  0.00  0.00    -0.360 N 
ATOM      9  H   UNL     1      -6.034   3.692   0.786  0.00  0.00    +0.165 HD
ATOM     10  C   UNL     1      -4.274   2.577   0.765  0.00  0.00    +0.088 A 
ATOM     11  C   UNL     1      -3.791   1.667  -0.095  0.00  0.00    -0.015 A 
BRANCH   2  13
ATOM     12  C   UNL     1      -7.748   4.808  -1.898  0.00  0.00    +0.009 C 
ATOM     13  C   UNL     1      -8.071   3.412  -1.362  0.00  0.00    +0.034 C 
ENDBRANCH   2  13
ENDBRANCH   1  11
BRANCH   1  14
ATOM     14  C   UNL     1      -2.454   0.145   1.302  0.00  0.00    -0.039 A 
ATOM     15  C   UNL     1      -2.574   0.795   2.516  0.00  0.00    +0.005 A 
ATOM     16  C   UNL     1      -2.557   0.071   3.693  0.00  0.00    +0.020 A 
ATOM     17  C   UNL     1      -2.408  -1.304   3.657  0.00  0.00    +0.041 A 
ATOM     18  C   UNL     1      -2.281  -1.954   2.442  0.00  0.00    +0.020 A 
ATOM     19  C   UNL     1      -2.304  -1.229   1.265  0.00  0.00    +0.005 A 
ATOM     20 CL   UNL     1      -2.378  -2.214   5.135  0.00  0.00    -0.084 Cl
ENDBRANCH   1  14
BRANCH   1  21
ATOM     21  C   UNL     1      -1.330   1.944   0.019  0.00  0.00    +0.108 C 
BRANCH  21  22
ATOM     22  C   UNL     1      -0.014   1.209   0.009  0.00  0.00    +0.214 C 
ATOM     23  O   UNL     1       0.002  -0.004   0.002  0.00  0.00    -0.276 OA
ATOM     24  N   UNL     1       1.143   1.898   0.001  0.00  0.00    -0.315 N 
ATOM     25  H   UNL     1       1.130   2.868   0.007  0.00  0.00    +0.149 HD
BRANCH  24  26
ATOM     26  C   UNL     1       2.422   1.183  -0.015  0.00  0.00    +0.104 C 
BRANCH  26  27
ATOM     27  C   UNL     1       3.571   2.193  -0.020  0.00  0.00    +0.022 C 
BRANCH  27  28
ATOM     28  C   UNL     1       4.907   1.446  -0.037  0.00  0.00    -0.016 C 
ATOM     29  C   UNL     1       5.042   0.672  -1.350  0.00  0.00    +0.007 C 
ATOM     30  C   UNL     1       6.054   2.451   0.083  0.00  0.00    +0.007 C 
ENDBRANCH  27  28
ENDBRANCH  26  27
ENDBRANCH  24  26
ENDBRANCH  21  22
ENDBRANCH   1  21
TORSDOF 8
