REMARK  Name = ZINC67389776
REMARK  11 active torsions:
REMARK  status: ('A' for Active; 'I' for Inactive)
REMARK    1  A    between atoms: C_1  and  C_2
REMARK    2  A    between atoms: C_5  and  C_30
REMARK    3  A    between atoms: N_8  and  C_10
REMARK    4  A    between atoms: C_10  and  C_11
REMARK    5  A    between atoms: C_11  and  N_12
REMARK    6  A    between atoms: N_15  and  C_16
REMARK    7  A    between atoms: C_16  and  C_18
REMARK    8  A    between atoms: C_16  and  C_19
REMARK    9  A    between atoms: C_23  and  S_25
REMARK   10  A    between atoms: S_25  and  N_28
REMARK   11  A    between atoms: N_28  and  C_29
REMARK                            x       y       z     vdW  Elec       q    Type
REMARK                         _______ _______ _______ _____ _____    ______ ____
ROOT
ATOM      1  N   UNL     1       3.766  -2.508   3.387  0.00  0.00    -0.301 N 
ATOM      2  C   UNL     1       5.085  -2.243   3.470  0.00  0.00    +0.300 C 
ATOM      3  O   UNL     1       5.633  -1.606   2.592  0.00  0.00    -0.253 OA
ATOM      4  N   UNL     1       5.796  -2.685   4.526  0.00  0.00    -0.293 N 
ATOM      5  H   UNL     1       3.329  -3.017   4.088  0.00  0.00    +0.150 HD
ATOM      6  H   UNL     1       5.359  -3.193   5.227  0.00  0.00    +0.151 HD
ENDROOT
BRANCH   4   7
ATOM      7  C   UNL     1       7.230  -2.397   4.616  0.00  0.00    +0.102 C 
ATOM      8  C   UNL     1       7.434  -1.016   5.242  0.00  0.00    +0.033 C 
BRANCH   7   9
ATOM      9  C   UNL     1       7.899  -3.441   5.473  0.00  0.00    -0.026 A 
ATOM     10  C   UNL     1       7.270  -3.908   6.611  0.00  0.00    +0.005 A 
ATOM     11  C   UNL     1       7.883  -4.866   7.397  0.00  0.00    +0.002 A 
ATOM     12  C   UNL     1       9.127  -5.357   7.043  0.00  0.00    +0.028 A 
ATOM     13  C   UNL     1       9.755  -4.890   5.904  0.00  0.00    +0.106 A 
ATOM     14  C   UNL     1       9.139  -3.936   5.116  0.00  0.00    +0.034 A 
BRANCH  13  15
ATOM     15  S   UNL     1      11.340  -5.515   5.454  0.00  0.00    +0.058 S 
ATOM     16  O   UNL     1      11.954  -4.522   4.644  0.00  0.00    -0.153 OA
ATOM     17  O   UNL     1      11.939  -6.003   6.647  0.00  0.00    -0.153 OA
BRANCH  15  18
ATOM     18  N   UNL     1      11.089  -6.831   4.479  0.00  0.00    -0.193 NA
ATOM     19  C   UNL     1      10.454  -6.661   3.170  0.00  0.00    +0.127 C 
ATOM     20  H   UNL     1      11.361  -7.713   4.776  0.00  0.00    +0.148 HD
ENDBRANCH  15  18
ENDBRANCH  13  15
ENDBRANCH   7   9
ENDBRANCH   4   7
BRANCH   1  21
ATOM     21  C   UNL     1       2.993  -2.028   2.239  0.00  0.00    +0.087 C 
BRANCH  21  22
ATOM     22  C   UNL     1       1.534  -2.461   2.390  0.00  0.00    -0.060 C 
BRANCH  22  28
ATOM     23  C   UNL     1      -0.019   1.526   0.010  0.00  0.00    +0.005 C 
ATOM     24  C   UNL     1       0.002  -0.004   0.002  0.00  0.00    -0.031 C 
ATOM     25  C   UNL     1      -1.434  -0.535   0.015  0.00  0.00    +0.003 C 
ATOM     26  C   UNL     1      -1.402  -2.064   0.086  0.00  0.00    -0.031 C 
ATOM     27  C   UNL     1      -0.613  -2.496   1.324  0.00  0.00    -0.076 C 
ATOM     28  N   UNL     1       0.758  -1.980   1.239  0.00  0.00    +0.381 N 
ATOM     29  C   UNL     1       0.740  -0.512   1.242  0.00  0.00    -0.076 C 
ATOM     30  C   UNL     1      -0.728  -2.620  -1.170  0.00  0.00    +0.005 C 
ATOM     31  H   UNL     1       1.188  -2.307   0.386  0.00  0.00    -0.082 HD
ENDBRANCH  22  28
ENDBRANCH  21  22
ENDBRANCH   1  21
TORSDOF 7
