REMARK  Name = ZINC39226115
REMARK  5 active torsions:
REMARK  status: ('A' for Active; 'I' for Inactive)
REMARK    1  A    between atoms: C_1  and  C_2
REMARK    2  A    between atoms: C_2  and  C_3
REMARK    3  A    between atoms: C_2  and  C_4
REMARK    4  A    between atoms: C_2  and  O_25
REMARK    5  A    between atoms: C_4  and  C_5
REMARK                            x       y       z     vdW  Elec       q    Type
REMARK                         _______ _______ _______ _____ _____    ______ ____
ROOT
ATOM      1  C   UNL     1      -1.409  -2.017   0.249  0.00  0.00    +0.218 C 
ATOM      2  O   UNL     1      -0.364  -2.586   0.487  0.00  0.00    -0.276 OA
ATOM      3  N   UNL     1      -2.560  -2.716   0.197  0.00  0.00    -0.301 N 
ATOM      4  C   UNL     1      -3.832  -2.042  -0.097  0.00  0.00    +0.111 C 
ATOM      5  C   UNL     1      -4.836  -2.381   1.010  0.00  0.00    +0.067 C 
ATOM      6  C   UNL     1      -4.946  -3.901   1.147  0.00  0.00    +0.121 C 
ATOM      7  C   UNL     1      -3.584  -4.483   1.532  0.00  0.00    +0.067 C 
ATOM      8  C   UNL     1      -2.566  -4.167   0.426  0.00  0.00    +0.111 C 
ATOM      9  C   UNL     1      -5.968  -4.237   2.242  0.00  0.00    +0.127 C 
ATOM     10  C   UNL     1      -7.303  -3.663   1.798  0.00  0.00    +0.171 C 
ATOM     11  O   UNL     1      -8.057  -3.123   2.580  0.00  0.00    -0.292 OA
ATOM     12  C   UNL     1      -7.633  -3.796   0.368  0.00  0.00    +0.062 A 
ATOM     13  C   UNL     1      -8.924  -3.530  -0.093  0.00  0.00    +0.035 A 
ATOM     14  C   UNL     1      -9.207  -3.658  -1.437  0.00  0.00    +0.043 A 
ATOM     15  C   UNL     1      -8.215  -4.048  -2.324  0.00  0.00    +0.043 A 
ATOM     16  C   UNL     1      -6.935  -4.316  -1.878  0.00  0.00    +0.085 A 
ATOM     17  C   UNL     1      -6.629  -4.195  -0.528  0.00  0.00    +0.150 A 
ATOM     18  O   UNL     1      -5.376  -4.465  -0.092  0.00  0.00    -0.483 OA
ATOM     19 CL   UNL     1      -5.708  -4.803  -3.005  0.00  0.00    -0.080 Cl
ATOM     20 CL   UNL     1     -10.809  -3.329  -2.019  0.00  0.00    -0.083 Cl
ENDROOT
BRANCH   1  21
ATOM     21  C   UNL     1      -1.419  -0.529   0.011  0.00  0.00    +0.130 C 
BRANCH  21  23
ATOM     22  C   UNL     1       0.762  -0.647  -1.202  0.00  0.00    +0.041 C 
ATOM     23  C   UNL     1       0.019  -0.009  -0.027  0.00  0.00    +0.069 C 
ATOM     24  C   UNL     1       0.006   1.512  -0.197  0.00  0.00    +0.041 C 
BRANCH  23  25
ATOM     25  O   UNL     1       0.680  -0.345   1.195  0.00  0.00    -0.389 OA
ATOM     26  H   UNL     1       1.598  -0.046   1.241  0.00  0.00    +0.210 HD
ENDBRANCH  23  25
ENDBRANCH  21  23
ENDBRANCH   1  21
TORSDOF 3
