REMARK  Name = ZINC01045970
REMARK  5 active torsions:
REMARK  status: ('A' for Active; 'I' for Inactive)
REMARK    1  A    between atoms: N_9  and  C_12
REMARK    2  A    between atoms: C_12  and  N_13
REMARK    3  A    between atoms: N_13  and  C_14
REMARK    4  A    between atoms: C_19  and  O_20
REMARK    5  A    between atoms: O_20  and  C_21
REMARK                            x       y       z     vdW  Elec       q    Type
REMARK                         _______ _______ _______ _____ _____    ______ ____
ROOT
ATOM      1  C   UNL     1       3.423   5.974  -0.212  0.00  0.00    +0.071 A 
ATOM      2  C   UNL     1       3.349   7.356  -0.312  0.00  0.00    +0.026 A 
ATOM      3  C   UNL     1       2.118   7.984  -0.295  0.00  0.00    +0.002 A 
ATOM      4  C   UNL     1       0.959   7.239  -0.180  0.00  0.00    +0.004 A 
ATOM      5  C   UNL     1       1.025   5.861  -0.086  0.00  0.00    +0.048 A 
ATOM      6  C   UNL     1       2.255   5.223  -0.097  0.00  0.00    +0.149 A 
ENDROOT
BRANCH   1   7
ATOM      7  N   UNL     1       4.668   5.335  -0.229  0.00  0.00    -0.325 N 
ATOM      8  H   UNL     1       4.719   4.369  -0.160  0.00  0.00    +0.148 HD
BRANCH   7   9
ATOM      9  C   UNL     1       5.896   6.127  -0.351  0.00  0.00    +0.222 C 
BRANCH   9  18
ATOM     10  C   UNL     1       8.518   6.637   5.115  0.00  0.00    +0.001 A 
ATOM     11  C   UNL     1       7.776   7.801   5.188  0.00  0.00    +0.001 A 
ATOM     12  C   UNL     1       6.953   8.177   4.137  0.00  0.00    +0.014 A 
ATOM     13  C   UNL     1       6.875   7.379   3.006  0.00  0.00    +0.049 A 
ATOM     14  C   UNL     1       7.632   6.192   2.933  0.00  0.00    +0.049 A 
ATOM     15  C   UNL     1       8.450   5.830   3.991  0.00  0.00    +0.014 A 
ATOM     16  C   UNL     1       7.320   5.595   1.617  0.00  0.00    +0.255 C 
ATOM     17  O   UNL     1       7.780   4.559   1.182  0.00  0.00    -0.269 OA
ATOM     18  N   UNL     1       6.441   6.391   0.983  0.00  0.00    -0.218 N 
ATOM     19  C   UNL     1       6.132   7.465   1.732  0.00  0.00    +0.255 C 
ATOM     20  O   UNL     1       5.369   8.355   1.414  0.00  0.00    -0.269 OA
ENDBRANCH   9  18
ENDBRANCH   7   9
ENDBRANCH   1   7
BRANCH   6  21
ATOM     21  O   UNL     1       2.322   3.869   0.001  0.00  0.00    -0.453 OA
BRANCH  21  22
ATOM     22  C   UNL     1       1.156   3.170  -0.013  0.00  0.00    +0.147 A 
ATOM     23  C   UNL     1       0.585   2.748   1.179  0.00  0.00    +0.049 A 
ATOM     24  C   UNL     1      -0.600   2.038   1.163  0.00  0.00    +0.023 A 
ATOM     25  C   UNL     1      -1.220   1.750  -0.040  0.00  0.00    +0.043 A 
ATOM     26  C   UNL     1      -0.649   2.164  -1.231  0.00  0.00    +0.043 A 
ATOM     27  C   UNL     1       0.536   2.876  -1.220  0.00  0.00    +0.085 A 
ATOM     28 CL   UNL     1       1.248   3.402  -2.713  0.00  0.00    -0.080 Cl
ATOM     29 CL   UNL     1      -2.712   0.863  -0.057  0.00  0.00    -0.083 Cl
ENDBRANCH  21  22
ENDBRANCH   6  21
TORSDOF 5
