REMARK  Name = ZINC04950019
REMARK  12 active torsions:
REMARK  status: ('A' for Active; 'I' for Inactive)
REMARK    1  A    between atoms: C_1  and  C_2
REMARK    2  A    between atoms: C_2  and  C_27
REMARK    3  A    between atoms: C_4  and  C_9
REMARK    4  A    between atoms: C_6  and  C_7
REMARK    5  A    between atoms: C_6  and  C_8
REMARK    6  A    between atoms: C_9  and  C_10
REMARK    7  A    between atoms: C_10  and  N_11
REMARK    8  A    between atoms: N_11  and  S_12
REMARK    9  A    between atoms: S_12  and  C_15
REMARK   10  A    between atoms: C_15  and  C_16
REMARK   11  A    between atoms: C_21  and  C_22
REMARK   12  A    between atoms: C_21  and  C_23
REMARK                            x       y       z     vdW  Elec       q    Type
REMARK                         _______ _______ _______ _____ _____    ______ ____
ROOT
ATOM      1  N   UNL     1       0.025   1.063   2.760  0.00  0.00    -0.194 NA
ATOM      2  H   UNL     1      -0.369   0.411   3.360  0.00  0.00    +0.148 HD
ENDROOT
BRANCH   1   3
ATOM      3  S   UNL     1      -0.862   1.671   1.500  0.00  0.00    +0.030 S 
ATOM      4  O   UNL     1      -0.735   3.082   1.615  0.00  0.00    -0.158 OA
ATOM      5  O   UNL     1      -2.133   1.046   1.617  0.00  0.00    -0.158 OA
BRANCH   3   6
ATOM      6  C   UNL     1      -0.013   1.086   0.008  0.00  0.00    +0.200 C 
BRANCH   6   7
ATOM      7  C   UNL     1      -0.753   1.593  -1.232  0.00  0.00    +0.055 C 
ATOM      8  C   UNL     1      -0.820   3.142  -1.397  0.00  0.00    +0.017 C 
ATOM      9  C   UNL     1      -1.135   3.338  -2.918  0.00  0.00    +0.005 C 
ATOM     10  C   UNL     1      -1.240   1.890  -3.489  0.00  0.00    +0.003 C 
ATOM     11  C   UNL     1      -0.160   1.156  -2.617  0.00  0.00    -0.018 C 
ATOM     12  C   UNL     1       1.251   1.706  -2.838  0.00  0.00    +0.012 C 
ATOM     13  C   UNL     1      -0.217  -0.360  -2.816  0.00  0.00    +0.012 C 
ATOM     14  C   UNL     1      -2.544   1.319  -2.851  0.00  0.00    +0.079 C 
ATOM     15  C   UNL     1      -2.208   1.125  -1.380  0.00  0.00    +0.142 C 
ATOM     16  O   UNL     1      -2.931   0.697  -0.513  0.00  0.00    -0.297 OA
ENDBRANCH   6   7
ENDBRANCH   3   6
ENDBRANCH   1   3
BRANCH   1  17
ATOM     17  C   UNL     1       1.404   1.511   2.968  0.00  0.00    +0.106 C 
BRANCH  17  18
ATOM     18  C   UNL     1       1.866   1.107   4.370  0.00  0.00    +0.020 C 
BRANCH  18  22
ATOM     19  C   UNL     1       5.223   3.247   6.385  0.00  0.00    -0.010 C 
ATOM     20  C   UNL     1       5.165   1.720   6.269  0.00  0.00    -0.073 C 
ATOM     21  C   UNL     1       3.722   1.280   6.029  0.00  0.00    -0.010 C 
ATOM     22  C   UNL     1       3.309   1.575   4.588  0.00  0.00    -0.012 C 
ATOM     23  C   UNL     1       4.236   0.804   3.649  0.00  0.00    -0.010 C 
ATOM     24  C   UNL     1       5.686   1.235   3.860  0.00  0.00    -0.073 C 
ATOM     25  C   UNL     1       5.910   2.610   3.220  0.00  0.00    -0.010 C 
ATOM     26  C   UNL     1       6.584   0.228   3.108  0.00  0.00    -0.010 C 
ATOM     27  C   UNL     1       5.607   1.141   7.631  0.00  0.00    -0.010 C 
ATOM     28  N   UNL     1       6.147   1.211   5.274  0.00  0.00    +0.386 N 
ATOM     29  H   UNL     1       6.373   0.239   5.519  0.00  0.00    -0.084 HD
ATOM     30  H   UNL     1       6.995   1.786   5.342  0.00  0.00    -0.084 HD
ENDBRANCH  18  22
ENDBRANCH  17  18
ENDBRANCH   1  17
TORSDOF 6
