REMARK  Name = ZINC50361916
REMARK  7 active torsions:
REMARK  status: ('A' for Active; 'I' for Inactive)
REMARK    1  A    between atoms: C_1  and  N_2
REMARK    2  A    between atoms: N_2  and  C_3
REMARK    3  A    between atoms: N_2  and  C_4
REMARK    4  A    between atoms: N_7  and  C_10
REMARK    5  A    between atoms: C_10  and  C_12
REMARK    6  A    between atoms: C_10  and  C_14
REMARK    7  A    between atoms: C_12  and  N_13
REMARK                            x       y       z     vdW  Elec       q    Type
REMARK                         _______ _______ _______ _____ _____    ______ ____
ROOT
ATOM      1  C   UNL     1      -4.793  -2.654  -1.409  0.00  0.00    +0.105 C 
ENDROOT
BRANCH   1   2
ATOM      2  C   UNL     1      -5.592  -2.426  -0.151  0.00  0.00    +0.123 A 
ATOM      3  C   UNL     1      -6.917  -2.203  -0.090  0.00  0.00    +0.062 A 
ATOM      4  C   UNL     1      -7.244  -2.046   1.277  0.00  0.00    +0.070 A 
ATOM      5  C   UNL     1      -6.097  -2.183   1.970  0.00  0.00    +0.184 A 
ATOM      6  O   UNL     1      -5.101  -2.419   1.100  0.00  0.00    -0.450 OA
ATOM      7 BR   UNL     1      -5.921  -2.071   3.850  0.00  0.00    -0.007 Br
ATOM      8 BR   UNL     1      -8.961  -1.707   1.994  0.00  0.00    -0.046 Br
ENDBRANCH   1   2
BRANCH   1  12
ATOM      9  C   UNL     1      -1.739   0.135  -0.323  0.00  0.00    -0.067 C 
ATOM     10  C   UNL     1      -2.694   0.472  -1.471  0.00  0.00    +0.000 C 
ATOM     11  C   UNL     1      -3.958  -0.383  -1.345  0.00  0.00    +0.083 C 
ATOM     12  N   UNL     1      -3.595  -1.805  -1.388  0.00  0.00    -0.294 NA
ATOM     13  C   UNL     1      -2.716  -2.163  -0.267  0.00  0.00    +0.083 C 
ATOM     14  C   UNL     1      -1.415  -1.362  -0.361  0.00  0.00    +0.000 C 
BRANCH   9  16
ATOM     15  C   UNL     1      -0.812   2.344  -0.434  0.00  0.00    -0.096 C 
ATOM     16  N   UNL     1      -0.500   0.909  -0.471  0.00  0.00    +0.378 N 
ATOM     17  C   UNL     1       0.419   0.579   0.626  0.00  0.00    -0.096 C 
ATOM     18  H   UNL     1      -0.065   0.682  -1.353  0.00  0.00    -0.082 HD
ENDBRANCH   9  16
ENDBRANCH   1  12
BRANCH   1  19
ATOM     19  C   UNL     1      -4.376  -4.123  -1.489  0.00  0.00    -0.059 C 
BRANCH  19  20
ATOM     20  N   UNL     1      -3.499  -4.320  -2.651  0.00  0.00    +0.379 N 
ATOM     21  H   UNL     1      -3.993  -4.064  -3.493  0.00  0.00    -0.090 HD
ATOM     22  H   UNL     1      -2.678  -3.742  -2.554  0.00  0.00    -0.090 HD
ATOM     23  H   UNL     1      -3.224  -5.290  -2.704  0.00  0.00    -0.090 HD
ENDBRANCH  19  20
ENDBRANCH   1  19
TORSDOF 5
