REMARK  Name = ZINC64143611
REMARK  7 active torsions:
REMARK  status: ('A' for Active; 'I' for Inactive)
REMARK    1  A    between atoms: C_1  and  C_2
REMARK    2  A    between atoms: C_6  and  C_8
REMARK    3  A    between atoms: N_22  and  C_23
REMARK    4  A    between atoms: C_23  and  C_24
REMARK    5  A    between atoms: C_25  and  C_26
REMARK    6  A    between atoms: C_29  and  O_32
REMARK    7  A    between atoms: O_32  and  C_33
REMARK                            x       y       z     vdW  Elec       q    Type
REMARK                         _______ _______ _______ _____ _____    ______ ____
ROOT
ATOM      1  C   UNL     1       0.044  -2.687   2.541  0.00  0.00    +0.132 C 
ATOM      2  C   UNL     1       1.299  -2.288   3.320  0.00  0.00    +0.129 C 
ATOM      3  C   UNL     1       2.483  -2.832   2.528  0.00  0.00    -0.035 C 
ATOM      4  C   UNL     1       3.293  -1.805   2.313  0.00  0.00    -0.001 A 
ATOM      5  C   UNL     1       4.622  -1.717   1.685  0.00  0.00    +0.010 A 
ATOM      6  C   UNL     1       5.172  -0.476   1.616  0.00  0.00    +0.001 A 
ATOM      7  C   UNL     1       4.541   0.673   2.102  0.00  0.00    +0.002 A 
ATOM      8  C   UNL     1       3.322   0.685   2.699  0.00  0.00    +0.026 A 
ATOM      9  C   UNL     1       2.646  -0.562   2.835  0.00  0.00    +0.043 A 
ATOM     10  N   UNL     1       1.482  -0.840   3.390  0.00  0.00    -0.376 N 
ATOM     11  C   UNL     1       2.532  -4.267   2.062  0.00  0.00    +0.049 C 
ATOM     12  C   UNL     1       1.165  -4.554   1.413  0.00  0.00    +0.090 C 
ATOM     13  N   UNL     1       0.082  -4.140   2.311  0.00  0.00    -0.288 NA
ATOM     14  H   UNL     1       0.854  -0.206   3.772  0.00  0.00    +0.160 HD
ENDROOT
BRANCH   1  20
ATOM     15  C   UNL     1       2.345  -1.428  -1.575  0.00  0.00    +0.065 C 
ATOM     16  C   UNL     1       1.103  -1.370  -0.724  0.00  0.00    +0.039 A 
ATOM     17  C   UNL     1      -0.001  -0.669  -1.174  0.00  0.00    +0.023 A 
ATOM     18  C   UNL     1      -1.139  -0.622  -0.383  0.00  0.00    +0.004 A 
ATOM     19  C   UNL     1      -1.124  -1.284   0.835  0.00  0.00    +0.025 A 
ATOM     20  C   UNL     1       0.017  -1.964   1.218  0.00  0.00    +0.061 A 
ATOM     21  N   UNL     1       1.079  -1.992   0.438  0.00  0.00    -0.255 NA
ENDBRANCH   1  20
BRANCH  13  22
ATOM     22  C   UNL     1      -1.217  -4.632   1.833  0.00  0.00    +0.112 C 
BRANCH  22  23
ATOM     23  C   UNL     1      -1.271  -6.131   1.980  0.00  0.00    -0.011 C 
ATOM     24  C   UNL     1      -2.260  -6.694   2.661  0.00  0.00    +0.005 C 
BRANCH  24  25
ATOM     25  C   UNL     1      -2.313  -8.164   2.805  0.00  0.00    -0.025 A 
ATOM     26  C   UNL     1      -1.321  -8.960   2.232  0.00  0.00    +0.011 A 
ATOM     27  C   UNL     1      -1.374 -10.331   2.369  0.00  0.00    +0.046 A 
ATOM     28  C   UNL     1      -2.413 -10.919   3.077  0.00  0.00    +0.120 A 
ATOM     29  C   UNL     1      -3.403 -10.131   3.649  0.00  0.00    +0.046 A 
ATOM     30  C   UNL     1      -3.353  -8.759   3.521  0.00  0.00    +0.011 A 
BRANCH  28  31
ATOM     31  O   UNL     1      -2.462 -12.271   3.210  0.00  0.00    -0.495 OA
ATOM     32  C   UNL     1      -3.559 -12.810   3.951  0.00  0.00    +0.277 C 
ENDBRANCH  28  31
ENDBRANCH  24  25
ENDBRANCH  22  23
ENDBRANCH  13  22
TORSDOF 5
