REMARK  Name = ZINC14180516
REMARK  15 active torsions:
REMARK  status: ('A' for Active; 'I' for Inactive)
REMARK    1  A    between atoms: C_1  and  C_2
REMARK    2  A    between atoms: C_2  and  O_3
REMARK    3  A    between atoms: O_3  and  C_4
REMARK    4  A    between atoms: C_4  and  C_6
REMARK    5  A    between atoms: C_10  and  N_11
REMARK    6  A    between atoms: C_12  and  C_14
REMARK    7  A    between atoms: C_14  and  O_15
REMARK    8  A    between atoms: O_15  and  C_16
REMARK    9  A    between atoms: C_16  and  C_18
REMARK   10  A    between atoms: C_21  and  C_27
REMARK   11  A    between atoms: C_22  and  N_24
REMARK   12  A    between atoms: C_28  and  C_33
REMARK   13  A    between atoms: C_28  and  C_34
REMARK   14  A    between atoms: C_29  and  C_31
REMARK   15  A    between atoms: C_29  and  C_32
REMARK                            x       y       z     vdW  Elec       q    Type
REMARK                         _______ _______ _______ _____ _____    ______ ____
ROOT
ATOM      1  C   UNL     1       1.332   2.068  -0.651  0.00  0.00    +0.091 A 
ATOM      2  C   UNL     1       0.049   1.457  -0.940  0.00  0.00    -0.024 A 
ATOM      3  C   UNL     1       0.076   0.122  -1.160  0.00  0.00    -0.016 A 
ATOM      4  S   UNL     1       1.783  -0.323  -0.999  0.00  0.00    -0.079 S 
ATOM      5  C   UNL     1       2.449   1.235  -0.641  0.00  0.00    +0.086 A 
ATOM      6  C   UNL     1      -1.094  -0.755  -1.461  0.00  0.00    -0.041 C 
ATOM      7  C   UNL     1      -2.181   1.424  -2.001  0.00  0.00    -0.069 C 
ATOM      8  C   UNL     1      -1.280   2.191  -1.031  0.00  0.00    +0.024 C 
ATOM      9  C   UNL     1      -1.636   1.580  -3.424  0.00  0.00    -0.010 C 
ATOM     10  C   UNL     1      -3.579   2.070  -1.958  0.00  0.00    -0.010 C 
ATOM     11  C   UNL     1      -0.796  -1.590  -2.712  0.00  0.00    -0.005 C 
ATOM     12  C   UNL     1      -1.286  -1.721  -0.279  0.00  0.00    -0.005 C 
ATOM     13  N   UNL     1      -2.368  -0.002  -1.631  0.00  0.00    +0.389 N 
ATOM     14  H   UNL     1      -2.887  -0.041  -0.746  0.00  0.00    -0.084 HD
ATOM     15  H   UNL     1      -2.917  -0.458  -2.370  0.00  0.00    -0.084 HD
ENDROOT
BRANCH   5  16
ATOM     16  N   UNL     1       3.771   1.576  -0.400  0.00  0.00    -0.277 N 
ATOM     17  C   UNL     1       4.728   0.627  -0.431  0.00  0.00    +0.255 C 
ATOM     18  O   UNL     1       4.432  -0.524  -0.669  0.00  0.00    -0.272 OA
ATOM     19  H   UNL     1       4.008   2.498  -0.210  0.00  0.00    +0.155 HD
BRANCH  17  20
ATOM     20  C   UNL     1       6.165   0.998  -0.169  0.00  0.00    +0.328 C 
BRANCH  20  21
ATOM     21  O   UNL     1       6.995  -0.190  -0.259  0.00  0.00    -0.452 OA
BRANCH  21  22
ATOM     22  C   UNL     1       8.316  -0.031  -0.049  0.00  0.00    +0.340 C 
ATOM     23  O   UNL     1       8.763   1.071   0.201  0.00  0.00    -0.245 OA
BRANCH  22  24
ATOM     24  C   UNL     1       9.222  -1.195  -0.124  0.00  0.00    +0.061 A 
ATOM     25  C   UNL     1       8.711  -2.464  -0.406  0.00  0.00    +0.015 A 
ATOM     26  C   UNL     1       9.563  -3.546  -0.480  0.00  0.00    +0.006 A 
ATOM     27  C   UNL     1      10.920  -3.378  -0.264  0.00  0.00    -0.020 A 
ATOM     28  C   UNL     1      11.432  -2.125   0.022  0.00  0.00    +0.130 A 
ATOM     29  C   UNL     1      10.592  -1.033   0.093  0.00  0.00    +0.048 A 
ATOM     30  C   UNL     1      11.844  -4.566  -0.341  0.00  0.00    +0.046 C 
BRANCH  28  31
ATOM     31  N   UNL     1      12.884  -1.956   0.251  0.00  0.00    +0.057 N 
ATOM     32  O   UNL     1      13.353  -0.840   0.386  0.00  0.00    -0.126 OA
ATOM     33  O   UNL     1      13.611  -2.932   0.305  0.00  0.00    -0.126 OA
ENDBRANCH  28  31
ENDBRANCH  22  24
ENDBRANCH  21  22
ENDBRANCH  20  21
ENDBRANCH  17  20
ENDBRANCH   5  16
BRANCH   1  34
ATOM     34  C   UNL     1       1.458   3.499  -0.366  0.00  0.00    +0.342 C 
ATOM     35  O   UNL     1       1.369   3.902   0.779  0.00  0.00    -0.245 OA
BRANCH  34  36
ATOM     36  O   UNL     1       1.671   4.371  -1.373  0.00  0.00    -0.461 OA
BRANCH  36  38
ATOM     37  C   UNL     1       2.024   6.603  -2.280  0.00  0.00    +0.048 C 
ATOM     38  C   UNL     1       1.786   5.774  -1.017  0.00  0.00    +0.229 C 
ENDBRANCH  36  38
ENDBRANCH  34  36
ENDBRANCH   1  34
TORSDOF 9
