REMARK  Name = ZINC20206777
REMARK  8 active torsions:
REMARK  status: ('A' for Active; 'I' for Inactive)
REMARK    1  A    between atoms: C_1  and  C_2
REMARK    2  A    between atoms: C_2  and  S_3
REMARK    3  A    between atoms: S_3  and  C_6
REMARK    4  A    between atoms: C_14  and  C_15
REMARK    5  A    between atoms: C_17  and  C_28
REMARK    6  A    between atoms: N_18  and  C_21
REMARK    7  A    between atoms: C_19  and  C_20
REMARK    8  A    between atoms: C_26  and  C_27
REMARK                            x       y       z     vdW  Elec       q    Type
REMARK                         _______ _______ _______ _____ _____    ______ ____
ROOT
ATOM      1  C   UNL     1      -2.979  -3.066  -0.720  0.00  0.00    +0.257 C 
ATOM      2  N   UNL     1      -3.736  -3.913  -0.095  0.00  0.00    -0.174 NA
ATOM      3  S   UNL     1      -4.197  -5.006  -1.279  0.00  0.00    +0.049 S 
ATOM      4  C   UNL     1      -3.353  -4.378  -2.571  0.00  0.00    +0.183 C 
ATOM      5  N   UNL     1      -3.246  -4.812  -3.807  0.00  0.00    -0.152 NA
ATOM      6  C   UNL     1      -2.443  -4.163  -4.670  0.00  0.00    +0.273 C 
ATOM      7  O   UNL     1      -2.425  -4.462  -5.854  0.00  0.00    -0.268 OA
ATOM      8  C   UNL     1      -1.581  -3.075  -4.150  0.00  0.00    +0.079 C 
ATOM      9  C   UNL     1      -0.406  -2.714  -4.776  0.00  0.00    +0.026 C 
ATOM     10  C   UNL     1      -2.055  -2.393  -2.912  0.00  0.00    +0.138 C 
ATOM     11  N   UNL     1      -1.833  -1.131  -2.657  0.00  0.00    -0.284 NA
ATOM     12  N   UNL     1      -2.771  -3.243  -2.046  0.00  0.00    -0.201 N 
ATOM     13  H   UNL     1      -1.336  -0.589  -3.289  0.00  0.00    +0.188 HD
ENDROOT
BRANCH   9  14
ATOM     14  C   UNL     1       0.111  -3.520  -5.880  0.00  0.00    -0.003 A 
ATOM     15  C   UNL     1       0.033  -4.980  -6.023  0.00  0.00    +0.031 A 
ATOM     16  C   UNL     1       0.635  -5.282  -7.185  0.00  0.00    +0.022 A 
ATOM     17  N   UNL     1       1.081  -4.130  -7.773  0.00  0.00    -0.317 N 
ATOM     18  C   UNL     1       0.771  -3.063  -7.009  0.00  0.00    +0.028 A 
ATOM     19  C   UNL     1       1.091  -1.625  -7.326  0.00  0.00    +0.064 C 
ATOM     20  C   UNL     1       0.796  -6.669  -7.750  0.00  0.00    +0.064 C 
BRANCH  17  21
ATOM     21  C   UNL     1       1.758  -4.067  -8.998  0.00  0.00    +0.049 A 
ATOM     22  C   UNL     1       1.045  -3.917 -10.180  0.00  0.00    +0.026 A 
ATOM     23  C   UNL     1       1.715  -3.855 -11.386  0.00  0.00    +0.002 A 
ATOM     24  C   UNL     1       3.095  -3.943 -11.417  0.00  0.00    +0.000 A 
ATOM     25  C   UNL     1       3.807  -4.093 -10.242  0.00  0.00    +0.005 A 
ATOM     26  C   UNL     1       3.143  -4.149  -9.032  0.00  0.00    -0.027 A 
ATOM     27  C   UNL     1       3.921  -4.306  -7.751  0.00  0.00    +0.046 C 
ENDBRANCH  17  21
ENDBRANCH   9  14
BRANCH   1  28
ATOM     28  S   UNL     1      -2.243  -1.713   0.135  0.00  0.00    +0.029 S 
ATOM     29  O   UNL     1      -0.995  -1.510  -0.513  0.00  0.00    -0.167 OA
ATOM     30  O   UNL     1      -2.296  -2.079   1.507  0.00  0.00    -0.167 OA
BRANCH  28  32
ATOM     31  C   UNL     1      -2.800   0.937   0.523  0.00  0.00    +0.028 C 
ATOM     32  C   UNL     1      -3.346  -0.307  -0.180  0.00  0.00    +0.172 C 
ENDBRANCH  28  32
ENDBRANCH   1  28
TORSDOF 4
