REMARK  Name = ZINC63730132
REMARK  10 active torsions:
REMARK  status: ('A' for Active; 'I' for Inactive)
REMARK    1  A    between atoms: C_1  and  C_2
REMARK    2  A    between atoms: C_2  and  C_3
REMARK    3  A    between atoms: C_3  and  C_4
REMARK    4  A    between atoms: C_4  and  C_5
REMARK    5  A    between atoms: C_5  and  S_6
REMARK    6  A    between atoms: S_6  and  C_7
REMARK    7  A    between atoms: C_10  and  C_19
REMARK    8  A    between atoms: N_12  and  C_13
REMARK    9  A    between atoms: C_22  and  C_30
REMARK   10  A    between atoms: C_23  and  C_29
REMARK                            x       y       z     vdW  Elec       q    Type
REMARK                         _______ _______ _______ _____ _____    ______ ____
ROOT
ATOM      1  C   UNL     1      -4.548  -4.868  -0.203  0.00  0.00    +0.180 C 
ATOM      2  N   UNL     1      -5.514  -4.016  -0.129  0.00  0.00    -0.162 NA
ATOM      3  N   UNL     1      -6.731  -4.645   0.159  0.00  0.00    -0.242 N 
ATOM      4  C   UNL     1      -6.434  -6.084   0.270  0.00  0.00    +0.213 C 
ATOM      5  N   UNL     1      -4.986  -6.166   0.017  0.00  0.00    -0.254 N 
ATOM      6  H   UNL     1      -7.596  -4.219   0.264  0.00  0.00    +0.170 HD
ENDROOT
BRANCH   4   7
ATOM      7  C   UNL     1      -6.766  -6.587   1.651  0.00  0.00    -0.008 C 
ATOM      8  C   UNL     1      -7.667  -7.604   1.809  0.00  0.00    +0.013 C 
ATOM      9  C   UNL     1      -7.946  -7.954   3.142  0.00  0.00    -0.014 C 
ATOM     10  C   UNL     1      -8.290  -9.110   3.732  0.00  0.00    -0.024 C 
ATOM     11  C   UNL     1      -8.160  -8.977   5.133  0.00  0.00    +0.037 C 
ATOM     12  N   UNL     1      -7.869  -7.757   5.485  0.00  0.00    -0.276 NA
ATOM     13  C   UNL     1      -7.842  -6.947   4.277  0.00  0.00    +0.159 C 
ATOM     14  C   UNL     1      -6.586  -6.156   4.065  0.00  0.00    +0.004 C 
ATOM     15  C   UNL     1      -6.122  -5.993   2.819  0.00  0.00    +0.005 C 
ATOM     16  C   UNL     1      -8.339 -10.114   6.106  0.00  0.00    +0.065 C 
ATOM     17  C   UNL     1      -8.744 -10.354   3.013  0.00  0.00    +0.046 C 
ENDBRANCH   4   7
BRANCH   5  18
ATOM     18  C   UNL     1      -4.204  -7.325   0.003  0.00  0.00    +0.038 A 
ATOM     19  C   UNL     1      -4.392  -8.279  -0.989  0.00  0.00    +0.023 A 
ATOM     20  C   UNL     1      -3.618  -9.423  -0.999  0.00  0.00    +0.002 A 
ATOM     21  C   UNL     1      -2.657  -9.618  -0.025  0.00  0.00    +0.000 A 
ATOM     22  C   UNL     1      -2.467  -8.670   0.964  0.00  0.00    +0.002 A 
ATOM     23  C   UNL     1      -3.234  -7.522   0.978  0.00  0.00    +0.023 A 
ENDBRANCH   5  18
BRANCH   1  24
ATOM     24  S   UNL     1      -2.875  -4.435  -0.550  0.00  0.00    -0.089 S 
BRANCH  24  25
ATOM     25  C   UNL     1      -2.918  -2.632  -0.739  0.00  0.00    +0.077 C 
BRANCH  25  26
ATOM     26  C   UNL     1      -1.511  -2.117  -1.048  0.00  0.00    +0.011 C 
BRANCH  26  27
ATOM     27  C   UNL     1      -1.547  -0.596  -1.207  0.00  0.00    +0.001 C 
BRANCH  27  29
ATOM     28  C   UNL     1      -0.176   1.439  -1.675  0.00  0.00    +0.004 C 
ATOM     29  C   UNL     1      -0.140  -0.082  -1.515  0.00  0.00    -0.003 C 
ENDBRANCH  27  29
ENDBRANCH  26  27
ENDBRANCH  25  26
ENDBRANCH  24  25
ENDBRANCH   1  24
TORSDOF 7
