REMARK  Name = ZINC44324822
REMARK  9 active torsions:
REMARK  status: ('A' for Active; 'I' for Inactive)
REMARK    1  A    between atoms: C_4  and  C_7
REMARK    2  A    between atoms: C_7  and  N_8
REMARK    3  A    between atoms: C_16  and  C_17
REMARK    4  A    between atoms: C_17  and  CA_18
REMARK    5  A    between atoms: CA_18  and  C_20
REMARK    6  A    between atoms: CA_18  and  N_23
REMARK    7  A    between atoms: C_24  and  O_26
REMARK    8  A    between atoms: O_26  and  C_27
REMARK    9  A    between atoms: C_27  and  C_28
REMARK                            x       y       z     vdW  Elec       q    Type
REMARK                         _______ _______ _______ _____ _____    ______ ____
ROOT
ATOM      1  CA  UNL     1       3.913  -4.264   0.993  0.00  0.00    +0.196 C 
ENDROOT
BRANCH   1   2
ATOM      2  N   UNL     1       4.827  -4.814   1.997  0.00  0.00    -0.267 N 
ATOM      3  C   UNL     1       6.002  -5.352   1.615  0.00  0.00    +0.401 C 
ATOM      4  O   UNL     1       6.303  -5.381   0.439  0.00  0.00    -0.226 OA
ATOM      5  H   UNL     1       4.586  -4.791   2.937  0.00  0.00    +0.153 HD
BRANCH   3   6
ATOM      6  O   UNL     1       6.842  -5.858   2.538  0.00  0.00    -0.449 OA
BRANCH   6   7
ATOM      7  C   UNL     1       8.070  -6.413   2.062  0.00  0.00    +0.246 C 
BRANCH   7   8
ATOM      8  C   UNL     1       8.887  -6.933   3.247  0.00  0.00    +0.088 C 
ATOM      9  C   UNL     1       9.366  -5.780   4.095  0.00  0.00    -0.029 A 
ATOM     10  C   UNL     1       8.690  -4.805   4.798  0.00  0.00    +0.005 A 
ATOM     11  C   UNL     1       9.394  -3.848   5.506  0.00  0.00    +0.000 A 
ATOM     12  C   UNL     1      10.777  -3.867   5.511  0.00  0.00    +0.001 A 
ATOM     13  C   UNL     1      11.462  -4.838   4.810  0.00  0.00    +0.009 A 
ATOM     14  C   UNL     1      10.757  -5.807   4.093  0.00  0.00    -0.014 A 
ATOM     15  C   UNL     1      11.228  -6.947   3.268  0.00  0.00    -0.014 A 
ATOM     16  C   UNL     1      10.131  -7.632   2.753  0.00  0.00    -0.029 A 
ATOM     17  C   UNL     1      10.314  -8.736   1.949  0.00  0.00    +0.005 A 
ATOM     18  C   UNL     1      11.594  -9.170   1.649  0.00  0.00    +0.000 A 
ATOM     19  C   UNL     1      12.691  -8.496   2.156  0.00  0.00    +0.001 A 
ATOM     20  C   UNL     1      12.516  -7.390   2.961  0.00  0.00    +0.009 A 
ENDBRANCH   7   8
ENDBRANCH   6   7
ENDBRANCH   3   6
ENDBRANCH   1   2
BRANCH   1  21
ATOM     21  C   UNL     1       3.058  -5.371   0.432  0.00  0.00    +0.376 C 
ATOM     22  O   UNL     1       2.651  -5.305  -0.716  0.00  0.00    -0.244 OA
ATOM     23  OXT UNL     1       2.774  -6.333   1.125  0.00  0.00    -0.244 OA
ENDBRANCH   1  21
BRANCH   1  24
ATOM     24  C   UNL     1       3.017  -3.208   1.643  0.00  0.00    +0.108 C 
BRANCH  24  33
ATOM     25  N   UNL     1       4.152  -0.952   1.338  0.00  0.00    -0.323 N 
ATOM     26  C   UNL     1       4.936  -0.116   2.107  0.00  0.00    +0.069 A 
ATOM     27  C   UNL     1       5.529   1.121   1.893  0.00  0.00    +0.028 A 
ATOM     28  C   UNL     1       6.272   1.704   2.897  0.00  0.00    +0.002 A 
ATOM     29  C   UNL     1       6.430   1.064   4.118  0.00  0.00    +0.002 A 
ATOM     30  C   UNL     1       5.854  -0.154   4.346  0.00  0.00    +0.030 A 
ATOM     31  C   UNL     1       5.096  -0.764   3.344  0.00  0.00    +0.089 A 
ATOM     32  N   UNL     1       4.416  -1.937   3.267  0.00  0.00    -0.232 NA
ATOM     33  C   UNL     1       3.859  -2.044   2.096  0.00  0.00    +0.113 A 
BRANCH  25  34
ATOM     34  C   UNL     1       3.711  -0.707  -0.038  0.00  0.00    +0.158 C 
BRANCH  34  38
ATOM     35  C   UNL     1      -0.017   1.378   0.010  0.00  0.00    +0.000 A 
ATOM     36  C   UNL     1       1.171   2.086   0.002  0.00  0.00    +0.000 A 
ATOM     37  C   UNL     1       2.377   1.411  -0.013  0.00  0.00    +0.005 A 
ATOM     38  C   UNL     1       2.396   0.029  -0.020  0.00  0.00    -0.028 A 
ATOM     39  C   UNL     1       1.208  -0.679  -0.012  0.00  0.00    +0.005 A 
ATOM     40  C   UNL     1       0.002  -0.004   0.002  0.00  0.00    +0.000 A 
ENDBRANCH  34  38
ENDBRANCH  25  34
ENDBRANCH  24  33
ENDBRANCH   1  24
TORSDOF 9
