REMARK  Name = ZINC38742685
REMARK  10 active torsions:
REMARK  status: ('A' for Active; 'I' for Inactive)
REMARK    1  A    between atoms: C_1  and  C_2
REMARK    2  A    between atoms: C_2  and  C_3
REMARK    3  A    between atoms: C_2  and  C_4
REMARK    4  A    between atoms: C_6  and  C_10
REMARK    5  A    between atoms: C_18  and  C_20
REMARK    6  A    between atoms: C_20  and  O_21
REMARK    7  A    between atoms: O_21  and  C_22
REMARK    8  A    between atoms: C_25  and  O_28
REMARK    9  A    between atoms: O_28  and  C_29
REMARK   10  A    between atoms: C_29  and  C_30
REMARK                            x       y       z     vdW  Elec       q    Type
REMARK                         _______ _______ _______ _____ _____    ______ ____
ROOT
ATOM      1  C   UNL     1      -4.371  -0.991  -1.469  0.00  0.00    +0.206 C 
ATOM      2  N   UNL     1      -4.217   0.479  -1.596  0.00  0.00    -0.231 NA
ATOM      3  N   UNL     1      -5.459   1.077  -1.077  0.00  0.00    -0.224 NA
ATOM      4  C   UNL     1      -5.969   0.035  -0.163  0.00  0.00    +0.240 C 
ATOM      5  N   UNL     1      -5.753  -1.204  -0.982  0.00  0.00    -0.206 N 
ATOM      6  N   UNL     1      -6.865  -2.013  -1.070  0.00  0.00    -0.175 NA
ATOM      7  C   UNL     1      -8.050  -1.628  -0.730  0.00  0.00    +0.132 C 
ATOM      8  S   UNL     1      -7.798   0.052  -0.073  0.00  0.00    -0.064 S 
ATOM      9  H   UNL     1      -3.414   0.804  -1.078  0.00  0.00    +0.143 HD
ATOM     10  H   UNL     1      -6.114   1.256  -1.823  0.00  0.00    +0.144 HD
ENDROOT
BRANCH   1  13
ATOM     11  C   UNL     1      -1.412  -0.526   0.013  0.00  0.00    +0.064 C 
ATOM     12  C   UNL     1      -1.940  -1.303  -0.935  0.00  0.00    +0.030 C 
ATOM     13  C   UNL     1      -3.362  -1.543  -0.460  0.00  0.00    +0.190 C 
ATOM     14  N   UNL     1      -3.420  -0.792   0.805  0.00  0.00    -0.177 NA
ATOM     15  N   UNL     1      -2.315  -0.275   0.986  0.00  0.00    -0.158 NA
BRANCH  11  17
ATOM     16  C   UNL     1      -0.019   1.526   0.010  0.00  0.00    +0.014 C 
ATOM     17  C   UNL     1       0.002  -0.004   0.002  0.00  0.00    +0.033 C 
ATOM     18  C   UNL     1       0.742  -0.511   1.242  0.00  0.00    +0.014 C 
ENDBRANCH  11  17
ENDBRANCH   1  13
BRANCH   7  19
ATOM     19  C   UNL     1      -9.343  -2.395  -0.840  0.00  0.00    +0.293 C 
BRANCH  19  20
ATOM     20  O   UNL     1      -9.086  -3.684  -1.401  0.00  0.00    -0.485 OA
BRANCH  20  21
ATOM     21  C   UNL     1     -10.154  -4.508  -1.569  0.00  0.00    +0.121 A 
ATOM     22  C   UNL     1     -11.423  -4.081  -1.206  0.00  0.00    +0.049 A 
ATOM     23  C   UNL     1     -12.508  -4.919  -1.377  0.00  0.00    +0.049 A 
ATOM     24  C   UNL     1     -12.329  -6.186  -1.912  0.00  0.00    +0.121 A 
ATOM     25  C   UNL     1     -11.060  -6.612  -2.275  0.00  0.00    +0.049 A 
ATOM     26  C   UNL     1      -9.976  -5.773  -2.108  0.00  0.00    +0.049 A 
BRANCH  24  27
ATOM     27  O   UNL     1     -13.397  -7.011  -2.079  0.00  0.00    -0.487 OA
BRANCH  27  28
ATOM     28  C   UNL     1     -13.139  -8.302  -2.635  0.00  0.00    +0.264 C 
BRANCH  28  29
ATOM     29  C   UNL     1     -14.432  -9.068  -2.745  0.00  0.00    -0.010 A 
ATOM     30  C   UNL     1     -14.860  -9.856  -1.692  0.00  0.00    +0.007 A 
ATOM     31  C   UNL     1     -16.046 -10.559  -1.793  0.00  0.00    +0.000 A 
ATOM     32  C   UNL     1     -16.804 -10.475  -2.946  0.00  0.00    +0.000 A 
ATOM     33  C   UNL     1     -16.376  -9.687  -3.998  0.00  0.00    +0.000 A 
ATOM     34  C   UNL     1     -15.193  -8.980  -3.896  0.00  0.00    +0.007 A 
ENDBRANCH  28  29
ENDBRANCH  27  28
ENDBRANCH  24  27
ENDBRANCH  20  21
ENDBRANCH  19  20
ENDBRANCH   7  19
TORSDOF 8
