REMARK  Name = ZINC36818093
REMARK  6 active torsions:
REMARK  status: ('A' for Active; 'I' for Inactive)
REMARK    1  A    between atoms: C_1  and  C_2
REMARK    2  A    between atoms: C_2  and  C_4
REMARK    3  A    between atoms: C_2  and  S_16
REMARK    4  A    between atoms: N_6  and  C_7
REMARK    5  A    between atoms: C_10  and  N_13
REMARK    6  A    between atoms: S_16  and  C_17
REMARK                            x       y       z     vdW  Elec       q    Type
REMARK                         _______ _______ _______ _____ _____    ______ ____
ROOT
ATOM      1  C   UNL     1       0.497  -0.841  -1.227  0.00  0.00    +0.230 C 
ATOM      2  O   UNL     1      -0.272  -1.301  -2.045  0.00  0.00    -0.274 OA
ATOM      3  N   UNL     1       1.825  -0.886  -1.450  0.00  0.00    -0.285 N 
ATOM      4  H   UNL     1       2.442  -0.586  -0.765  0.00  0.00    +0.155 HD
ENDROOT
BRANCH   3   5
ATOM      5  C   UNL     1       2.314  -1.364  -2.671  0.00  0.00    +0.034 A 
ATOM      6  C   UNL     1       3.518  -2.054  -2.716  0.00  0.00    +0.025 A 
ATOM      7  C   UNL     1       3.997  -2.525  -3.923  0.00  0.00    +0.034 A 
ATOM      8  C   UNL     1       3.280  -2.311  -5.085  0.00  0.00    +0.126 A 
ATOM      9  C   UNL     1       2.080  -1.623  -5.043  0.00  0.00    +0.034 A 
ATOM     10  C   UNL     1       1.592  -1.155  -3.839  0.00  0.00    +0.025 A 
BRANCH   8  11
ATOM     11  N   UNL     1       3.796  -2.817  -6.376  0.00  0.00    +0.056 N 
ATOM     12  O   UNL     1       4.845  -3.418  -6.414  0.00  0.00    -0.126 OA
ATOM     13  O   UNL     1       3.170  -2.630  -7.393  0.00  0.00    -0.126 OA
ENDBRANCH   8  11
ENDBRANCH   3   5
BRANCH   1  15
ATOM     14  C   UNL     1      -0.164   1.294  -0.151  0.00  0.00    +0.029 C 
ATOM     15  C   UNL     1      -0.034  -0.219   0.039  0.00  0.00    +0.134 C 
BRANCH  15  16
ATOM     16  S   UNL     1      -1.662  -0.922   0.421  0.00  0.00    -0.113 S 
BRANCH  16  17
ATOM     17  C   UNL     1      -1.313  -2.593   0.858  0.00  0.00    +0.009 A 
ATOM     18  C   UNL     1       0.003  -3.023   0.971  0.00  0.00    +0.016 A 
ATOM     19  C   UNL     1       0.274  -4.333   1.314  0.00  0.00    +0.016 A 
ATOM     20  C   UNL     1      -0.765  -5.217   1.545  0.00  0.00    +0.018 A 
ATOM     21  C   UNL     1      -2.078  -4.792   1.434  0.00  0.00    +0.016 A 
ATOM     22  C   UNL     1      -2.354  -3.482   1.096  0.00  0.00    +0.016 A 
ATOM     23 BR   UNL     1      -0.391  -7.010   2.014  0.00  0.00    -0.050 Br
ENDBRANCH  16  17
ENDBRANCH  15  16
ENDBRANCH   1  15
TORSDOF 5
