REMARK  Name = ZINC37254394
REMARK  5 active torsions:
REMARK  status: ('A' for Active; 'I' for Inactive)
REMARK    1  A    between atoms: C_1  and  C_2
REMARK    2  A    between atoms: C_7  and  N_10
REMARK    3  A    between atoms: N_10  and  S_11
REMARK    4  A    between atoms: S_11  and  C_14
REMARK    5  A    between atoms: C_15  and  N_22
REMARK                            x       y       z     vdW  Elec       q    Type
REMARK                         _______ _______ _______ _____ _____    ______ ____
ROOT
ATOM      1  S   UNL     1       2.864  -4.795   2.355  0.00  0.00    +0.061 S 
ATOM      2  O   UNL     1       3.673  -5.263   3.425  0.00  0.00    -0.153 OA
ATOM      3  O   UNL     1       2.069  -5.668   1.564  0.00  0.00    -0.153 OA
ENDROOT
BRANCH   1   4
ATOM      4  C   UNL     1       3.938  -3.948   1.245  0.00  0.00    +0.140 A 
ATOM      5  C   UNL     1       3.635  -3.892  -0.110  0.00  0.00    +0.053 A 
ATOM      6  C   UNL     1       4.484  -3.223  -0.982  0.00  0.00    +0.040 A 
ATOM      7  C   UNL     1       5.628  -2.615  -0.500  0.00  0.00    +0.021 A 
ATOM      8  C   UNL     1       5.928  -2.673   0.849  0.00  0.00    +0.032 A 
ATOM      9  C   UNL     1       5.081  -3.334   1.721  0.00  0.00    +0.047 A 
ATOM     10 BR   UNL     1       5.491  -3.403   3.566  0.00  0.00    -0.048 Br
ATOM     11 BR   UNL     1       6.785  -1.703  -1.686  0.00  0.00    -0.050 Br
BRANCH   5  12
ATOM     12  N   UNL     1       2.479  -4.508  -0.594  0.00  0.00    -0.356 N 
ATOM     13  H   UNL     1       1.715  -4.633  -0.009  0.00  0.00    +0.142 HD
ATOM     14  H   UNL     1       2.439  -4.810  -1.515  0.00  0.00    +0.142 HD
ENDBRANCH   5  12
ENDBRANCH   1   4
BRANCH   1  15
ATOM     15  N   UNL     1       1.835  -3.668   2.996  0.00  0.00    -0.187 NA
ATOM     16  H   UNL     1       1.865  -3.467   3.945  0.00  0.00    +0.148 HD
BRANCH  15  22
ATOM     17  C   UNL     1      -0.473   0.632   2.202  0.00  0.00    +0.007 C 
ATOM     18  C   UNL     1      -0.297  -0.808   1.715  0.00  0.00    -0.013 C 
ATOM     19  C   UNL     1      -1.645  -1.530   1.761  0.00  0.00    +0.003 C 
ATOM     20  C   UNL     1      -1.469  -2.970   1.274  0.00  0.00    +0.002 C 
ATOM     21  C   UNL     1      -0.470  -3.696   2.178  0.00  0.00    +0.020 C 
ATOM     22  C   UNL     1       0.878  -2.973   2.131  0.00  0.00    +0.077 C 
ATOM     23  C   UNL     1       0.702  -1.533   2.618  0.00  0.00    +0.023 C 
ENDBRANCH  15  22
ENDBRANCH   1  15
TORSDOF 4
