REMARK  Name = ZINC00924082
REMARK  8 active torsions:
REMARK  status: ('A' for Active; 'I' for Inactive)
REMARK    1  A    between atoms: C_1  and  C_2
REMARK    2  A    between atoms: C_6  and  C_15
REMARK    3  A    between atoms: C_13  and  C_14
REMARK    4  A    between atoms: C_15  and  N_16
REMARK    5  A    between atoms: N_16  and  C_17
REMARK    6  A    between atoms: N_16  and  S_23
REMARK    7  A    between atoms: C_17  and  C_18
REMARK    8  A    between atoms: S_23  and  C_26
REMARK                            x       y       z     vdW  Elec       q    Type
REMARK                         _______ _______ _______ _____ _____    ______ ____
ROOT
ATOM      1  N   UNL     1       3.011   1.114  -1.401  0.00  0.00    -0.167 NA
ENDROOT
BRANCH   1   2
ATOM      2  S   UNL     1       2.894  -0.360  -2.147  0.00  0.00    +0.061 S 
ATOM      3  O   UNL     1       3.860  -0.366  -3.189  0.00  0.00    -0.153 OA
ATOM      4  O   UNL     1       2.880  -1.337  -1.115  0.00  0.00    -0.153 OA
BRANCH   2   5
ATOM      5  C   UNL     1       1.314  -0.426  -2.924  0.00  0.00    +0.106 A 
ATOM      6  C   UNL     1       0.225  -0.924  -2.233  0.00  0.00    +0.030 A 
ATOM      7  C   UNL     1      -1.016  -0.971  -2.840  0.00  0.00    +0.022 A 
ATOM      8  C   UNL     1      -1.166  -0.530  -4.143  0.00  0.00    +0.041 A 
ATOM      9  C   UNL     1      -0.074  -0.037  -4.836  0.00  0.00    +0.022 A 
ATOM     10  C   UNL     1       1.165   0.015  -4.226  0.00  0.00    +0.030 A 
ATOM     11 CL   UNL     1      -2.723  -0.595  -4.909  0.00  0.00    -0.084 Cl
ENDBRANCH   2   5
ENDBRANCH   1   2
BRANCH   1  12
ATOM     12  C   UNL     1       3.562   2.261  -2.128  0.00  0.00    +0.150 C 
BRANCH  12  18
ATOM     13  C   UNL     1      10.741   0.990  -3.699  0.00  0.00    +0.044 C 
ATOM     14  C   UNL     1       9.674   1.583  -2.815  0.00  0.00    -0.047 A 
ATOM     15  C   UNL     1       8.358   1.429  -3.147  0.00  0.00    +0.013 A 
ATOM     16  C   UNL     1       7.367   1.980  -2.327  0.00  0.00    -0.001 A 
ATOM     17  C   UNL     1       5.947   1.830  -2.650  0.00  0.00    +0.020 A 
ATOM     18  C   UNL     1       5.032   2.391  -1.822  0.00  0.00    +0.033 A 
ATOM     19  C   UNL     1       5.450   3.091  -0.670  0.00  0.00    +0.254 A 
ATOM     20  O   UNL     1       4.611   3.583   0.065  0.00  0.00    -0.268 OA
ATOM     21  N   UNL     1       6.752   3.229  -0.362  0.00  0.00    -0.322 N 
ATOM     22  H   UNL     1       7.005   3.716   0.438  0.00  0.00    +0.169 HD
ATOM     23  C   UNL     1       7.732   2.688  -1.166  0.00  0.00    +0.049 A 
ATOM     24  C   UNL     1       9.079   2.831  -0.849  0.00  0.00    +0.030 A 
ATOM     25  C   UNL     1      10.038   2.280  -1.671  0.00  0.00    -0.046 A 
ATOM     26  C   UNL     1      11.496   2.436  -1.325  0.00  0.00    +0.044 C 
ENDBRANCH  12  18
ENDBRANCH   1  12
BRANCH   1  27
ATOM     27  C   UNL     1       2.565   1.272  -0.015  0.00  0.00    +0.152 C 
BRANCH  27  28
ATOM     28  C   UNL     1       1.146   1.780   0.001  0.00  0.00    +0.005 A 
ATOM     29  C   UNL     1      -0.013   1.076   0.008  0.00  0.00    +0.012 A 
ATOM     30  C   UNL     1      -1.213   1.761   0.017  0.00  0.00    +0.008 A 
ATOM     31  C   UNL     1      -1.196   3.116   0.030  0.00  0.00    +0.045 A 
ATOM     32  S   UNL     1       0.555   3.464   0.015  0.00  0.00    -0.100 S 
ENDBRANCH  27  28
ENDBRANCH   1  27
TORSDOF 6
