REMARK  Name = ZINC46204813
REMARK  4 active torsions:
REMARK  status: ('A' for Active; 'I' for Inactive)
REMARK    1  A    between atoms: C_14  and  C_17
REMARK    2  A    between atoms: C_17  and  N_18
REMARK    3  A    between atoms: C_24  and  C_27
REMARK    4  A    between atoms: C_27  and  O_28
REMARK                            x       y       z     vdW  Elec       q    Type
REMARK                         _______ _______ _______ _____ _____    ______ ____
ROOT
ATOM      1  C   UNL     1      -0.077   1.296  -0.007  0.00  0.00    +0.000 A 
ATOM      2  C   UNL     1       1.105   2.013  -0.012  0.00  0.00    +0.000 A 
ATOM      3  C   UNL     1       2.311   1.343  -0.030  0.00  0.00    +0.005 A 
ATOM      4  C   UNL     1       2.346  -0.045  -0.040  0.00  0.00    -0.027 A 
ATOM      5  C   UNL     1       1.170  -0.760  -0.025  0.00  0.00    -0.041 A 
ATOM      6  C   UNL     1      -0.043  -0.083  -0.015  0.00  0.00    +0.004 A 
ATOM      7  C   UNL     1       1.130  -2.266  -0.004  0.00  0.00    +0.054 C 
ATOM      8  C   UNL     1       2.452  -2.853  -0.496  0.00  0.00    +0.111 C 
ATOM      9  N   UNL     1       3.545  -2.148   0.194  0.00  0.00    -0.312 N 
ATOM     10  C   UNL     1       3.698  -0.714  -0.074  0.00  0.00    +0.141 C 
ATOM     11  C   UNL     1       4.399  -2.816   1.064  0.00  0.00    +0.099 A 
ATOM     12  C   UNL     1       4.154  -4.147   1.384  0.00  0.00    +0.042 A 
ATOM     13  C   UNL     1       5.012  -4.799   2.252  0.00  0.00    +0.010 A 
ATOM     14  C   UNL     1       6.090  -4.095   2.772  0.00  0.00    -0.014 A 
ATOM     15  C   UNL     1       6.273  -2.775   2.411  0.00  0.00    +0.089 A 
ATOM     16  N   UNL     1       5.441  -2.180   1.577  0.00  0.00    -0.349 N 
ATOM     17  H   UNL     1       5.595  -1.253   1.337  0.00  0.00    +0.167 HD
ENDROOT
BRANCH  14  18
ATOM     18  C   UNL     1       7.050  -4.765   3.721  0.00  0.00    +0.142 C 
BRANCH  18  19
ATOM     19  N   UNL     1       8.139  -5.382   2.959  0.00  0.00    -0.295 N 
ATOM     20  C   UNL     1       9.121  -6.042   3.603  0.00  0.00    +0.302 C 
ATOM     21  O   UNL     1       9.055  -6.209   4.806  0.00  0.00    -0.253 OA
ATOM     22  N   UNL     1      10.177  -6.519   2.914  0.00  0.00    -0.286 N 
ATOM     23  C   UNL     1      10.334  -6.219   1.484  0.00  0.00    +0.109 C 
ATOM     24  C   UNL     1      10.509  -7.536   0.722  0.00  0.00    +0.025 C 
ATOM     25  C   UNL     1      11.672  -8.324   1.330  0.00  0.00    +0.017 C 
ATOM     26  C   UNL     1      11.358  -8.650   2.792  0.00  0.00    +0.025 C 
ATOM     27  C   UNL     1      11.196  -7.341   3.580  0.00  0.00    +0.109 C 
ATOM     28  H   UNL     1       8.152  -5.316   1.992  0.00  0.00    +0.151 HD
BRANCH  25  29
ATOM     29  C   UNL     1      11.871  -9.624   0.549  0.00  0.00    +0.159 C 
BRANCH  29  30
ATOM     30  O   UNL     1      13.028 -10.303   1.042  0.00  0.00    -0.395 OA
ATOM     31  H   UNL     1      13.216 -11.138   0.592  0.00  0.00    +0.209 HD
ENDBRANCH  29  30
ENDBRANCH  25  29
ENDBRANCH  18  19
ENDBRANCH  14  18
TORSDOF 4
