REMARK  Name = ZINC24955235
REMARK  11 active torsions:
REMARK  status: ('A' for Active; 'I' for Inactive)
REMARK    1  A    between atoms: C_1  and  C_2
REMARK    2  A    between atoms: C_2  and  O_3
REMARK    3  A    between atoms: O_3  and  C_4
REMARK    4  A    between atoms: C_7  and  O_10
REMARK    5  A    between atoms: O_10  and  C_11
REMARK    6  A    between atoms: C_11  and  C_13
REMARK    7  A    between atoms: C_11  and  C_14
REMARK    8  A    between atoms: N_16  and  N_17
REMARK    9  A    between atoms: C_18  and  C_20
REMARK   10  A    between atoms: C_20  and  C_21
REMARK   11  A    between atoms: C_21  and  C_22
REMARK                            x       y       z     vdW  Elec       q    Type
REMARK                         _______ _______ _______ _____ _____    ______ ____
ROOT
ATOM      1  N   UNL     1      -2.577   3.363  -9.627  0.00  0.00    -0.234 N 
ATOM      2  C   UNL     1      -1.563   2.813  -8.930  0.00  0.00    +0.229 C 
ATOM      3  O   UNL     1      -0.469   2.696  -9.440  0.00  0.00    -0.274 OA
ATOM      4  H   UNL     1      -3.569   3.469  -9.164  0.00  0.00    +0.173 HD
ENDROOT
BRANCH   1   7
ATOM      5  C   UNL     1      -3.380   4.350 -11.639  0.00  0.00    +0.270 C 
ATOM      6  O   UNL     1      -4.474   4.466 -11.128  0.00  0.00    -0.270 OA
ATOM      7  N   UNL     1      -2.367   3.800 -10.941  0.00  0.00    -0.231 N 
ATOM      8  H   UNL     1      -1.374   3.694 -11.404  0.00  0.00    +0.173 HD
BRANCH   5   9
ATOM      9  C   UNL     1      -3.155   4.820 -13.053  0.00  0.00    +0.257 C 
ATOM     10  C   UNL     1      -2.830   3.619 -13.944  0.00  0.00    +0.062 C 
BRANCH   9  11
ATOM     11  O   UNL     1      -4.335   5.465 -13.534  0.00  0.00    -0.480 OA
BRANCH  11  15
ATOM     12  C   UNL     1      -3.856   8.233 -16.559  0.00  0.00    +0.121 A 
ATOM     13  C   UNL     1      -2.770   7.489 -16.121  0.00  0.00    +0.049 A 
ATOM     14  C   UNL     1      -2.930   6.563 -15.109  0.00  0.00    +0.049 A 
ATOM     15  C   UNL     1      -4.177   6.377 -14.531  0.00  0.00    +0.122 A 
ATOM     16  C   UNL     1      -5.264   7.117 -14.972  0.00  0.00    +0.049 A 
ATOM     17  C   UNL     1      -5.102   8.046 -15.981  0.00  0.00    +0.049 A 
BRANCH  12  18
ATOM     18  O   UNL     1      -3.697   9.146 -17.555  0.00  0.00    -0.492 OA
BRANCH  18  20
ATOM     19  C   UNL     1      -4.487  10.847 -19.078  0.00  0.00    +0.048 C 
ATOM     20  C   UNL     1      -4.858   9.876 -17.956  0.00  0.00    +0.225 C 
ENDBRANCH  18  20
ENDBRANCH  12  18
ENDBRANCH  11  15
ENDBRANCH   9  11
ENDBRANCH   5   9
ENDBRANCH   1   7
BRANCH   2  21
ATOM     21  C   UNL     1      -1.789   2.343  -7.516  0.00  0.00    +0.105 C 
BRANCH  21  22
ATOM     22  C   UNL     1      -0.487   1.763  -6.957  0.00  0.00    +0.083 C 
BRANCH  22  23
ATOM     23  C   UNL     1      -0.713   1.294  -5.543  0.00  0.00    +0.111 A 
ATOM     24  N   UNL     1       0.317   0.741  -4.852  0.00  0.00    -0.310 N 
ATOM     25  H   UNL     1       1.305   0.640  -5.325  0.00  0.00    +0.170 HD
ATOM     26  C   UNL     1       0.159   0.307  -3.587  0.00  0.00    +0.260 A 
ATOM     27  O   UNL     1       1.092  -0.188  -2.979  0.00  0.00    -0.267 OA
ATOM     28  C   UNL     1      -1.128   0.437  -2.969  0.00  0.00    +0.075 A 
ATOM     29  C   UNL     1      -1.527   0.036  -1.612  0.00  0.00    -0.023 A 
ATOM     30  C   UNL     1      -2.804   0.266  -1.262  0.00  0.00    -0.004 A 
ATOM     31  S   UNL     1      -3.545   1.017  -2.693  0.00  0.00    -0.073 S 
ATOM     32  C   UNL     1      -2.128   1.019  -3.759  0.00  0.00    +0.116 A 
ATOM     33  N   UNL     1      -1.897   1.425  -5.005  0.00  0.00    -0.227 NA
ATOM     34  C   UNL     1      -3.096  -0.180   0.146  0.00  0.00    +0.043 C 
ATOM     35  C   UNL     1      -1.704  -0.336   0.801  0.00  0.00    +0.010 C 
ATOM     36  C   UNL     1      -0.813  -0.618  -0.425  0.00  0.00    +0.037 C 
ENDBRANCH  22  23
ENDBRANCH  21  22
ENDBRANCH   2  21
TORSDOF 9
