REMARK  Name = ZINC24649724
REMARK  5 active torsions:
REMARK  status: ('A' for Active; 'I' for Inactive)
REMARK    1  A    between atoms: C_1  and  C_2
REMARK    2  A    between atoms: C_5  and  C_27
REMARK    3  A    between atoms: C_12  and  C_14
REMARK    4  A    between atoms: C_14  and  C_15
REMARK    5  A    between atoms: C_15  and  N_16
REMARK                            x       y       z     vdW  Elec       q    Type
REMARK                         _______ _______ _______ _____ _____    ______ ____
ROOT
ATOM      1  C   UNL     1      -0.018   1.503   0.010  0.00  0.00    +0.046 C 
ATOM      2  C   UNL     1       0.002  -0.004   0.002  0.00  0.00    -0.024 A 
ATOM      3  C   UNL     1       0.005  -0.675  -1.193  0.00  0.00    +0.006 A 
ATOM      4  C   UNL     1       0.024  -2.061  -1.246  0.00  0.00    +0.005 A 
ATOM      5  C   UNL     1       0.040  -2.784  -0.067  0.00  0.00    -0.035 A 
ATOM      6  C   UNL     1       0.036  -2.121   1.134  0.00  0.00    +0.044 A 
ATOM      7  C   UNL     1       0.023  -0.710   1.227  0.00  0.00    +0.083 A 
ATOM      8  N   UNL     1       0.027  -0.206   2.480  0.00  0.00    -0.224 NA
ATOM      9  C   UNL     1       0.047  -0.969   3.547  0.00  0.00    +0.165 A 
ATOM     10  S   UNL     1       0.051  -2.611   2.842  0.00  0.00    -0.052 S 
ATOM     11  N   UNL     1       0.054  -0.597   4.882  0.00  0.00    -0.265 N 
ATOM     12  C   UNL     1       0.075  -1.540   5.845  0.00  0.00    +0.220 C 
ATOM     13  O   UNL     1       0.088  -2.714   5.543  0.00  0.00    -0.275 OA
ATOM     14  C   UNL     1       0.059  -4.290  -0.101  0.00  0.00    +0.045 C 
ATOM     15  H   UNL     1       0.044   0.343   5.123  0.00  0.00    +0.157 HD
ENDROOT
BRANCH  12  16
ATOM     16  C   UNL     1       0.083  -1.135   7.296  0.00  0.00    +0.115 C 
BRANCH  16  17
ATOM     17  C   UNL     1       0.107  -2.387   8.175  0.00  0.00    +0.127 C 
BRANCH  17  18
ATOM     18  N   UNL     1       0.115  -1.993   9.586  0.00  0.00    -0.224 N 
ATOM     19  C   UNL     1       1.236  -1.770  10.306  0.00  0.00    +0.247 C 
ATOM     20  O   UNL     1       2.384  -1.852   9.924  0.00  0.00    -0.273 OA
ATOM     21  C   UNL     1       0.755  -1.394  11.684  0.00  0.00    +0.113 C 
ATOM     22  C   UNL     1       1.232   0.012  12.071  0.00  0.00    +0.035 C 
ATOM     23  C   UNL     1       1.496  -0.088  13.596  0.00  0.00    +0.003 C 
ATOM     24  C   UNL     1       2.084  -1.514  13.751  0.00  0.00    +0.003 C 
ATOM     25  C   UNL     1       1.284  -2.366  12.741  0.00  0.00    +0.035 C 
ATOM     26  N   UNL     1      -0.706  -1.450  11.591  0.00  0.00    -0.285 N 
ATOM     27  C   UNL     1      -0.989  -1.805  10.321  0.00  0.00    +0.309 C 
ATOM     28  O   UNL     1      -2.118  -1.942   9.893  0.00  0.00    -0.252 OA
ATOM     29  H   UNL     1      -1.342  -1.266  12.299  0.00  0.00    +0.151 HD
ENDBRANCH  17  18
ENDBRANCH  16  17
ENDBRANCH  12  16
TORSDOF 3
