REMARK  Name = ZINC63663759
REMARK  7 active torsions:
REMARK  status: ('A' for Active; 'I' for Inactive)
REMARK    1  A    between atoms: C_3  and  O_26
REMARK    2  A    between atoms: C_6  and  N_7
REMARK    3  A    between atoms: N_7  and  C_8
REMARK    4  A    between atoms: C_8  and  N_10
REMARK    5  A    between atoms: N_10  and  C_11
REMARK    6  A    between atoms: C_11  and  C_12
REMARK    7  A    between atoms: O_26  and  C_27
REMARK                            x       y       z     vdW  Elec       q    Type
REMARK                         _______ _______ _______ _____ _____    ______ ____
ROOT
ATOM      1  N   UNL     1      -2.345  -2.746  -0.193  0.00  0.00    -0.322 N 
ATOM      2  H   UNL     1      -3.190  -2.270  -0.182  0.00  0.00    +0.148 HD
ENDROOT
BRANCH   1   3
ATOM      3  C   UNL     1      -1.186  -2.065  -0.099  0.00  0.00    +0.135 C 
ATOM      4  S   UNL     1       0.306  -2.905  -0.118  0.00  0.00    -0.019 S 
BRANCH   3   5
ATOM      5  N   UNL     1      -1.201  -0.721   0.010  0.00  0.00    -0.297 N 
ATOM      6  H   UNL     1      -2.046  -0.250   0.083  0.00  0.00    +0.154 HD
BRANCH   5  12
ATOM      7  C   UNL     1       0.135   1.140  -0.755  0.00  0.00    +0.027 A 
ATOM      8  C   UNL     1       1.322   1.845  -0.746  0.00  0.00    +0.048 A 
ATOM      9  C   UNL     1       2.382   1.410   0.035  0.00  0.00    +0.130 A 
ATOM     10  C   UNL     1       2.251   0.266   0.808  0.00  0.00    +0.048 A 
ATOM     11  C   UNL     1       1.065  -0.441   0.800  0.00  0.00    +0.027 A 
ATOM     12  C   UNL     1       0.003  -0.005   0.018  0.00  0.00    +0.033 A 
BRANCH   9  13
ATOM     13  O   UNL     1       3.551   2.105   0.043  0.00  0.00    -0.406 OA
BRANCH  13  14
ATOM     14  C   UNL     1       4.601   1.600   0.871  0.00  0.00    +0.575 C 
ATOM     15  F   UNL     1       4.936   0.305   0.460  0.00  0.00    -0.133 F 
ATOM     16  F   UNL     1       5.722   2.429   0.761  0.00  0.00    -0.133 F 
ATOM     17  F   UNL     1       4.172   1.570   2.202  0.00  0.00    -0.133 F 
ENDBRANCH  13  14
ENDBRANCH   9  13
ENDBRANCH   5  12
ENDBRANCH   3   5
ENDBRANCH   1   3
BRANCH   1  18
ATOM     18  C   UNL     1      -2.328  -4.207  -0.311  0.00  0.00    +0.138 C 
BRANCH  18  19
ATOM     19  C   UNL     1      -3.742  -4.720  -0.400  0.00  0.00    -0.030 A 
ATOM     20  C   UNL     1      -4.425  -5.046   0.781  0.00  0.00    +0.007 A 
ATOM     21  C   UNL     1      -5.691  -5.514   0.783  0.00  0.00    +0.026 A 
ATOM     22  C   UNL     1      -6.394  -5.697  -0.438  0.00  0.00    +0.043 A 
ATOM     23  N   UNL     1      -7.616  -6.109  -0.688  0.00  0.00    -0.378 N 
ATOM     24  C   UNL     1      -7.792  -6.185  -2.136  0.00  0.00    +0.106 C 
ATOM     25  C   UNL     1      -8.976  -5.344  -2.621  0.00  0.00    +0.029 C 
ATOM     26  C   UNL     1      -8.912  -5.249  -4.149  0.00  0.00    +0.003 C 
ATOM     27  C   UNL     1      -7.674  -4.478  -4.601  0.00  0.00    +0.004 C 
ATOM     28  C   UNL     1      -6.402  -5.241  -4.194  0.00  0.00    +0.033 C 
ATOM     29  C   UNL     1      -6.529  -5.582  -2.727  0.00  0.00    -0.038 C 
ATOM     30  C   UNL     1      -5.698  -5.352  -1.702  0.00  0.00    -0.001 A 
ATOM     31  C   UNL     1      -4.321  -4.848  -1.614  0.00  0.00    +0.015 A 
ATOM     32  H   UNL     1      -8.289  -6.327  -0.023  0.00  0.00    +0.160 HD
ENDBRANCH  18  19
ENDBRANCH   1  18
TORSDOF 7
