REMARK  Name = ZINC38735285
REMARK  4 active torsions:
REMARK  status: ('A' for Active; 'I' for Inactive)
REMARK    1  A    between atoms: C_3  and  N_15
REMARK    2  A    between atoms: C_6  and  C_7
REMARK    3  A    between atoms: C_16  and  C_18
REMARK    4  A    between atoms: C_18  and  C_23
REMARK                            x       y       z     vdW  Elec       q    Type
REMARK                         _______ _______ _______ _____ _____    ______ ____
ROOT
ATOM      1  N   UNL     1       3.706   2.522  -0.586  0.00  0.00    -0.285 N 
ATOM      2  C   UNL     1       4.661   1.717  -0.080  0.00  0.00    +0.228 C 
ATOM      3  O   UNL     1       4.405   0.558   0.173  0.00  0.00    -0.275 OA
ATOM      4  H   UNL     1       3.935   3.415  -0.890  0.00  0.00    +0.155 HD
ENDROOT
BRANCH   1   7
ATOM      5  C   UNL     1       0.031   2.529  -0.615  0.00  0.00    +0.012 A 
ATOM      6  C   UNL     1       1.334   2.970  -0.529  0.00  0.00    +0.024 A 
ATOM      7  C   UNL     1       2.384   2.072  -0.673  0.00  0.00    +0.033 A 
ATOM      8  C   UNL     1       2.124   0.727  -0.903  0.00  0.00    +0.024 A 
ATOM      9  C   UNL     1       0.822   0.280  -0.990  0.00  0.00    +0.012 A 
ATOM     10  C   UNL     1      -0.233   1.179  -0.846  0.00  0.00    +0.002 A 
BRANCH  10  11
ATOM     11  C   UNL     1      -1.634   0.702  -0.937  0.00  0.00    +0.090 A 
ATOM     12  C   UNL     1      -2.026  -0.578  -1.151  0.00  0.00    +0.121 A 
ATOM     13  N   UNL     1      -3.417  -0.595  -1.167  0.00  0.00    -0.300 N 
ATOM     14  C   UNL     1      -4.430  -1.515  -1.327  0.00  0.00    +0.100 A 
ATOM     15  C   UNL     1      -5.707  -1.141  -1.277  0.00  0.00    +0.067 A 
ATOM     16  S   UNL     1      -5.566   0.616  -0.987  0.00  0.00    -0.058 S 
ATOM     17  C   UNL     1      -3.790   0.707  -0.955  0.00  0.00    +0.178 A 
ATOM     18  N   UNL     1      -2.741   1.464  -0.816  0.00  0.00    -0.221 NA
ENDBRANCH  10  11
ENDBRANCH   1   7
BRANCH   2  19
ATOM     19  C   UNL     1       6.045   2.255   0.172  0.00  0.00    +0.072 C 
ATOM     20  C   UNL     1       6.490   3.139  -1.007  0.00  0.00    +0.021 C 
ATOM     21  C   UNL     1       7.756   2.483  -1.597  0.00  0.00    +0.001 C 
ATOM     22  C   UNL     1       7.647   0.998  -1.171  0.00  0.00    +0.001 C 
ATOM     23  C   UNL     1       7.057   1.094   0.258  0.00  0.00    +0.021 C 
BRANCH  19  24
ATOM     24  C   UNL     1       6.064   3.052   1.451  0.00  0.00    -0.032 A 
ATOM     25  C   UNL     1       4.952   3.069   2.271  0.00  0.00    +0.006 A 
ATOM     26  C   UNL     1       4.968   3.800   3.444  0.00  0.00    +0.020 A 
ATOM     27  C   UNL     1       6.099   4.514   3.798  0.00  0.00    +0.041 A 
ATOM     28  C   UNL     1       7.213   4.496   2.977  0.00  0.00    +0.020 A 
ATOM     29  C   UNL     1       7.197   3.761   1.807  0.00  0.00    +0.006 A 
ATOM     30 CL   UNL     1       6.121   5.432   5.271  0.00  0.00    -0.084 Cl
ENDBRANCH  19  24
ENDBRANCH   2  19
TORSDOF 4
