REMARK  Name = ZINC06468626
REMARK  8 active torsions:
REMARK  status: ('A' for Active; 'I' for Inactive)
REMARK    1  A    between atoms: C_1  and  C_2
REMARK    2  A    between atoms: C_5  and  C_28
REMARK    3  A    between atoms: C_5  and  O_31
REMARK    4  A    between atoms: C_17  and  C_27
REMARK    5  A    between atoms: C_22  and  C_23
REMARK    6  A    between atoms: C_22  and  O_26
REMARK    7  A    between atoms: C_23  and  N_70
REMARK    8  A    between atoms: C_28  and  N_72
REMARK                            x       y       z     vdW  Elec       q    Type
REMARK                         _______ _______ _______ _____ _____    ______ ____
ROOT
ATOM      1  C   UNL     1      -2.338   3.253  -1.515  0.00  0.00    +0.012 C 
ATOM      2  C   UNL     1      -2.137   1.752  -1.273  0.00  0.00    -0.026 C 
ATOM      3  C   UNL     1      -0.642   1.654  -1.337  0.00  0.00    +0.010 C 
ATOM      4  C   UNL     1       0.081   1.193  -0.100  0.00  0.00    +0.033 C 
ATOM      5  C   UNL     1      -0.574   1.700   1.169  0.00  0.00    +0.052 C 
ATOM      6  C   UNL     1      -2.016   1.272   1.245  0.00  0.00    +0.037 C 
ATOM      7  C   UNL     1      -2.852   1.579   0.019  0.00  0.00    -0.002 C 
ATOM      8  C   UNL     1      -4.094   0.710   0.087  0.00  0.00    +0.004 C 
ATOM      9  C   UNL     1      -4.728   0.367  -1.256  0.00  0.00    +0.004 C 
ATOM     10  C   UNL     1      -3.577  -0.087  -2.155  0.00  0.00    -0.004 C 
ATOM     11  C   UNL     1      -2.812   1.192  -2.513  0.00  0.00    -0.001 C 
ATOM     12  C   UNL     1      -1.865   0.891  -3.667  0.00  0.00    +0.005 C 
ATOM     13  C   UNL     1      -2.685   0.691  -4.957  0.00  0.00    +0.010 C 
ATOM     14  C   UNL     1      -3.989   0.012  -4.661  0.00  0.00    -0.002 C 
ATOM     15  C   UNL     1      -3.960  -0.842  -3.383  0.00  0.00    +0.001 C 
ATOM     16  C   UNL     1      -5.345  -1.504  -3.402  0.00  0.00    +0.007 C 
ATOM     17  C   UNL     1      -5.604  -1.778  -4.908  0.00  0.00    +0.034 C 
ATOM     18  C   UNL     1      -4.513  -0.999  -5.691  0.00  0.00    +0.057 C 
ATOM     19  C   UNL     1      -5.090   1.083  -4.559  0.00  0.00    +0.014 C 
ENDROOT
BRANCH  18  20
ATOM     20  O   UNL     1      -5.092  -0.306  -6.796  0.00  0.00    -0.390 OA
ATOM     21  H   UNL     1      -5.443  -0.887  -7.484  0.00  0.00    +0.210 HD
ENDBRANCH  18  20
BRANCH   5  22
ATOM     22  O   UNL     1      -0.501   3.125   1.208  0.00  0.00    -0.390 OA
ATOM     23  H   UNL     1       0.401   3.474   1.194  0.00  0.00    +0.210 HD
ENDBRANCH   5  22
BRANCH  18  24
ATOM     24  C   UNL     1      -3.421  -1.953  -6.160  0.00  0.00    -0.043 C 
BRANCH  24  27
ATOM     25  C   UNL     1      -3.800  -4.283  -6.701  0.00  0.00    -0.098 C 
ATOM     26  C   UNL     1      -2.916  -3.671  -7.791  0.00  0.00    -0.098 C 
ATOM     27  N   UNL     1      -3.829  -3.098  -7.134  0.00  0.00    +0.379 N 
ATOM     28  H   UNL     1      -4.667  -2.813  -7.654  0.00  0.00    -0.082 HD
ENDBRANCH  24  27
ENDBRANCH  18  24
BRANCH   5  29
ATOM     29  C   UNL     1       0.176   1.132   2.378  0.00  0.00    -0.044 C 
BRANCH  29  32
ATOM     30  C   UNL     1       2.489   0.417   2.324  0.00  0.00    -0.098 C 
ATOM     31  C   UNL     1       2.269   1.247   3.591  0.00  0.00    -0.098 C 
ATOM     32  N   UNL     1       1.708   1.397   2.471  0.00  0.00    +0.379 N 
ATOM     33  H   UNL     1       1.932   2.253   1.950  0.00  0.00    -0.082 HD
ENDBRANCH  29  32
ENDBRANCH   5  29
TORSDOF 6
