REMARK  Name = ZINC60942651
REMARK  4 active torsions:
REMARK  status: ('A' for Active; 'I' for Inactive)
REMARK    1  A    between atoms: C_8  and  C_23
REMARK    2  A    between atoms: N_9  and  C_11
REMARK    3  A    between atoms: C_11  and  C_12
REMARK    4  A    between atoms: N_14  and  C_15
REMARK                            x       y       z     vdW  Elec       q    Type
REMARK                         _______ _______ _______ _____ _____    ______ ____
ROOT
ATOM      1  C   UNL     1       0.634   1.631   0.590  0.00  0.00    +0.000 A 
ATOM      2  C   UNL     1       1.815   2.194   0.145  0.00  0.00    +0.000 A 
ATOM      3  C   UNL     1       2.867   1.382  -0.226  0.00  0.00    +0.005 A 
ATOM      4  C   UNL     1       2.747   0.001  -0.154  0.00  0.00    -0.030 A 
ATOM      5  C   UNL     1       1.570  -0.560   0.293  0.00  0.00    -0.041 A 
ATOM      6  C   UNL     1       0.512   0.258   0.663  0.00  0.00    +0.004 A 
ATOM      7  C   UNL     1       1.395  -2.053   0.399  0.00  0.00    +0.063 C 
ATOM      8  C   UNL     1       2.471  -2.764  -0.422  0.00  0.00    +0.148 C 
ATOM      9  N   UNL     1       3.783  -2.208  -0.055  0.00  0.00    -0.278 NA
ATOM     10  C   UNL     1       3.920  -0.844  -0.576  0.00  0.00    +0.121 C 
ENDROOT
BRANCH   8  11
ATOM     11  C   UNL     1       2.445  -4.240  -0.121  0.00  0.00    +0.228 C 
ATOM     12  O   UNL     1       3.053  -4.676   0.833  0.00  0.00    -0.274 OA
ATOM     13  N   UNL     1       1.744  -5.077  -0.913  0.00  0.00    -0.328 N 
ATOM     14  H   UNL     1       1.258  -4.729  -1.676  0.00  0.00    +0.145 HD
ATOM     15  H   UNL     1       1.728  -6.027  -0.719  0.00  0.00    +0.145 HD
ENDBRANCH   8  11
BRANCH   9  16
ATOM     16  C   UNL     1       4.873  -3.067  -0.538  0.00  0.00    +0.181 C 
BRANCH  16  17
ATOM     17  C   UNL     1       6.151  -2.704   0.173  0.00  0.00    +0.227 C 
ATOM     18  O   UNL     1       6.154  -1.817   1.000  0.00  0.00    -0.274 OA
ATOM     19  N   UNL     1       7.291  -3.365  -0.111  0.00  0.00    -0.311 N 
ATOM     20  H   UNL     1       7.288  -4.075  -0.772  0.00  0.00    +0.149 HD
BRANCH  19  21
ATOM     21  C   UNL     1       8.534  -3.012   0.580  0.00  0.00    +0.073 C 
ATOM     22  C   UNL     1       8.605  -3.758   1.914  0.00  0.00    +0.022 C 
ATOM     23  C   UNL     1      10.039  -3.715   2.446  0.00  0.00    +0.002 C 
ATOM     24  C   UNL     1      10.328  -2.327   3.022  0.00  0.00    +0.000 C 
ATOM     25  C   UNL     1      10.552  -1.337   1.877  0.00  0.00    +0.000 C 
ATOM     26  C   UNL     1      11.452  -1.976   0.818  0.00  0.00    +0.000 C 
ATOM     27  C   UNL     1      10.651  -2.197  -0.467  0.00  0.00    +0.002 C 
ATOM     28  C   UNL     1       9.729  -3.406  -0.289  0.00  0.00    +0.022 C 
ENDBRANCH  19  21
ENDBRANCH  16  17
ENDBRANCH   9  16
TORSDOF 4
