REMARK  Name = ZINC35398930
REMARK  7 active torsions:
REMARK  status: ('A' for Active; 'I' for Inactive)
REMARK    1  A    between atoms: C_6  and  C_7
REMARK    2  A    between atoms: C_7  and  N_8
REMARK    3  A    between atoms: N_8  and  S_9
REMARK    4  A    between atoms: S_9  and  C_12
REMARK    5  A    between atoms: C_21  and  C_23
REMARK    6  A    between atoms: C_23  and  C_24
REMARK    7  A    between atoms: C_24  and  C_25
REMARK                            x       y       z     vdW  Elec       q    Type
REMARK                         _______ _______ _______ _____ _____    ______ ____
ROOT
ATOM      1  C   UNL     1      -4.389  -1.562  -0.938  0.00  0.00    +0.106 A 
ATOM      2  C   UNL     1      -4.691  -1.905   0.367  0.00  0.00    +0.030 A 
ATOM      3  C   UNL     1      -5.855  -1.455   0.952  0.00  0.00    +0.026 A 
ATOM      4  C   UNL     1      -6.738  -0.648   0.231  0.00  0.00    +0.040 A 
ATOM      5  C   UNL     1      -6.427  -0.310  -1.076  0.00  0.00    -0.023 A 
ATOM      6  C   UNL     1      -5.256  -0.759  -1.656  0.00  0.00    +0.034 A 
ATOM      7  C   UNL     1      -7.535   0.560  -1.625  0.00  0.00    +0.056 C 
ATOM      8  C   UNL     1      -8.537   0.687  -0.466  0.00  0.00    +0.118 C 
ATOM      9  N   UNL     1      -7.957  -0.092   0.631  0.00  0.00    -0.271 N 
ATOM     10  C   UNL     1      -8.517  -0.249   1.847  0.00  0.00    +0.220 C 
ATOM     11  O   UNL     1      -7.956  -0.916   2.691  0.00  0.00    -0.275 OA
ENDROOT
BRANCH   1  12
ATOM     12  S   UNL     1      -2.900  -2.141  -1.682  0.00  0.00    +0.059 S 
ATOM     13  O   UNL     1      -3.115  -2.123  -3.087  0.00  0.00    -0.153 OA
ATOM     14  O   UNL     1      -2.529  -3.321  -0.983  0.00  0.00    -0.153 OA
BRANCH  12  15
ATOM     15  N   UNL     1      -1.727  -1.016  -1.368  0.00  0.00    -0.186 NA
ATOM     16  H   UNL     1      -1.326  -0.517  -2.097  0.00  0.00    +0.148 HD
BRANCH  15  17
ATOM     17  C   UNL     1      -1.294  -0.774   0.010  0.00  0.00    +0.141 C 
BRANCH  17  23
ATOM     18  C   UNL     1      -0.017   1.378   0.010  0.00  0.00    +0.009 A 
ATOM     19  C   UNL     1       1.170   2.088   0.002  0.00  0.00    +0.050 A 
ATOM     20  C   UNL     1       2.380   1.416  -0.013  0.00  0.00    +0.166 A 
ATOM     21  C   UNL     1       2.399   0.023  -0.021  0.00  0.00    +0.167 A 
ATOM     22  C   UNL     1       1.207  -0.682  -0.014  0.00  0.00    +0.054 A 
ATOM     23  C   UNL     1       0.002  -0.004   0.002  0.00  0.00    -0.028 A 
ATOM     24  O   UNL     1       3.698  -0.395  -0.036  0.00  0.00    -0.453 OA
ATOM     25  C   UNL     1       4.466   0.750  -0.450  0.00  0.00    +0.466 C 
ATOM     26  O   UNL     1       3.668   1.870  -0.024  0.00  0.00    -0.453 OA
ENDBRANCH  17  23
ENDBRANCH  15  17
ENDBRANCH  12  15
ENDBRANCH   1  12
BRANCH  10  27
ATOM     27  C   UNL     1      -9.839   0.403   2.159  0.00  0.00    +0.105 C 
BRANCH  27  28
ATOM     28  C   UNL     1     -10.247   0.069   3.595  0.00  0.00    +0.105 C 
BRANCH  28  29
ATOM     29  C   UNL     1     -11.569   0.722   3.906  0.00  0.00    +0.216 C 
ATOM     30  O   UNL     1     -12.130   1.389   3.062  0.00  0.00    -0.276 OA
ATOM     31  N   UNL     1     -12.128   0.564   5.122  0.00  0.00    -0.301 N 
ATOM     32  C   UNL     1     -11.458  -0.235   6.157  0.00  0.00    +0.108 C 
ATOM     33  C   UNL     1     -11.326   0.612   7.426  0.00  0.00    +0.019 C 
ATOM     34  C   UNL     1     -12.706   1.135   7.832  0.00  0.00    +0.003 C 
ATOM     35  C   UNL     1     -13.266   2.020   6.716  0.00  0.00    +0.019 C 
ATOM     36  C   UNL     1     -13.417   1.194   5.441  0.00  0.00    +0.108 C 
ENDBRANCH  28  29
ENDBRANCH  27  28
ENDBRANCH  10  27
TORSDOF 7
