REMARK  Name = ZINC21467540
REMARK  6 active torsions:
REMARK  status: ('A' for Active; 'I' for Inactive)
REMARK    1  A    between atoms: C_10  and  C_13
REMARK    2  A    between atoms: C_13  and  C_14
REMARK    3  A    between atoms: C_14  and  O_16
REMARK    4  A    between atoms: O_16  and  C_17
REMARK    5  A    between atoms: C_17  and  C_18
REMARK    6  A    between atoms: N_20  and  C_21
REMARK                            x       y       z     vdW  Elec       q    Type
REMARK                         _______ _______ _______ _____ _____    ______ ____
ROOT
ATOM      1  C   UNL     1      -3.042   9.041   1.554  0.00  0.00    +0.328 C 
ENDROOT
BRANCH   1   2
ATOM      2  C   UNL     1      -2.712   7.786   0.788  0.00  0.00    +0.255 C 
ATOM      3  O   UNL     1      -2.724   7.794  -0.425  0.00  0.00    -0.272 OA
ATOM      4  N   UNL     1      -2.404   6.654   1.451  0.00  0.00    -0.283 N 
ATOM      5  H   UNL     1      -2.478   6.622   2.549  0.00  0.00    +0.155 HD
BRANCH   4   6
ATOM      6  C   UNL     1      -1.991   5.517   0.744  0.00  0.00    +0.037 A 
ATOM      7  C   UNL     1      -2.321   4.252   1.209  0.00  0.00    +0.027 A 
ATOM      8  C   UNL     1      -1.914   3.129   0.513  0.00  0.00    +0.051 A 
ATOM      9  C   UNL     1      -1.178   3.264  -0.651  0.00  0.00    +0.167 A 
ATOM     10  C   UNL     1      -0.845   4.535  -1.121  0.00  0.00    +0.169 A 
ATOM     11  C   UNL     1      -1.252   5.658  -0.424  0.00  0.00    +0.073 A 
ATOM     12  O   UNL     1      -0.122   4.390  -2.277  0.00  0.00    -0.447 OA
ATOM     13  C   UNL     1      -0.466   3.073  -2.732  0.00  0.00    +0.254 C 
ATOM     14  O   UNL     1      -0.659   2.336  -1.517  0.00  0.00    -0.448 OA
ATOM     15  C   UNL     1      -1.743   3.094  -3.579  0.00  0.00    +0.093 C 
ATOM     16  C   UNL     1      -1.223   3.061  -5.040  0.00  0.00    +0.008 C 
ATOM     17  C   UNL     1       0.006   2.121  -4.949  0.00  0.00    +0.008 C 
ATOM     18  C   UNL     1       0.648   2.467  -3.586  0.00  0.00    +0.093 C 
ENDBRANCH   4   6
ENDBRANCH   1   2
BRANCH   1  19
ATOM     19  O   UNL     1      -3.336  10.114   0.620  0.00  0.00    -0.455 OA
BRANCH  19  20
ATOM     20  C   UNL     1      -3.651  11.309   1.144  0.00  0.00    +0.309 C 
ATOM     21  O   UNL     1      -3.680  11.454   2.344  0.00  0.00    -0.251 OA
BRANCH  20  22
ATOM     22  C   UNL     1      -3.968  12.470   0.237  0.00  0.00    +0.144 C 
BRANCH  22  32
ATOM     23  C   UNL     1      -0.283  16.183  -1.186  0.00  0.00    +0.002 A 
ATOM     24  C   UNL     1       0.329  15.564  -0.111  0.00  0.00    +0.001 A 
ATOM     25  C   UNL     1      -0.441  14.961   0.867  0.00  0.00    +0.016 A 
ATOM     26  C   UNL     1      -1.822  14.977   0.765  0.00  0.00    +0.030 A 
ATOM     27  C   UNL     1      -2.446  15.594  -0.319  0.00  0.00    +0.047 A 
ATOM     28  C   UNL     1      -1.659  16.201  -1.293  0.00  0.00    +0.024 A 
ATOM     29  N   UNL     1      -3.831  15.615  -0.455  0.00  0.00    -0.284 N 
ATOM     30  C   UNL     1      -4.703  14.840   0.182  0.00  0.00    +0.231 C 
ATOM     31  O   UNL     1      -5.886  15.058   0.032  0.00  0.00    -0.274 OA
ATOM     32  C   UNL     1      -4.291  13.704   1.082  0.00  0.00    +0.148 C 
ATOM     33  S   UNL     1      -2.812  14.213   2.011  0.00  0.00    -0.110 S 
ATOM     34  H   UNL     1      -4.305  16.327  -1.147  0.00  0.00    +0.155 HD
ENDBRANCH  22  32
ENDBRANCH  20  22
ENDBRANCH  19  20
ENDBRANCH   1  19
TORSDOF 6
