REMARK  Name = ZINC35492217
REMARK  13 active torsions:
REMARK  status: ('A' for Active; 'I' for Inactive)
REMARK    1  A    between atoms: C_1  and  C_2
REMARK    2  A    between atoms: C_2  and  N_3
REMARK    3  A    between atoms: N_3  and  C_4
REMARK    4  A    between atoms: N_3  and  C_6
REMARK    5  A    between atoms: C_4  and  C_5
REMARK    6  A    between atoms: C_6  and  C_7
REMARK    7  A    between atoms: C_7  and  C_8
REMARK    8  A    between atoms: C_8  and  C_9
REMARK    9  A    between atoms: C_9  and  C_11
REMARK   10  A    between atoms: C_9  and  N_12
REMARK   11  A    between atoms: C_13  and  C_15
REMARK   12  A    between atoms: N_19  and  C_20
REMARK   13  A    between atoms: C_20  and  C_21
REMARK                            x       y       z     vdW  Elec       q    Type
REMARK                         _______ _______ _______ _____ _____    ______ ____
ROOT
ATOM      1  C   UNL     1       7.374  -2.440  -1.349  0.00  0.00    +0.109 A 
ATOM      2  C   UNL     1       7.884  -2.282  -0.079  0.00  0.00    +0.079 A 
ATOM      3  C   UNL     1       9.156  -1.711  -0.199  0.00  0.00    +0.153 A 
ATOM      4  C   UNL     1       9.403  -1.528  -1.556  0.00  0.00    +0.088 A 
ATOM      5  N   UNL     1       8.313  -1.981  -2.253  0.00  0.00    -0.329 N 
ATOM      6  C   UNL     1      10.691  -0.952  -1.651  0.00  0.00    +0.067 A 
ATOM      7  C   UNL     1      11.157  -0.813  -0.397  0.00  0.00    +0.198 A 
ATOM      8  O   UNL     1      10.240  -1.266   0.474  0.00  0.00    -0.461 OA
ENDROOT
BRANCH   1  10
ATOM      9  N   UNL     1       5.195  -3.318  -0.703  0.00  0.00    -0.308 N 
ATOM     10  C   UNL     1       6.064  -3.003  -1.684  0.00  0.00    +0.261 C 
ATOM     11  O   UNL     1       5.760  -3.187  -2.848  0.00  0.00    -0.269 OA
ATOM     12  H   UNL     1       5.407  -3.105   0.220  0.00  0.00    +0.149 HD
BRANCH   9  13
ATOM     13  C   UNL     1       3.930  -3.981  -1.029  0.00  0.00    +0.070 C 
ATOM     14  C   UNL     1       4.155  -5.492  -1.115  0.00  0.00    +0.028 C 
BRANCH  13  15
ATOM     15  C   UNL     1       2.900  -3.680   0.061  0.00  0.00    +0.020 C 
BRANCH  15  16
ATOM     16  C   UNL     1       2.583  -2.183   0.063  0.00  0.00    -0.017 C 
BRANCH  16  17
ATOM     17  C   UNL     1       1.552  -1.881   1.153  0.00  0.00    -0.079 C 
BRANCH  17  18
ATOM     18  N   UNL     1       1.248  -0.444   1.155  0.00  0.00    +0.379 N 
ATOM     19  H   UNL     1       2.104   0.081   1.254  0.00  0.00    -0.082 HD
BRANCH  18  21
ATOM     20  C   UNL     1       0.406   1.437  -0.169  0.00  0.00    -0.017 C 
ATOM     21  C   UNL     1       0.594  -0.080  -0.110  0.00  0.00    -0.082 C 
ENDBRANCH  18  21
BRANCH  18  22
ATOM     22  C   UNL     1       0.351  -0.135   2.276  0.00  0.00    -0.082 C 
ATOM     23  C   UNL     1       1.084  -0.378   3.597  0.00  0.00    -0.017 C 
ENDBRANCH  18  22
ENDBRANCH  17  18
ENDBRANCH  16  17
ENDBRANCH  15  16
ENDBRANCH  13  15
ENDBRANCH   9  13
ENDBRANCH   1  10
BRANCH   5  24
ATOM     24  C   UNL     1       8.166  -1.976  -3.711  0.00  0.00    +0.157 C 
BRANCH  24  25
ATOM     25  C   UNL     1       7.671  -0.626  -4.161  0.00  0.00    -0.028 A 
ATOM     26  C   UNL     1       6.317  -0.349  -4.154  0.00  0.00    +0.006 A 
ATOM     27  C   UNL     1       5.863   0.890  -4.567  0.00  0.00    +0.015 A 
ATOM     28  C   UNL     1       6.764   1.852  -4.987  0.00  0.00    +0.018 A 
ATOM     29  C   UNL     1       8.119   1.574  -4.993  0.00  0.00    +0.015 A 
ATOM     30  C   UNL     1       8.572   0.337  -4.575  0.00  0.00    +0.006 A 
ATOM     31 BR   UNL     1       6.143   3.546  -5.552  0.00  0.00    -0.050 Br
ENDBRANCH  24  25
ENDBRANCH   5  24
TORSDOF 10
