REMARK  Name = ZINC20344167
REMARK  5 active torsions:
REMARK  status: ('A' for Active; 'I' for Inactive)
REMARK    1  A    between atoms: C_1  and  C_2
REMARK    2  A    between atoms: C_12  and  C_14
REMARK    3  A    between atoms: N_21  and  C_22
REMARK    4  A    between atoms: C_22  and  C_23
REMARK    5  A    between atoms: C_23  and  C_24
REMARK                            x       y       z     vdW  Elec       q    Type
REMARK                         _______ _______ _______ _____ _____    ______ ____
ROOT
ATOM      1  C   UNL     1      -0.562   1.444   0.359  0.00  0.00    +0.066 C 
ATOM      2  C   UNL     1      -0.397  -0.051   0.260  0.00  0.00    +0.047 C 
ATOM      3  C   UNL     1      -1.504  -0.853   0.265  0.00  0.00    +0.091 C 
ATOM      4  C   UNL     1      -1.329  -2.246   0.171  0.00  0.00    +0.249 C 
ATOM      5  O   UNL     1      -2.290  -2.998   0.172  0.00  0.00    -0.270 OA
ATOM      6  N   UNL     1      -0.055  -2.735   0.078  0.00  0.00    -0.215 N 
ATOM      7  C   UNL     1       1.016  -1.882   0.077  0.00  0.00    +0.229 C 
ATOM      8  N   UNL     1       0.819  -0.570   0.162  0.00  0.00    -0.219 NA
ATOM      9  N   UNL     1       2.264  -2.357  -0.013  0.00  0.00    -0.183 NA
ATOM     10  C   UNL     1       2.561  -3.632  -0.105  0.00  0.00    +0.193 C 
ATOM     11  N   UNL     1       1.600  -4.604  -0.118  0.00  0.00    -0.339 N 
ATOM     12  C   UNL     1       0.191  -4.180  -0.022  0.00  0.00    +0.184 C 
ATOM     13  N   UNL     1       3.873  -4.000  -0.193  0.00  0.00    -0.315 N 
ATOM     14  H   UNL     1       4.110  -4.938  -0.261  0.00  0.00    +0.149 HD
ATOM     15  H   UNL     1       1.837  -5.542  -0.187  0.00  0.00    +0.164 HD
ENDROOT
BRANCH  12  16
ATOM     16  C   UNL     1      -0.545  -4.701  -1.259  0.00  0.00    +0.034 C 
ATOM     17  C   UNL     1       0.029  -4.039  -2.518  0.00  0.00    +0.011 C 
ATOM     18  C   UNL     1      -0.838  -4.440  -3.713  0.00  0.00    +0.027 C 
ATOM     19  C   UNL     1      -1.042  -5.926  -3.728  0.00  0.00    -0.031 C 
ATOM     20  C   UNL     1      -0.834  -6.697  -2.710  0.00  0.00    -0.031 C 
ATOM     21  C   UNL     1      -0.353  -6.215  -1.372  0.00  0.00    +0.034 C 
ENDBRANCH  12  16
BRANCH  13  22
ATOM     22  C   UNL     1       4.922  -2.978  -0.182  0.00  0.00    +0.109 C 
BRANCH  22  23
ATOM     23  C   UNL     1       6.291  -3.652  -0.290  0.00  0.00    +0.056 C 
BRANCH  23  24
ATOM     24  C   UNL     1       7.371  -2.601  -0.280  0.00  0.00    -0.021 A 
ATOM     25  C   UNL     1       7.952  -2.042  -1.353  0.00  0.00    +0.087 A 
ATOM     26  N   UNL     1       8.888  -1.128  -0.953  0.00  0.00    -0.360 N 
ATOM     27  H   UNL     1       9.438  -0.596  -1.550  0.00  0.00    +0.165 HD
ATOM     28  C   UNL     1       8.935  -1.075   0.422  0.00  0.00    +0.047 A 
ATOM     29  C   UNL     1       7.982  -1.992   0.904  0.00  0.00    +0.003 A 
ATOM     30  C   UNL     1       7.801  -2.150   2.279  0.00  0.00    +0.010 A 
ATOM     31  C   UNL     1       8.550  -1.410   3.151  0.00  0.00    +0.001 A 
ATOM     32  C   UNL     1       9.488  -0.502   2.681  0.00  0.00    +0.002 A 
ATOM     33  C   UNL     1       9.689  -0.337   1.327  0.00  0.00    +0.026 A 
ENDBRANCH  23  24
ENDBRANCH  22  23
ENDBRANCH  13  22
TORSDOF 4
