REMARK  Name = ZINC09237727
REMARK  6 active torsions:
REMARK  status: ('A' for Active; 'I' for Inactive)
REMARK    1  A    between atoms: C_1  and  C_2
REMARK    2  A    between atoms: C_4  and  C_38
REMARK    3  A    between atoms: C_9  and  C_27
REMARK    4  A    between atoms: C_11  and  C_18
REMARK    5  A    between atoms: C_22  and  N_24
REMARK    6  A    between atoms: C_27  and  C_29
REMARK                            x       y       z     vdW  Elec       q    Type
REMARK                         _______ _______ _______ _____ _____    ______ ____
ROOT
ATOM      1  C   UNL     1      -8.126   5.771  -3.924  0.00  0.00    +0.044 C 
ATOM      2  C   UNL     1      -6.781   6.449  -3.961  0.00  0.00    -0.050 A 
ATOM      3  C   UNL     1      -6.324   7.018  -5.136  0.00  0.00    +0.008 A 
ATOM      4  C   UNL     1      -5.094   7.640  -5.177  0.00  0.00    -0.029 A 
ATOM      5  C   UNL     1      -4.301   7.701  -4.032  0.00  0.00    +0.039 A 
ATOM      6  C   UNL     1      -4.771   7.125  -2.856  0.00  0.00    -0.027 A 
ATOM      7  C   UNL     1      -6.000   6.505  -2.820  0.00  0.00    +0.008 A 
ATOM      8  C   UNL     1      -3.701   7.357  -1.825  0.00  0.00    +0.052 C 
ATOM      9  C   UNL     1      -3.176   6.033  -1.262  0.00  0.00    +0.069 C 
ATOM     10  C   UNL     1      -3.826   5.899   0.131  0.00  0.00    +0.016 C 
ATOM     11  C   UNL     1      -4.709   7.150   0.291  0.00  0.00    -0.047 C 
ATOM     12  C   UNL     1      -3.116   8.979  -0.129  0.00  0.00    -0.005 C 
ATOM     13  S   UNL     1      -3.772   9.252   1.576  0.00  0.00    -0.181 S 
ATOM     14  C   UNL     1      -4.640   7.635   1.754  0.00  0.00    +0.052 C 
ATOM     15  C   UNL     1      -2.617   8.106  -2.556  0.00  0.00    +0.212 C 
ATOM     16  O   UNL     1      -1.566   8.493  -2.091  0.00  0.00    -0.277 OA
ATOM     17  N   UNL     1      -3.041   8.265  -3.824  0.00  0.00    -0.286 N 
ATOM     18  C   UNL     1      -4.605   8.256  -6.462  0.00  0.00    +0.045 C 
ATOM     19  H   UNL     1      -2.530   8.718  -4.513  0.00  0.00    +0.155 HD
ATOM     20  N   UNL     1      -4.216   8.118  -0.699  0.00  0.00    +0.401 N 
ATOM     21  H   UNL     1      -4.990   8.719  -1.006  0.00  0.00    -0.078 HD
ENDROOT
BRANCH  10  22
ATOM     22  C   UNL     1      -4.670   4.652   0.195  0.00  0.00    -0.043 A 
ATOM     23  C   UNL     1      -6.020   4.745   0.481  0.00  0.00    +0.004 A 
ATOM     24  C   UNL     1      -6.795   3.602   0.539  0.00  0.00    +0.002 A 
ATOM     25  C   UNL     1      -6.220   2.365   0.311  0.00  0.00    +0.033 A 
ATOM     26  C   UNL     1      -4.871   2.272   0.025  0.00  0.00    +0.126 A 
ATOM     27  C   UNL     1      -4.095   3.415  -0.028  0.00  0.00    +0.036 A 
BRANCH  26  28
ATOM     28  N   UNL     1      -4.256   0.948  -0.219  0.00  0.00    +0.056 N 
ATOM     29  O   UNL     1      -4.938  -0.059  -0.167  0.00  0.00    -0.126 OA
ATOM     30  O   UNL     1      -3.068   0.867  -0.475  0.00  0.00    -0.126 OA
ENDBRANCH  26  28
ENDBRANCH  10  22
BRANCH   9  31
ATOM     31  C   UNL     1      -3.595   4.887  -2.147  0.00  0.00    +0.166 C 
ATOM     32  O   UNL     1      -4.756   4.541  -2.182  0.00  0.00    -0.292 OA
BRANCH  31  33
ATOM     33  C   UNL     1      -2.594   4.187  -2.967  0.00  0.00    +0.018 A 
ATOM     34  C   UNL     1      -1.254   4.586  -2.933  0.00  0.00    +0.011 A 
ATOM     35  C   UNL     1      -0.320   3.921  -3.700  0.00  0.00    +0.001 A 
ATOM     36  C   UNL     1      -0.709   2.869  -4.511  0.00  0.00    +0.000 A 
ATOM     37  C   UNL     1      -2.034   2.472  -4.555  0.00  0.00    +0.001 A 
ATOM     38  C   UNL     1      -2.978   3.123  -3.789  0.00  0.00    +0.011 A 
ENDBRANCH  31  33
ENDBRANCH   9  31
TORSDOF 4
