REMARK  Name = ZINC39509268
REMARK  2 active torsions:
REMARK  status: ('A' for Active; 'I' for Inactive)
REMARK    1  A    between atoms: C_5  and  C_6
REMARK    2  A    between atoms: C_16  and  C_18
REMARK                            x       y       z     vdW  Elec       q    Type
REMARK                         _______ _______ _______ _____ _____    ______ ____
ROOT
ATOM      1  C   UNL     1      -0.499  -1.261  -1.144  0.00  0.00    +0.118 C 
ATOM      2  N   UNL     1      -1.581  -1.074  -1.859  0.00  0.00    -0.150 NA
ATOM      3  N   UNL     1      -2.284  -2.260  -2.068  0.00  0.00    -0.157 NA
ATOM      4  C   UNL     1      -1.730  -3.259  -1.493  0.00  0.00    +0.053 C 
ATOM      5  C   UNL     1      -0.421  -2.747  -0.901  0.00  0.00    +0.107 C 
ATOM      6  C   UNL     1      -0.467  -3.093   0.591  0.00  0.00    +0.124 C 
ATOM      7  N   UNL     1      -0.827  -4.516   0.706  0.00  0.00    -0.296 N 
ATOM      8  C   UNL     1      -2.089  -5.021   0.156  0.00  0.00    +0.114 C 
ATOM      9  C   UNL     1      -2.170  -4.693  -1.341  0.00  0.00    +0.072 C 
ATOM     10  C   UNL     1       0.016  -5.366   1.324  0.00  0.00    +0.253 C 
ATOM     11  O   UNL     1       1.112  -4.981   1.687  0.00  0.00    -0.269 OA
ENDROOT
BRANCH  10  12
ATOM     12  C   UNL     1      -0.387  -6.756   1.559  0.00  0.00    +0.075 A 
ATOM     13  C   UNL     1       0.401  -7.885   1.665  0.00  0.00    +0.024 A 
ATOM     14  C   UNL     1      -0.254  -9.093   1.892  0.00  0.00    -0.036 A 
ATOM     15  C   UNL     1      -1.609  -9.040   1.984  0.00  0.00    -0.006 A 
ATOM     16  S   UNL     1      -2.020  -7.430   1.791  0.00  0.00    -0.088 S 
ATOM     17  C   UNL     1      -2.559 -10.177   2.215  0.00  0.00    +0.043 C 
ATOM     18  C   UNL     1      -1.855 -11.277   3.018  0.00  0.00    +0.005 C 
ATOM     19  C   UNL     1      -1.176 -12.233   2.043  0.00  0.00    +0.001 C 
ATOM     20  C   UNL     1      -0.134 -11.495   1.206  0.00  0.00    +0.005 C 
ATOM     21  C   UNL     1       0.528 -10.395   2.028  0.00  0.00    +0.036 C 
ENDBRANCH  10  12
BRANCH   1  26
ATOM     22  C   UNL     1       0.355   1.105  -0.915  0.00  0.00    +0.074 A 
ATOM     23  C   UNL     1       1.454   1.722  -0.302  0.00  0.00    +0.157 A 
ATOM     24  N   UNL     1       2.175   0.800   0.274  0.00  0.00    -0.086 NA
ATOM     25  O   UNL     1       1.557  -0.453   0.047  0.00  0.00    -0.353 OA
ATOM     26  C   UNL     1       0.444  -0.239  -0.683  0.00  0.00    +0.184 A 
ENDBRANCH   1  26
TORSDOF 2
