REMARK  Name = ZINC00634005
REMARK  5 active torsions:
REMARK  status: ('A' for Active; 'I' for Inactive)
REMARK    1  A    between atoms: C_1  and  C_2
REMARK    2  A    between atoms: C_5  and  C_8
REMARK    3  A    between atoms: C_26  and  C_28
REMARK    4  A    between atoms: C_31  and  O_34
REMARK    5  A    between atoms: O_34  and  C_35
REMARK                            x       y       z     vdW  Elec       q    Type
REMARK                         _______ _______ _______ _____ _____    ______ ____
ROOT
ATOM      1  C   UNL     1       0.017  -4.238   0.051  0.00  0.00    +0.234 C 
ATOM      2  C   UNL     1      -1.368  -4.779   0.248  0.00  0.00    +0.027 C 
ATOM      3  C   UNL     1      -1.838  -5.030   1.488  0.00  0.00    +0.083 C 
ATOM      4  C   UNL     1      -0.930  -4.761   2.631  0.00  0.00    +0.044 A 
ATOM      5  C   UNL     1      -1.407  -4.671   3.931  0.00  0.00    +0.033 A 
ATOM      6  C   UNL     1      -0.526  -4.417   4.966  0.00  0.00    +0.042 A 
ATOM      7  C   UNL     1       0.824  -4.253   4.707  0.00  0.00    +0.023 A 
ATOM      8  C   UNL     1       1.307  -4.341   3.414  0.00  0.00    +0.048 A 
ATOM      9  C   UNL     1       0.436  -4.595   2.369  0.00  0.00    +0.131 A 
ATOM     10  O   UNL     1       0.880  -4.693   1.094  0.00  0.00    -0.479 OA
ATOM     11 CL   UNL     1      -1.114  -4.304   6.596  0.00  0.00    -0.084 Cl
ATOM     12  N   UNL     1      -3.090  -5.512   1.687  0.00  0.00    -0.213 NA
ATOM     13  C   UNL     1      -3.941  -5.782   0.726  0.00  0.00    +0.237 C 
ATOM     14  N   UNL     1      -5.204  -6.263   0.748  0.00  0.00    -0.205 NA
ATOM     15  C   UNL     1      -5.668  -6.375  -0.467  0.00  0.00    +0.203 C 
ATOM     16  N   UNL     1      -4.719  -5.969  -1.355  0.00  0.00    -0.251 N 
ATOM     17  N   UNL     1      -3.609  -5.585  -0.600  0.00  0.00    -0.208 N 
ATOM     18  C   UNL     1      -2.278  -5.059  -0.928  0.00  0.00    +0.159 C 
ATOM     19  H   UNL     1      -4.799  -5.950  -2.321  0.00  0.00    +0.171 HD
ENDROOT
BRANCH   1  24
ATOM     20  C   UNL     1      -0.165   1.538   0.102  0.00  0.00    +0.044 C 
ATOM     21  C   UNL     1      -0.118   0.032   0.088  0.00  0.00    -0.050 A 
ATOM     22  C   UNL     1       0.099  -0.642  -1.099  0.00  0.00    +0.004 A 
ATOM     23  C   UNL     1       0.143  -2.024  -1.111  0.00  0.00    +0.008 A 
ATOM     24  C   UNL     1      -0.030  -2.732   0.064  0.00  0.00    -0.003 A 
ATOM     25  C   UNL     1      -0.246  -2.057   1.251  0.00  0.00    +0.008 A 
ATOM     26  C   UNL     1      -0.285  -0.676   1.264  0.00  0.00    +0.004 A 
ENDBRANCH   1  24
BRANCH  18  27
ATOM     27  C   UNL     1      -2.455  -3.778  -1.701  0.00  0.00    -0.021 A 
ATOM     28  C   UNL     1      -3.236  -2.762  -1.182  0.00  0.00    +0.009 A 
ATOM     29  C   UNL     1      -3.401  -1.586  -1.889  0.00  0.00    +0.046 A 
ATOM     30  C   UNL     1      -2.782  -1.426  -3.120  0.00  0.00    +0.120 A 
ATOM     31  C   UNL     1      -1.999  -2.448  -3.638  0.00  0.00    +0.046 A 
ATOM     32  C   UNL     1      -1.833  -3.619  -2.925  0.00  0.00    +0.009 A 
BRANCH  30  33
ATOM     33  O   UNL     1      -2.943  -0.271  -3.818  0.00  0.00    -0.495 OA
ATOM     34  C   UNL     1      -2.276  -0.176  -5.078  0.00  0.00    +0.277 C 
ENDBRANCH  30  33
ENDBRANCH  18  27
TORSDOF 3
