REMARK  Name = ZINC39364671
REMARK  9 active torsions:
REMARK  status: ('A' for Active; 'I' for Inactive)
REMARK    1  A    between atoms: C_1  and  C_2
REMARK    2  A    between atoms: C_2  and  C_3
REMARK    3  A    between atoms: C_3  and  C_4
REMARK    4  A    between atoms: C_4  and  N_5
REMARK    5  A    between atoms: N_5  and  C_6
REMARK    6  A    between atoms: N_5  and  C_7
REMARK    7  A    between atoms: C_16  and  O_18
REMARK    8  A    between atoms: N_21  and  C_24
REMARK    9  A    between atoms: C_24  and  C_25
REMARK                            x       y       z     vdW  Elec       q    Type
REMARK                         _______ _______ _______ _____ _____    ______ ____
ROOT
ATOM      1  C   UNL     1       1.381  -4.229   2.538  0.00  0.00    -0.008 C 
ATOM      2  C   UNL     1      -0.073  -4.650   2.555  0.00  0.00    -0.055 A 
ATOM      3  C   UNL     1      -0.984  -4.771   1.520  0.00  0.00    +0.002 A 
ATOM      4  C   UNL     1      -2.279  -5.177   1.776  0.00  0.00    +0.000 A 
ATOM      5  C   UNL     1      -2.667  -5.466   3.071  0.00  0.00    +0.000 A 
ATOM      6  C   UNL     1      -1.760  -5.348   4.105  0.00  0.00    +0.004 A 
ATOM      7  C   UNL     1      -0.460  -4.941   3.851  0.00  0.00    -0.037 A 
ATOM      8  C   UNL     1       0.708  -4.740   4.785  0.00  0.00    +0.017 C 
ATOM      9  C   UNL     1       1.960  -4.708   3.887  0.00  0.00    +0.116 C 
ATOM     10  C   UNL     1       0.569  -3.417   5.535  0.00  0.00    -0.005 C 
ATOM     11  C   UNL     1       1.740  -3.264   6.510  0.00  0.00    -0.078 C 
ATOM     12  N   UNL     1       1.741  -4.385   7.457  0.00  0.00    +0.382 N 
ATOM     13  C   UNL     1       1.966  -5.645   6.739  0.00  0.00    -0.078 C 
ATOM     14  C   UNL     1       0.804  -5.899   5.774  0.00  0.00    -0.005 C 
ATOM     15  H   UNL     1       0.852  -4.424   7.932  0.00  0.00    -0.082 HD
ENDROOT
BRANCH   1  16
ATOM     16  N   UNL     1       1.487  -2.767   2.429  0.00  0.00    +0.384 N 
ATOM     17  C   UNL     1       2.904  -2.380   2.401  0.00  0.00    -0.095 C 
ATOM     18  H   UNL     1       1.036  -2.337   3.222  0.00  0.00    -0.081 HD
BRANCH  16  19
ATOM     19  C   UNL     1       0.833  -2.320   1.192  0.00  0.00    -0.078 C 
BRANCH  19  20
ATOM     20  C   UNL     1       0.833  -0.791   1.139  0.00  0.00    -0.019 C 
BRANCH  20  22
ATOM     21  C   UNL     1       0.152   1.204  -0.202  0.00  0.00    +0.004 C 
ATOM     22  C   UNL     1       0.152  -0.325  -0.149  0.00  0.00    -0.005 C 
ENDBRANCH  20  22
ENDBRANCH  19  20
ENDBRANCH  16  19
ENDBRANCH   1  16
BRANCH   9  23
ATOM     23  O   UNL     1       2.529  -6.013   3.760  0.00  0.00    -0.392 OA
ATOM     24  H   UNL     1       3.265  -6.063   3.135  0.00  0.00    +0.210 HD
ENDBRANCH   9  23
BRANCH  12  25
ATOM     25  C   UNL     1       2.811  -4.189   8.444  0.00  0.00    -0.028 C 
BRANCH  25  26
ATOM     26  C   UNL     1       2.414  -3.072   9.412  0.00  0.00    +0.204 C 
ATOM     27  N   UNL     1       1.068  -3.319   9.944  0.00  0.00    -0.266 NA
ATOM     28  C   UNL     1       0.328  -2.322   9.589  0.00  0.00    +0.126 C 
ATOM     29  C   UNL     1       1.126  -1.363   8.810  0.00  0.00    +0.126 C 
ATOM     30  N   UNL     1       2.339  -1.789   8.701  0.00  0.00    -0.266 NA
ENDBRANCH  25  26
ENDBRANCH  12  25
TORSDOF 7
