REMARK  Name = ZINC35376681
REMARK  6 active torsions:
REMARK  status: ('A' for Active; 'I' for Inactive)
REMARK    1  A    between atoms: C_1  and  C_2
REMARK    2  A    between atoms: C_5  and  C_8
REMARK    3  A    between atoms: C_8  and  N_9
REMARK    4  A    between atoms: N_12  and  C_17
REMARK    5  A    between atoms: N_20  and  S_23
REMARK    6  A    between atoms: S_23  and  C_26
REMARK                            x       y       z     vdW  Elec       q    Type
REMARK                         _______ _______ _______ _____ _____    ______ ____
ROOT
ATOM      1  N   UNL     1       1.447  -4.746  -0.032  0.00  0.00    -0.288 N 
ATOM      2  C   UNL     1       2.133  -4.968  -1.305  0.00  0.00    +0.127 C 
ATOM      3  C   UNL     1       3.596  -4.545  -1.206  0.00  0.00    +0.127 C 
ATOM      4  N   UNL     1       4.232  -5.168  -0.045  0.00  0.00    -0.289 N 
ATOM      5  C   UNL     1       3.543  -5.323   1.104  0.00  0.00    +0.302 C 
ATOM      6  O   UNL     1       4.096  -5.738   2.102  0.00  0.00    -0.265 OA
ATOM      7  C   UNL     1       2.090  -4.968   1.132  0.00  0.00    +0.302 C 
ATOM      8  O   UNL     1       1.498  -4.886   2.188  0.00  0.00    -0.265 OA
ENDROOT
BRANCH   4   9
ATOM      9  C   UNL     1       5.621  -5.626  -0.131  0.00  0.00    +0.079 C 
ATOM     10  C   UNL     1       5.679  -7.132   0.137  0.00  0.00    +0.039 C 
ATOM     11  C   UNL     1       7.128  -7.614   0.012  0.00  0.00    +0.111 C 
ATOM     12  N   UNL     1       7.972  -6.809   0.905  0.00  0.00    -0.176 NA
ATOM     13  C   UNL     1       7.925  -5.345   0.794  0.00  0.00    +0.111 C 
ATOM     14  C   UNL     1       6.467  -4.889   0.910  0.00  0.00    +0.039 C 
BRANCH  12  15
ATOM     15  S   UNL     1       8.959  -7.539   2.018  0.00  0.00    +0.067 S 
ATOM     16  O   UNL     1       9.186  -6.586   3.046  0.00  0.00    -0.152 OA
ATOM     17  O   UNL     1       8.401  -8.820   2.276  0.00  0.00    -0.152 OA
BRANCH  15  18
ATOM     18  C   UNL     1      10.513  -7.815   1.234  0.00  0.00    +0.144 A 
ATOM     19  C   UNL     1      11.599  -7.006   1.185  0.00  0.00    +0.038 A 
ATOM     20  C   UNL     1      12.724  -7.434   0.504  0.00  0.00    +0.030 A 
ATOM     21  C   UNL     1      12.706  -8.651  -0.094  0.00  0.00    +0.080 A 
ATOM     22  S   UNL     1      11.067  -9.235   0.306  0.00  0.00    -0.057 S 
ATOM     23 CL   UNL     1      13.955  -9.439  -1.007  0.00  0.00    -0.076 Cl
ENDBRANCH  15  18
ENDBRANCH  12  15
ENDBRANCH   4   9
BRANCH   1  24
ATOM     24  C   UNL     1       0.059  -4.275  -0.021  0.00  0.00    +0.143 C 
BRANCH  24  29
ATOM     25  C   UNL     1      -0.018   1.503   0.010  0.00  0.00    +0.044 C 
ATOM     26  C   UNL     1       0.002  -0.004   0.002  0.00  0.00    -0.050 A 
ATOM     27  C   UNL     1       0.006  -0.689  -1.199  0.00  0.00    +0.003 A 
ATOM     28  C   UNL     1       0.025  -2.071  -1.206  0.00  0.00    +0.005 A 
ATOM     29  C   UNL     1       0.040  -2.768  -0.013  0.00  0.00    -0.030 A 
ATOM     30  C   UNL     1       0.037  -2.084   1.188  0.00  0.00    +0.005 A 
ATOM     31  C   UNL     1       0.023  -0.702   1.195  0.00  0.00    +0.003 A 
ENDBRANCH  24  29
ENDBRANCH   1  24
TORSDOF 5
