REMARK  Name = ZINC28121258
REMARK  10 active torsions:
REMARK  status: ('A' for Active; 'I' for Inactive)
REMARK    1  A    between atoms: C_1  and  C_2
REMARK    2  A    between atoms: C_2  and  C_3
REMARK    3  A    between atoms: C_2  and  C_4
REMARK    4  A    between atoms: C_5  and  C_26
REMARK    5  A    between atoms: C_11  and  O_25
REMARK    6  A    between atoms: C_12  and  C_15
REMARK    7  A    between atoms: C_15  and  N_16
REMARK    8  A    between atoms: N_19  and  C_22
REMARK    9  A    between atoms: C_22  and  C_23
REMARK   10  A    between atoms: C_23  and  O_24
REMARK                            x       y       z     vdW  Elec       q    Type
REMARK                         _______ _______ _______ _____ _____    ______ ____
ROOT
ATOM      1  C   UNL     1      -2.511   2.608   0.670  0.00  0.00    +0.122 A 
ATOM      2  C   UNL     1      -2.467   3.958   0.845  0.00  0.00    +0.093 A 
ATOM      3  C   UNL     1      -1.163   4.640   0.751  0.00  0.00    +0.202 A 
ATOM      4  O   UNL     1      -1.061   5.846   0.899  0.00  0.00    -0.286 OA
ATOM      5  C   UNL     1       0.010   3.793   0.470  0.00  0.00    +0.065 A 
ATOM      6  C   UNL     1       1.289   4.342   0.362  0.00  0.00    +0.019 A 
ATOM      7  C   UNL     1       2.355   3.529   0.102  0.00  0.00    +0.046 A 
ATOM      8  C   UNL     1       2.171   2.157  -0.057  0.00  0.00    +0.122 A 
ATOM      9  C   UNL     1       0.909   1.598   0.048  0.00  0.00    +0.020 A 
ATOM     10  C   UNL     1      -0.187   2.411   0.307  0.00  0.00    +0.144 A 
ATOM     11  O   UNL     1      -1.422   1.882   0.417  0.00  0.00    -0.458 OA
ENDROOT
BRANCH   2  12
ATOM     12  C   UNL     1      -3.699   4.722   1.124  0.00  0.00    +0.116 A 
ATOM     13  N   UNL     1      -4.931   4.280   1.264  0.00  0.00    -0.239 NA
ATOM     14  C   UNL     1      -5.968   5.100   1.525  0.00  0.00    +0.079 A 
ATOM     15  C   UNL     1      -7.330   4.757   1.701  0.00  0.00    +0.029 A 
ATOM     16  C   UNL     1      -8.263   5.714   1.954  0.00  0.00    +0.002 A 
ATOM     17  C   UNL     1      -7.922   7.056   2.048  0.00  0.00    +0.001 A 
ATOM     18  C   UNL     1      -6.603   7.434   1.881  0.00  0.00    +0.017 A 
ATOM     19  C   UNL     1      -5.653   6.476   1.626  0.00  0.00    +0.040 A 
ATOM     20  S   UNL     1      -3.898   6.484   1.349  0.00  0.00    -0.067 S 
ENDBRANCH   2  12
BRANCH   1  22
ATOM     21  C   UNL     1      -4.481   1.836  -0.624  0.00  0.00    +0.015 C 
ATOM     22  C   UNL     1      -3.843   1.908   0.765  0.00  0.00    +0.050 C 
ATOM     23  C   UNL     1      -3.637   0.492   1.306  0.00  0.00    +0.015 C 
ENDBRANCH   1  22
BRANCH   8  24
ATOM     24  O   UNL     1       3.240   1.361  -0.316  0.00  0.00    -0.506 OA
ATOM     25  H   UNL     1       3.100   0.277  -0.442  0.00  0.00    +0.292 HD
ENDBRANCH   8  24
BRANCH   9  26
ATOM     26  C   UNL     1       0.723   0.113  -0.125  0.00  0.00    -0.035 C 
BRANCH  26  27
ATOM     27  N   UNL     1       0.856  -0.552   1.177  0.00  0.00    +0.384 N 
ATOM     28  C   UNL     1       2.228  -0.432   1.692  0.00  0.00    -0.063 C 
ATOM     29  C   UNL     1       2.305  -1.067   3.083  0.00  0.00    +0.066 C 
ATOM     30  N   UNL     1       1.899  -2.477   2.998  0.00  0.00    -0.304 NA
ATOM     31  C   UNL     1       0.528  -2.597   2.483  0.00  0.00    +0.066 C 
ATOM     32  C   UNL     1       0.450  -1.962   1.093  0.00  0.00    -0.063 C 
ATOM     33  H   UNL     1       0.183  -0.047   1.885  0.00  0.00    -0.081 HD
BRANCH  30  34
ATOM     34  C   UNL     1       2.032  -3.143   4.301  0.00  0.00    +0.112 C 
BRANCH  34  35
ATOM     35  C   UNL     1       2.096  -4.657   4.095  0.00  0.00    +0.171 C 
BRANCH  35  36
ATOM     36  O   UNL     1       3.274  -4.989   3.357  0.00  0.00    -0.394 OA
ATOM     37  H   UNL     1       3.491  -6.039   3.111  0.00  0.00    +0.209 HD
ENDBRANCH  35  36
ENDBRANCH  34  35
ENDBRANCH  30  34
ENDBRANCH  26  27
ENDBRANCH   9  26
TORSDOF 8
