REMARK  Name = ZINC40530194
REMARK  15 active torsions:
REMARK  status: ('A' for Active; 'I' for Inactive)
REMARK    1  A    between atoms: C_1  and  C_2
REMARK    2  A    between atoms: C_2  and  O_3
REMARK    3  A    between atoms: O_3  and  C_4
REMARK    4  A    between atoms: C_8  and  C_10
REMARK    5  A    between atoms: C_15  and  O_24
REMARK    6  A    between atoms: C_19  and  N_23
REMARK    7  A    between atoms: C_20  and  C_21
REMARK    8  A    between atoms: O_24  and  C_25
REMARK    9  A    between atoms: C_25  and  C_27
REMARK   10  A    between atoms: C_27  and  C_29
REMARK   11  A    between atoms: C_27  and  O_30
REMARK   12  A    between atoms: O_30  and  C_31
REMARK   13  A    between atoms: C_34  and  C_37
REMARK   14  A    between atoms: C_37  and  C_38
REMARK   15  A    between atoms: C_37  and  C_39
REMARK                            x       y       z     vdW  Elec       q    Type
REMARK                         _______ _______ _______ _____ _____    ______ ____
ROOT
ATOM      1  C   UNL     1      -4.239  -4.595   0.173  0.00  0.00    +0.098 C 
ATOM      2  C   UNL     1      -4.447  -5.375  -1.098  0.00  0.00    +0.008 A 
ATOM      3  C   UNL     1      -4.770  -4.702  -2.264  0.00  0.00    +0.012 A 
ATOM      4  C   UNL     1      -4.963  -5.401  -3.439  0.00  0.00    +0.047 A 
ATOM      5  C   UNL     1      -4.834  -6.782  -3.454  0.00  0.00    +0.135 A 
ATOM      6  C   UNL     1      -4.511  -7.458  -2.289  0.00  0.00    +0.093 A 
ATOM      7  C   UNL     1      -4.316  -6.754  -1.108  0.00  0.00    +0.138 A 
ATOM      8  O   UNL     1      -4.000  -7.431   0.024  0.00  0.00    -0.441 OA
ATOM      9  C   UNL     1      -4.184  -6.854   1.223  0.00  0.00    +0.199 C 
ATOM     10  C   UNL     1      -4.304  -5.515   1.360  0.00  0.00    +0.098 C 
ENDROOT
BRANCH   1  15
ATOM     11  C   UNL     1      -1.557  -1.933   0.172  0.00  0.00    +0.121 A 
ATOM     12  C   UNL     1      -0.407  -2.702   0.060  0.00  0.00    +0.045 A 
ATOM     13  C   UNL     1      -0.503  -4.078  -0.014  0.00  0.00    +0.004 A 
ATOM     14  C   UNL     1      -1.743  -4.689   0.023  0.00  0.00    +0.005 A 
ATOM     15  C   UNL     1      -2.890  -3.925   0.134  0.00  0.00    -0.031 A 
ATOM     16  C   UNL     1      -2.799  -2.549   0.214  0.00  0.00    +0.050 A 
BRANCH  11  17
ATOM     17  O   UNL     1      -1.466  -0.579   0.245  0.00  0.00    -0.492 OA
BRANCH  17  19
ATOM     18  C   UNL     1      -0.253   1.510   0.291  0.00  0.00    +0.048 C 
ATOM     19  C   UNL     1      -0.155  -0.013   0.196  0.00  0.00    +0.225 C 
ENDBRANCH  17  19
ENDBRANCH  11  17
ENDBRANCH   1  15
BRANCH   9  20
ATOM     20  N   UNL     1      -4.253  -7.647   2.341  0.00  0.00    -0.328 N 
ATOM     21  H   UNL     1      -4.168  -8.610   2.258  0.00  0.00    +0.145 HD
ATOM     22  H   UNL     1      -4.385  -7.246   3.214  0.00  0.00    +0.145 HD
ENDBRANCH   9  20
BRANCH  10  23
ATOM     23  C   UNL     1      -4.497  -4.962   2.667  0.00  0.00    +0.101 C 
ATOM     24  N   UNL     1      -4.650  -4.524   3.703  0.00  0.00    -0.191 NA
ENDBRANCH  10  23
BRANCH   5  25
ATOM     25  O   UNL     1      -5.025  -7.471  -4.610  0.00  0.00    -0.423 OA
BRANCH  25  26
ATOM     26  C   UNL     1      -6.091  -8.284  -4.691  0.00  0.00    +0.353 C 
ATOM     27  O   UNL     1      -6.899  -8.312  -3.792  0.00  0.00    -0.246 OA
BRANCH  26  28
ATOM     28  C   UNL     1      -6.280  -9.161  -5.902  0.00  0.00    +0.279 C 
ATOM     29  C   UNL     1      -5.148 -10.188  -5.969  0.00  0.00    +0.064 C 
BRANCH  28  30
ATOM     30  O   UNL     1      -7.534  -9.839  -5.807  0.00  0.00    -0.478 OA
BRANCH  30  31
ATOM     31  C   UNL     1      -8.086 -10.279  -6.968  0.00  0.00    +0.122 A 
ATOM     32  C   UNL     1      -9.267 -11.008  -6.944  0.00  0.00    +0.046 A 
ATOM     33  C   UNL     1      -9.827 -11.453  -8.126  0.00  0.00    +0.007 A 
ATOM     34  C   UNL     1      -9.211 -11.174  -9.332  0.00  0.00    -0.045 A 
ATOM     35  C   UNL     1      -8.034 -10.449  -9.359  0.00  0.00    +0.007 A 
ATOM     36  C   UNL     1      -7.474  -9.996  -8.181  0.00  0.00    +0.046 A 
BRANCH  34  37
ATOM     37  C   UNL     1      -9.824 -11.662 -10.620  0.00  0.00    +0.013 C 
ATOM     38  C   UNL     1     -10.147 -10.465 -11.516  0.00  0.00    +0.012 C 
ATOM     39  C   UNL     1      -8.836 -12.584 -11.337  0.00  0.00    +0.012 C 
ENDBRANCH  34  37
ENDBRANCH  30  31
ENDBRANCH  28  30
ENDBRANCH  26  28
ENDBRANCH  25  26
ENDBRANCH   5  25
TORSDOF 11
