REMARK  Name = ZINC39710326
REMARK  10 active torsions:
REMARK  status: ('A' for Active; 'I' for Inactive)
REMARK    1  A    between atoms: C_1  and  C_2
REMARK    2  A    between atoms: C_9  and  C_14
REMARK    3  A    between atoms: C_14  and  C_16
REMARK    4  A    between atoms: C_14  and  N_27
REMARK    5  A    between atoms: N_21  and  C_22
REMARK    6  A    between atoms: N_27  and  C_28
REMARK    7  A    between atoms: N_27  and  C_36
REMARK    8  A    between atoms: C_28  and  C_29
REMARK    9  A    between atoms: C_29  and  C_30
REMARK   10  A    between atoms: C_36  and  C_37
REMARK                            x       y       z     vdW  Elec       q    Type
REMARK                         _______ _______ _______ _____ _____    ______ ____
ROOT
ATOM      1  C   UNL     1      -0.838  -4.555   2.643  0.00  0.00    +0.115 C 
ENDROOT
BRANCH   1  10
ATOM      2  C   UNL     1       5.961  -2.454   3.253  0.00  0.00    +0.044 C 
ATOM      3  C   UNL     1       4.515  -2.244   2.883  0.00  0.00    -0.050 A 
ATOM      4  C   UNL     1       4.010  -0.946   2.812  0.00  0.00    +0.005 A 
ATOM      5  C   UNL     1       2.718  -0.679   2.485  0.00  0.00    +0.024 A 
ATOM      6  C   UNL     1       1.823  -1.725   2.199  0.00  0.00    +0.040 A 
ATOM      7  N   UNL     1       0.558  -1.451   1.879  0.00  0.00    -0.284 N 
ATOM      8  C   UNL     1      -0.335  -2.386   1.599  0.00  0.00    +0.226 C 
ATOM      9  O   UNL     1      -1.476  -2.074   1.314  0.00  0.00    -0.275 OA
ATOM     10  C   UNL     1       0.068  -3.843   1.636  0.00  0.00    +0.119 C 
ATOM     11  C   UNL     1       1.505  -4.160   1.999  0.00  0.00    -0.003 C 
ATOM     12  C   UNL     1       2.329  -3.107   2.266  0.00  0.00    -0.007 A 
ATOM     13  C   UNL     1       3.733  -3.323   2.620  0.00  0.00    +0.012 A 
ATOM     14  H   UNL     1       0.280  -0.522   1.850  0.00  0.00    +0.155 HD
ENDBRANCH   1  10
BRANCH   1  15
ATOM     15  C   UNL     1      -0.484  -6.043   2.684  0.00  0.00    +0.235 C 
ATOM     16  N   UNL     1      -0.620  -6.639   1.348  0.00  0.00    -0.148 NA
ATOM     17  N   UNL     1      -1.476  -7.526   1.392  0.00  0.00    -0.069 NA
ATOM     18  N   UNL     1      -2.031  -7.680   2.662  0.00  0.00    -0.179 N 
ATOM     19  N   UNL     1      -1.452  -6.781   3.522  0.00  0.00    -0.182 NA
ATOM     20  H   UNL     1      -2.719  -8.322   2.900  0.00  0.00    +0.191 HD
BRANCH  19  21
ATOM     21  C   UNL     1      -0.774  -7.469   4.628  0.00  0.00    +0.080 C 
ATOM     22  C   UNL     1       0.204  -8.525   4.073  0.00  0.00    +0.021 C 
ATOM     23  C   UNL     1       0.097  -9.704   5.072  0.00  0.00    +0.002 C 
ATOM     24  C   UNL     1      -1.412  -9.720   5.422  0.00  0.00    +0.002 C 
ATOM     25  C   UNL     1      -1.801  -8.229   5.486  0.00  0.00    +0.021 C 
ENDBRANCH  19  21
ENDBRANCH   1  15
BRANCH   1  26
ATOM     26  N   UNL     1      -2.241  -4.396   2.237  0.00  0.00    -0.290 NA
BRANCH  26  27
ATOM     27  C   UNL     1      -2.543  -5.216   1.056  0.00  0.00    +0.090 C 
BRANCH  27  28
ATOM     28  C   UNL     1      -3.749  -4.627   0.322  0.00  0.00    +0.050 C 
BRANCH  28  29
ATOM     29  C   UNL     1      -4.114  -5.516  -0.839  0.00  0.00    -0.046 A 
ATOM     30  C   UNL     1      -3.541  -5.304  -2.079  0.00  0.00    +0.003 A 
ATOM     31  C   UNL     1      -3.876  -6.119  -3.144  0.00  0.00    +0.000 A 
ATOM     32  C   UNL     1      -4.783  -7.147  -2.968  0.00  0.00    +0.000 A 
ATOM     33  C   UNL     1      -5.356  -7.360  -1.728  0.00  0.00    +0.000 A 
ATOM     34  C   UNL     1      -5.018  -6.547  -0.662  0.00  0.00    +0.003 A 
ENDBRANCH  28  29
ENDBRANCH  27  28
ENDBRANCH  26  27
BRANCH  26  35
ATOM     35  C   UNL     1      -3.149  -4.716   3.346  0.00  0.00    +0.127 C 
BRANCH  35  36
ATOM     36  C   UNL     1      -3.146  -3.584   4.341  0.00  0.00    +0.004 A 
ATOM     37  C   UNL     1      -3.970  -2.511   4.415  0.00  0.00    +0.012 A 
ATOM     38  C   UNL     1      -3.779  -1.587   5.425  0.00  0.00    +0.008 A 
ATOM     39  C   UNL     1      -2.773  -1.782   6.312  0.00  0.00    +0.045 A 
ATOM     40  S   UNL     1      -2.060  -3.312   5.732  0.00  0.00    -0.100 S 
ENDBRANCH  35  36
ENDBRANCH  26  35
ENDBRANCH   1  26
TORSDOF 9
