REMARK  Name = ZINC61952733
REMARK  6 active torsions:
REMARK  status: ('A' for Active; 'I' for Inactive)
REMARK    1  A    between atoms: C_1  and  N_2
REMARK    2  A    between atoms: N_2  and  C_3
REMARK    3  A    between atoms: N_2  and  S_13
REMARK    4  A    between atoms: C_6  and  C_9
REMARK    5  A    between atoms: N_10  and  O_11
REMARK    6  A    between atoms: S_13  and  C_16
REMARK                            x       y       z     vdW  Elec       q    Type
REMARK                         _______ _______ _______ _____ _____    ______ ____
ROOT
ATOM      1  C   UNL     1       0.023  -0.707   1.205  0.00  0.00    +0.051 A 
ATOM      2  C   UNL     1       0.556  -1.992   1.249  0.00  0.00    +0.025 A 
ATOM      3  C   UNL     1       0.577  -2.689   2.437  0.00  0.00    +0.013 A 
ATOM      4  C   UNL     1       0.064  -2.106   3.597  0.00  0.00    +0.018 A 
ATOM      5  C   UNL     1      -0.469  -0.817   3.550  0.00  0.00    +0.013 A 
ATOM      6  C   UNL     1      -0.483  -0.121   2.361  0.00  0.00    +0.025 A 
ENDROOT
BRANCH   4   7
ATOM      7  C   UNL     1       0.086  -2.852   4.873  0.00  0.00    +0.162 C 
ATOM      8  N   UNL     1       0.583  -4.054   4.916  0.00  0.00    -0.072 NA
ATOM      9  N   UNL     1      -0.423  -2.272   6.023  0.00  0.00    -0.340 N 
ATOM     10  H   UNL     1      -0.794  -1.377   5.992  0.00  0.00    +0.144 HD
ATOM     11  H   UNL     1      -0.409  -2.762   6.860  0.00  0.00    +0.144 HD
BRANCH   8  12
ATOM     12  O   UNL     1       0.603  -4.769   6.138  0.00  0.00    -0.408 OA
ATOM     13  H   UNL     1       0.992  -5.652   6.071  0.00  0.00    +0.328 HD
ENDBRANCH   8  12
ENDBRANCH   4   7
BRANCH   1  15
ATOM     14  C   UNL     1      -0.018   1.461   0.010  0.00  0.00    +0.157 C 
ATOM     15  N   UNL     1       0.002  -0.004   0.002  0.00  0.00    -0.206 N 
BRANCH  15  16
ATOM     16  S   UNL     1      -0.000  -0.824  -1.437  0.00  0.00    +0.082 S 
ATOM     17  O   UNL     1      -0.531  -2.115  -1.167  0.00  0.00    -0.149 OA
ATOM     18  O   UNL     1      -0.572   0.049  -2.401  0.00  0.00    -0.149 OA
BRANCH  16  19
ATOM     19  C   UNL     1       1.682  -1.059  -1.905  0.00  0.00    +0.160 A 
ATOM     20  C   UNL     1       2.184  -1.671  -3.006  0.00  0.00    +0.052 A 
ATOM     21  C   UNL     1       3.555  -1.738  -3.168  0.00  0.00    +0.025 A 
ATOM     22  C   UNL     1       4.357  -1.191  -2.222  0.00  0.00    +0.048 A 
ATOM     23  S   UNL     1       3.167  -0.547  -1.057  0.00  0.00    -0.076 S 
ATOM     24 BR   UNL     1       1.026  -2.421  -4.300  0.00  0.00    -0.048 Br
ENDBRANCH  16  19
ENDBRANCH  15  16
ENDBRANCH   1  15
TORSDOF 5
