REMARK  Name = ZINC09235397
REMARK  15 active torsions:
REMARK  status: ('A' for Active; 'I' for Inactive)
REMARK    1  A    between atoms: C_1  and  C_2
REMARK    2  A    between atoms: C_2  and  N_67
REMARK    3  A    between atoms: C_3  and  C_4
REMARK    4  A    between atoms: C_3  and  N_67
REMARK    5  A    between atoms: C_5  and  C_6
REMARK    6  A    between atoms: C_5  and  N_67
REMARK    7  A    between atoms: C_6  and  C_7
REMARK    8  A    between atoms: C_7  and  N_8
REMARK    9  A    between atoms: C_9  and  C_25
REMARK   10  A    between atoms: C_12  and  C_13
REMARK   11  A    between atoms: C_12  and  O_20
REMARK   12  A    between atoms: C_28  and  O_31
REMARK   13  A    between atoms: O_31  and  C_32
REMARK   14  A    between atoms: C_32  and  C_33
REMARK   15  A    between atoms: C_32  and  C_34
REMARK                            x       y       z     vdW  Elec       q    Type
REMARK                         _______ _______ _______ _____ _____    ______ ____
ROOT
ATOM      1  N   UNL     1      -0.718   3.514   0.927  0.00  0.00    -0.284 N 
ATOM      2  C   UNL     1      -1.053   2.353   0.098  0.00  0.00    +0.144 C 
ATOM      3  C   UNL     1      -1.331   2.878  -1.292  0.00  0.00    +0.071 C 
ATOM      4  C   UNL     1      -1.686   2.139  -2.402  0.00  0.00    +0.133 C 
ATOM      5  C   UNL     1      -1.154   4.270  -1.226  0.00  0.00    +0.249 C 
ATOM      6  O   UNL     1      -1.288   5.051  -2.150  0.00  0.00    -0.282 OA
ATOM      7  C   UNL     1      -0.774   4.623   0.168  0.00  0.00    +0.288 C 
ATOM      8  O   UNL     1      -0.548   5.748   0.564  0.00  0.00    -0.266 OA
ENDROOT
BRANCH   4   9
ATOM      9  C   UNL     1      -2.036   2.821  -3.660  0.00  0.00    +0.017 A 
ATOM     10  C   UNL     1      -2.948   3.881  -3.654  0.00  0.00    +0.013 A 
ATOM     11  C   UNL     1      -3.267   4.518  -4.834  0.00  0.00    +0.021 A 
ATOM     12  C   UNL     1      -2.694   4.104  -6.026  0.00  0.00    +0.041 A 
ATOM     13  C   UNL     1      -1.794   3.051  -6.040  0.00  0.00    +0.021 A 
ATOM     14  C   UNL     1      -1.461   2.408  -4.867  0.00  0.00    +0.013 A 
ATOM     15 CL   UNL     1      -3.106   4.908  -7.508  0.00  0.00    -0.084 Cl
ENDBRANCH   4   9
BRANCH   2  16
ATOM     16  C   UNL     1       0.106   1.391   0.064  0.00  0.00    -0.022 A 
ATOM     17  C   UNL     1       1.387   1.861  -0.165  0.00  0.00    +0.009 A 
ATOM     18  C   UNL     1       2.450   0.980  -0.203  0.00  0.00    +0.046 A 
ATOM     19  C   UNL     1       2.233  -0.376  -0.011  0.00  0.00    +0.121 A 
ATOM     20  C   UNL     1       0.948  -0.845   0.219  0.00  0.00    +0.046 A 
ATOM     21  C   UNL     1      -0.112   0.040   0.256  0.00  0.00    +0.009 A 
BRANCH  19  22
ATOM     22  O   UNL     1       3.278  -1.245  -0.048  0.00  0.00    -0.489 OA
BRANCH  22  23
ATOM     23  C   UNL     1       2.968  -2.637   0.040  0.00  0.00    +0.167 C 
ATOM     24  C   UNL     1       4.085  -3.451  -0.616  0.00  0.00    +0.051 C 
ATOM     25  C   UNL     1       2.841  -3.039   1.511  0.00  0.00    +0.051 C 
ENDBRANCH  22  23
ENDBRANCH  19  22
ENDBRANCH   2  16
BRANCH   4  26
ATOM     26  O   UNL     1      -1.712   0.791  -2.335  0.00  0.00    -0.506 OA
ATOM     27  H   UNL     1      -1.988   0.419  -3.221  0.00  0.00    +0.292 HD
ENDBRANCH   4  26
BRANCH   1  28
ATOM     28  C   UNL     1      -0.376   3.472   2.351  0.00  0.00    +0.107 C 
BRANCH  28  29
ATOM     29  C   UNL     1       1.145   3.441   2.510  0.00  0.00    +0.000 C 
BRANCH  29  30
ATOM     30  C   UNL     1       1.500   3.307   3.992  0.00  0.00    -0.077 C 
BRANCH  30  31
ATOM     31  N   UNL     1       2.969   3.377   4.136  0.00  0.00    +0.379 N 
ATOM     32  H   UNL     1       3.404   2.826   3.386  0.00  0.00    -0.082 HD
BRANCH  31  34
ATOM     33  C   UNL     1       4.950   4.801   3.952  0.00  0.00    -0.017 C 
ATOM     34  C   UNL     1       3.422   4.779   4.025  0.00  0.00    -0.082 C 
ENDBRANCH  31  34
BRANCH  31  35
ATOM     35  C   UNL     1       3.377   2.816   5.441  0.00  0.00    -0.082 C 
ATOM     36  C   UNL     1       3.326   1.289   5.356  0.00  0.00    -0.017 C 
ENDBRANCH  31  35
ENDBRANCH  30  31
ENDBRANCH  29  30
ENDBRANCH  28  29
ENDBRANCH   1  28
TORSDOF 11
