REMARK  Name = ZINC12973558
REMARK  6 active torsions:
REMARK  status: ('A' for Active; 'I' for Inactive)
REMARK    1  A    between atoms: C_1  and  C_2
REMARK    2  A    between atoms: C_3  and  C_21
REMARK    3  A    between atoms: C_4  and  C_20
REMARK    4  A    between atoms: C_7  and  C_8
REMARK    5  A    between atoms: C_8  and  C_10
REMARK    6  A    between atoms: C_21  and  C_23
REMARK                            x       y       z     vdW  Elec       q    Type
REMARK                         _______ _______ _______ _____ _____    ______ ____
ROOT
ATOM      1  C   UNL     1      -0.423  -0.419   2.463  0.00  0.00    +0.244 C 
ATOM      2  O   UNL     1      -0.497   0.766   2.734  0.00  0.00    -0.282 OA
ENDROOT
BRANCH   1   3
ATOM      3  C   UNL     1      -0.580  -1.427   3.521  0.00  0.00    +0.178 A 
ATOM      4  C   UNL     1      -0.815  -1.155   4.832  0.00  0.00    +0.062 A 
ATOM      5  C   UNL     1      -0.897  -2.450   5.506  0.00  0.00    +0.022 A 
ATOM      6  C   UNL     1      -1.116  -2.848   6.827  0.00  0.00    +0.027 A 
ATOM      7  C   UNL     1      -1.133  -4.178   7.140  0.00  0.00    +0.019 A 
ATOM      8  C   UNL     1      -0.936  -5.136   6.153  0.00  0.00    +0.019 A 
ATOM      9  C   UNL     1      -0.718  -4.763   4.844  0.00  0.00    +0.048 A 
ATOM     10  C   UNL     1      -0.696  -3.416   4.502  0.00  0.00    +0.136 A 
ATOM     11  O   UNL     1      -0.517  -2.762   3.337  0.00  0.00    -0.451 OA
ATOM     12 BR   UNL     1      -1.429  -4.720   8.928  0.00  0.00    -0.050 Br
ENDBRANCH   1   3
BRANCH   1  19
ATOM     13  C   UNL     1      -0.052   1.496   0.028  0.00  0.00    +0.047 C 
ATOM     14  C   UNL     1      -0.014  -0.011   0.008  0.00  0.00    -0.011 A 
ATOM     15  C   UNL     1       0.204  -0.833  -1.123  0.00  0.00    +0.041 A 
ATOM     16  C   UNL     1       0.158  -2.147  -0.683  0.00  0.00    +0.024 A 
ATOM     17  N   UNL     1      -0.074  -2.143   0.638  0.00  0.00    -0.355 N 
ATOM     18  H   UNL     1      -0.154  -2.932   1.196  0.00  0.00    +0.166 HD
ATOM     19  C   UNL     1      -0.177  -0.841   1.078  0.00  0.00    +0.094 A 
ATOM     20  C   UNL     1       0.337  -3.372  -1.543  0.00  0.00    +0.064 C 
BRANCH  15  21
ATOM     21  C   UNL     1       0.434  -0.381  -2.499  0.00  0.00    +0.162 C 
ATOM     22  O   UNL     1      -0.507  -0.185  -3.239  0.00  0.00    -0.292 OA
ATOM     23  C   UNL     1       1.840  -0.160  -2.994  0.00  0.00    +0.091 C 
ENDBRANCH  15  21
ENDBRANCH   1  19
TORSDOF 3
