REMARK  Name = ZINC15947653
REMARK  6 active torsions:
REMARK  status: ('A' for Active; 'I' for Inactive)
REMARK    1  A    between atoms: C_1  and  C_2
REMARK    2  A    between atoms: C_11  and  O_30
REMARK    3  A    between atoms: C_13  and  C_16
REMARK    4  A    between atoms: C_20  and  O_22
REMARK    5  A    between atoms: O_22  and  C_23
REMARK    6  A    between atoms: C_23  and  C_25
REMARK                            x       y       z     vdW  Elec       q    Type
REMARK                         _______ _______ _______ _____ _____    ______ ____
ROOT
ATOM      1  C   UNL     1      -0.608   1.066  -0.230  0.00  0.00    +0.008 C 
ATOM      2  C   UNL     1      -0.469  -0.457  -0.194  0.00  0.00    -0.009 C 
ATOM      3  C   UNL     1       0.293  -0.933  -1.434  0.00  0.00    +0.008 C 
ATOM      4  C   UNL     1       0.223  -2.458  -1.534  0.00  0.00    +0.037 C 
ATOM      5  C   UNL     1       0.671  -3.057  -0.208  0.00  0.00    -0.023 A 
ATOM      6  C   UNL     1       0.696  -2.313   0.921  0.00  0.00    -0.004 A 
ATOM      7  S   UNL     1       1.275  -3.420   2.178  0.00  0.00    -0.078 S 
ATOM      8  C   UNL     1       1.479  -4.789   1.266  0.00  0.00    +0.080 A 
ATOM      9  C   UNL     1       1.100  -4.433  -0.034  0.00  0.00    +0.068 A 
ATOM     10  C   UNL     1       1.167  -5.485  -1.080  0.00  0.00    +0.220 C 
ATOM     11  N   UNL     1       1.803  -6.588  -0.790  0.00  0.00    -0.223 NA
ATOM     12  C   UNL     1       2.504  -6.832   0.464  0.00  0.00    +0.224 C 
ATOM     13  N   UNL     1       1.919  -6.057   1.573  0.00  0.00    -0.313 N 
ATOM     14  C   UNL     1       0.310  -0.873   1.062  0.00  0.00    +0.046 C 
ATOM     15  H   UNL     1       1.848  -6.420   2.470  0.00  0.00    +0.149 HD
ENDROOT
BRANCH  12  16
ATOM     16  C   UNL     1       3.951  -6.442   0.303  0.00  0.00    -0.002 A 
ATOM     17  C   UNL     1       4.670  -5.989   1.394  0.00  0.00    +0.007 A 
ATOM     18  C   UNL     1       5.997  -5.630   1.250  0.00  0.00    +0.004 A 
ATOM     19  C   UNL     1       6.609  -5.724   0.014  0.00  0.00    +0.046 A 
ATOM     20  C   UNL     1       5.890  -6.178  -1.082  0.00  0.00    +0.132 A 
ATOM     21  C   UNL     1       4.559  -6.543  -0.933  0.00  0.00    +0.053 A 
BRANCH  20  22
ATOM     22  O   UNL     1       6.489  -6.271  -2.298  0.00  0.00    -0.422 OA
BRANCH  22  23
ATOM     23  C   UNL     1       6.102  -5.411  -3.263  0.00  0.00    +0.351 C 
ATOM     24  O   UNL     1       5.317  -4.519  -3.002  0.00  0.00    -0.244 OA
BRANCH  23  25
ATOM     25  C   UNL     1       6.625  -5.552  -4.622  0.00  0.00    +0.097 A 
ATOM     26  C   UNL     1       6.362  -4.780  -5.745  0.00  0.00    +0.022 A 
ATOM     27  C   UNL     1       7.010  -5.161  -6.895  0.00  0.00    +0.008 A 
ATOM     28  C   UNL     1       7.838  -6.234  -6.861  0.00  0.00    +0.046 A 
ATOM     29  S   UNL     1       7.772  -6.756  -5.266  0.00  0.00    -0.090 S 
ENDBRANCH  23  25
ENDBRANCH  22  23
ENDBRANCH  20  22
ENDBRANCH  12  16
BRANCH  10  30
ATOM     30  O   UNL     1       0.591  -5.307  -2.291  0.00  0.00    -0.492 OA
ATOM     31  H   UNL     1       0.698  -6.057  -2.892  0.00  0.00    +0.294 HD
ENDBRANCH  10  30
TORSDOF 5
