REMARK  Name = ZINC66995784
REMARK  2 active torsions:
REMARK  status: ('A' for Active; 'I' for Inactive)
REMARK    1  A    between atoms: N_13  and  C_17
REMARK    2  A    between atoms: C_17  and  N_18
REMARK                            x       y       z     vdW  Elec       q    Type
REMARK                         _______ _______ _______ _____ _____    ______ ____
ROOT
ATOM      1  C   UNL     1      -0.017   1.375   0.010  0.00  0.00    +0.000 A 
ATOM      2  C   UNL     1       1.174   2.078   0.002  0.00  0.00    +0.000 A 
ATOM      3  C   UNL     1       2.372   1.395  -0.017  0.00  0.00    +0.004 A 
ATOM      4  C   UNL     1       2.393   0.006  -0.027  0.00  0.00    -0.042 A 
ATOM      5  C   UNL     1       1.208  -0.694  -0.013  0.00  0.00    -0.044 A 
ATOM      6  C   UNL     1       0.002  -0.004   0.002  0.00  0.00    +0.004 A 
ATOM      7  C   UNL     1       1.151  -2.200  -0.003  0.00  0.00    +0.038 C 
ATOM      8  C   UNL     1       2.485  -2.794  -0.452  0.00  0.00    +0.040 C 
ATOM      9  C   UNL     1       3.604  -2.135   0.351  0.00  0.00    +0.117 C 
ATOM     10  C   UNL     1       3.737  -0.675  -0.056  0.00  0.00    +0.070 C 
ATOM     11  C   UNL     1       3.334  -2.256   1.832  0.00  0.00    +0.248 C 
ATOM     12  O   UNL     1       2.387  -1.810   2.445  0.00  0.00    -0.273 OA
ATOM     13  N   UNL     1       4.368  -2.965   2.329  0.00  0.00    -0.211 N 
ATOM     14  C   UNL     1       5.241  -3.302   1.371  0.00  0.00    +0.310 C 
ATOM     15  O   UNL     1       6.253  -3.943   1.574  0.00  0.00    -0.252 OA
ATOM     16  N   UNL     1       4.870  -2.850   0.157  0.00  0.00    -0.285 N 
ATOM     17  H   UNL     1       5.346  -2.974  -0.679  0.00  0.00    +0.151 HD
ENDROOT
BRANCH  13  18
ATOM     18  C   UNL     1       4.519  -3.323   3.742  0.00  0.00    +0.205 C 
BRANCH  18  19
ATOM     19  N   UNL     1       3.870  -4.617   3.991  0.00  0.00    -0.286 NA
ATOM     20  C   UNL     1       4.739  -5.728   3.585  0.00  0.00    +0.086 C 
ATOM     21  C   UNL     1       4.179  -7.050   4.109  0.00  0.00    +0.015 C 
ATOM     22  C   UNL     1       2.998  -7.484   3.235  0.00  0.00    +0.001 C 
ATOM     23  C   UNL     1       1.788  -6.608   3.571  0.00  0.00    +0.000 C 
ATOM     24  C   UNL     1       1.679  -6.455   5.088  0.00  0.00    +0.001 C 
ATOM     25  C   UNL     1       1.962  -5.004   5.478  0.00  0.00    +0.015 C 
ATOM     26  C   UNL     1       3.470  -4.743   5.400  0.00  0.00    +0.086 C 
ENDBRANCH  18  19
ENDBRANCH  13  18
TORSDOF 2
