REMARK  Name = ZINC05182108
REMARK  9 active torsions:
REMARK  status: ('A' for Active; 'I' for Inactive)
REMARK    1  A    between atoms: C_1  and  O_2
REMARK    2  A    between atoms: O_2  and  C_3
REMARK    3  A    between atoms: C_7  and  C_9
REMARK    4  A    between atoms: C_16  and  N_31
REMARK    5  A    between atoms: C_17  and  C_29
REMARK    6  A    between atoms: C_18  and  C_20
REMARK    7  A    between atoms: C_23  and  O_27
REMARK    8  A    between atoms: C_24  and  O_26
REMARK    9  A    between atoms: O_27  and  C_28
REMARK                            x       y       z     vdW  Elec       q    Type
REMARK                         _______ _______ _______ _____ _____    ______ ____
ROOT
ATOM      1  C   UNL     1       1.395  -4.104   2.224  0.00  0.00    +0.074 A 
ATOM      2  C   UNL     1       2.485  -4.846   2.537  0.00  0.00    +0.054 A 
ATOM      3  C   UNL     1       2.119  -6.205   2.481  0.00  0.00    +0.245 A 
ATOM      4  N   UNL     1       0.862  -6.278   2.147  0.00  0.00    -0.135 NA
ATOM      5  N   UNL     1       0.370  -4.974   1.982  0.00  0.00    -0.273 N 
ATOM      6  H   UNL     1      -0.538  -4.733   1.738  0.00  0.00    +0.189 HD
ATOM      7  O   UNL     1       3.006  -7.201   2.750  0.00  0.00    -0.421 OA
ATOM      8  C   UNL     1       4.170  -6.855   3.335  0.00  0.00    +0.201 C 
ATOM      9  C   UNL     1       4.629  -5.590   3.437  0.00  0.00    +0.098 C 
ATOM     10  C   UNL     1       3.880  -4.399   2.894  0.00  0.00    +0.102 C 
ENDROOT
BRANCH   1  15
ATOM     11  C   UNL     1       0.626  -0.618   1.042  0.00  0.00    +0.121 A 
ATOM     12  C   UNL     1       1.202   0.141   2.051  0.00  0.00    +0.045 A 
ATOM     13  C   UNL     1       1.838  -0.479   3.111  0.00  0.00    +0.004 A 
ATOM     14  C   UNL     1       1.903  -1.857   3.172  0.00  0.00    +0.010 A 
ATOM     15  C   UNL     1       1.327  -2.627   2.162  0.00  0.00    +0.004 A 
ATOM     16  C   UNL     1       0.681  -2.001   1.096  0.00  0.00    +0.055 A 
BRANCH  11  18
ATOM     17  C   UNL     1      -0.017   1.425   0.010  0.00  0.00    +0.277 C 
ATOM     18  O   UNL     1       0.002  -0.004   0.002  0.00  0.00    -0.495 OA
ENDBRANCH  11  18
ENDBRANCH   1  15
BRANCH  10  19
ATOM     19  C   UNL     1       4.577  -3.878   1.664  0.00  0.00    -0.031 A 
ATOM     20  C   UNL     1       4.759  -4.704   0.571  0.00  0.00    +0.008 A 
ATOM     21  C   UNL     1       5.398  -4.230  -0.559  0.00  0.00    +0.050 A 
ATOM     22  C   UNL     1       5.859  -2.924  -0.598  0.00  0.00    +0.161 A 
ATOM     23  C   UNL     1       5.676  -2.092   0.502  0.00  0.00    +0.159 A 
ATOM     24  C   UNL     1       5.029  -2.572   1.630  0.00  0.00    +0.053 A 
BRANCH  23  25
ATOM     25  O   UNL     1       6.125  -0.809   0.468  0.00  0.00    -0.503 OA
ATOM     26  H   UNL     1       5.479  -0.174   0.130  0.00  0.00    +0.292 HD
ENDBRANCH  23  25
BRANCH  22  27
ATOM     27  O   UNL     1       6.488  -2.456  -1.709  0.00  0.00    -0.491 OA
ATOM     28  C   UNL     1       6.641  -3.366  -2.800  0.00  0.00    +0.277 C 
ENDBRANCH  22  27
ENDBRANCH  10  19
BRANCH   8  29
ATOM     29  N   UNL     1       4.942  -7.859   3.864  0.00  0.00    -0.328 N 
ATOM     30  H   UNL     1       4.644  -8.781   3.809  0.00  0.00    +0.145 HD
ATOM     31  H   UNL     1       5.786  -7.647   4.293  0.00  0.00    +0.145 HD
ENDBRANCH   8  29
BRANCH   9  32
ATOM     32  C   UNL     1       5.883  -5.368   4.091  0.00  0.00    +0.101 C 
ATOM     33  N   UNL     1       6.878  -5.192   4.611  0.00  0.00    -0.191 NA
ENDBRANCH   9  32
TORSDOF 7
