REMARK  Name = ZINC00647172
REMARK  6 active torsions:
REMARK  status: ('A' for Active; 'I' for Inactive)
REMARK    1  A    between atoms: C_1  and  C_2
REMARK    2  A    between atoms: C_2  and  O_3
REMARK    3  A    between atoms: O_3  and  C_4
REMARK    4  A    between atoms: C_4  and  C_6
REMARK    5  A    between atoms: C_7  and  C_22
REMARK    6  A    between atoms: C_12  and  C_14
REMARK                            x       y       z     vdW  Elec       q    Type
REMARK                         _______ _______ _______ _____ _____    ______ ____
ROOT
ATOM      1  C   UNL     1       3.145   0.852   1.360  0.00  0.00    +0.078 C 
ATOM      2  C   UNL     1       4.234   1.607   1.617  0.00  0.00    +0.021 C 
ATOM      3  N   UNL     1       4.838   2.333   0.629  0.00  0.00    -0.273 N 
ATOM      4  C   UNL     1       4.412   2.357  -0.640  0.00  0.00    +0.304 C 
ATOM      5  O   UNL     1       5.015   3.034  -1.449  0.00  0.00    -0.252 OA
ATOM      6  N   UNL     1       3.338   1.654  -1.050  0.00  0.00    -0.288 N 
ATOM      7  C   UNL     1       2.616   0.837  -0.060  0.00  0.00    +0.144 C 
ATOM      8  C   UNL     1       4.794   1.651   3.015  0.00  0.00    +0.061 C 
ATOM      9  H   UNL     1       5.618   2.861   0.861  0.00  0.00    +0.156 HD
ATOM     10  H   UNL     1       3.047   1.685  -1.975  0.00  0.00    +0.151 HD
ENDROOT
BRANCH   7  11
ATOM     11  C   UNL     1       1.184   1.306  -0.027  0.00  0.00    -0.021 A 
ATOM     12  C   UNL     1       0.901   2.657   0.049  0.00  0.00    +0.008 A 
ATOM     13  C   UNL     1      -0.411   3.089   0.080  0.00  0.00    +0.040 A 
ATOM     14  C   UNL     1      -1.444   2.167   0.035  0.00  0.00    +0.137 A 
ATOM     15  C   UNL     1      -1.160   0.814  -0.047  0.00  0.00    +0.053 A 
ATOM     16  C   UNL     1       0.154   0.385  -0.071  0.00  0.00    +0.024 A 
ATOM     17 BR   UNL     1      -2.568  -0.446  -0.116  0.00  0.00    -0.047 Br
ATOM     18  F   UNL     1      -2.727   2.588   0.064  0.00  0.00    -0.204 F 
ENDBRANCH   7  11
BRANCH   1  19
ATOM     19  C   UNL     1       2.520   0.099   2.381  0.00  0.00    +0.339 C 
ATOM     20  O   UNL     1       3.026   0.035   3.486  0.00  0.00    -0.245 OA
BRANCH  19  21
ATOM     21  O   UNL     1       1.362  -0.548   2.131  0.00  0.00    -0.462 OA
BRANCH  21  23
ATOM     22  C   UNL     1      -0.511  -1.948   2.738  0.00  0.00    +0.048 C 
ATOM     23  C   UNL     1       0.786  -1.288   3.208  0.00  0.00    +0.229 C 
ENDBRANCH  21  23
ENDBRANCH  19  21
ENDBRANCH   1  19
TORSDOF 4
