REMARK  Name = ZINC38056409
REMARK  5 active torsions:
REMARK  status: ('A' for Active; 'I' for Inactive)
REMARK    1  A    between atoms: C_4  and  S_15
REMARK    2  A    between atoms: C_5  and  O_7
REMARK    3  A    between atoms: O_7  and  C_8
REMARK    4  A    between atoms: C_11  and  N_14
REMARK    5  A    between atoms: S_15  and  C_18
REMARK                            x       y       z     vdW  Elec       q    Type
REMARK                         _______ _______ _______ _____ _____    ______ ____
ROOT
ATOM      1  C   UNL     1       0.154   1.249   1.101  0.00  0.00    +0.004 A 
ATOM      2  C   UNL     1       1.323   1.971   0.944  0.00  0.00    +0.002 A 
ATOM      3  C   UNL     1       2.463   1.351   0.464  0.00  0.00    +0.031 A 
ATOM      4  C   UNL     1       2.436   0.009   0.140  0.00  0.00    +0.140 A 
ATOM      5  C   UNL     1       1.264  -0.718   0.296  0.00  0.00    +0.153 A 
ATOM      6  C   UNL     1       0.122  -0.094   0.778  0.00  0.00    +0.048 A 
ENDROOT
BRANCH   4   7
ATOM      7  S   UNL     1       3.888  -0.780  -0.472  0.00  0.00    +0.094 S 
ATOM      8  O   UNL     1       3.469  -1.442  -1.657  0.00  0.00    -0.161 OA
ATOM      9  O   UNL     1       4.865   0.250  -0.524  0.00  0.00    -0.161 OA
BRANCH   7  10
ATOM     10  C   UNL     1       4.329  -1.996   0.800  0.00  0.00    +0.526 C 
ATOM     11  F   UNL     1       3.277  -2.904   0.963  0.00  0.00    -0.150 F 
ATOM     12  F   UNL     1       5.482  -2.684   0.407  0.00  0.00    -0.150 F 
ATOM     13  F   UNL     1       4.569  -1.338   2.011  0.00  0.00    -0.150 F 
ENDBRANCH   7  10
ENDBRANCH   4   7
BRANCH   5  14
ATOM     14  O   UNL     1       1.235  -2.039  -0.022  0.00  0.00    -0.454 OA
BRANCH  14  15
ATOM     15  C   UNL     1       0.050  -2.697   0.090  0.00  0.00    +0.129 A 
ATOM     16  C   UNL     1      -0.813  -2.759  -0.994  0.00  0.00    +0.048 A 
ATOM     17  C   UNL     1      -2.017  -3.427  -0.881  0.00  0.00    +0.026 A 
ATOM     18  C   UNL     1      -2.362  -4.037   0.318  0.00  0.00    +0.025 A 
ATOM     19  C   UNL     1      -1.497  -3.973   1.403  0.00  0.00    +0.026 A 
ATOM     20  C   UNL     1      -0.292  -3.309   1.286  0.00  0.00    +0.048 A 
BRANCH  18  21
ATOM     21  N   UNL     1      -3.581  -4.713   0.433  0.00  0.00    -0.358 N 
ATOM     22  H   UNL     1      -4.185  -4.757  -0.325  0.00  0.00    +0.142 HD
ATOM     23  H   UNL     1      -3.823  -5.139   1.271  0.00  0.00    +0.142 HD
ENDBRANCH  18  21
ENDBRANCH  14  15
ENDBRANCH   5  14
TORSDOF 5
