REMARK  Name = ZINC50707491
REMARK  5 active torsions:
REMARK  status: ('A' for Active; 'I' for Inactive)
REMARK    1  A    between atoms: C_1  and  C_2
REMARK    2  A    between atoms: C_7  and  N_10
REMARK    3  A    between atoms: N_10  and  C_11
REMARK    4  A    between atoms: C_12  and  C_14
REMARK    5  A    between atoms: C_18  and  N_20
REMARK                            x       y       z     vdW  Elec       q    Type
REMARK                         _______ _______ _______ _____ _____    ______ ____
ROOT
ATOM      1  N   UNL     1       1.517  -2.543   2.439  0.00  0.00    -0.296 N 
ATOM      2  C   UNL     1       1.188  -2.256   3.837  0.00  0.00    +0.132 C 
ATOM      3  C   UNL     1       2.455  -3.465   2.143  0.00  0.00    +0.266 C 
ATOM      4  O   UNL     1       2.801  -3.630   0.990  0.00  0.00    -0.268 OA
ENDROOT
BRANCH   1  10
ATOM      5  C   UNL     1       0.613   1.920   0.515  0.00  0.00    +0.007 C 
ATOM      6  C   UNL     1       0.358   0.418   0.376  0.00  0.00    -0.012 C 
ATOM      7  C   UNL     1      -1.144   0.145   0.467  0.00  0.00    +0.003 C 
ATOM      8  C   UNL     1      -1.399  -1.357   0.328  0.00  0.00    +0.002 C 
ATOM      9  C   UNL     1      -0.677  -2.103   1.452  0.00  0.00    +0.022 C 
ATOM     10  C   UNL     1       0.826  -1.830   1.362  0.00  0.00    +0.076 C 
ATOM     11  C   UNL     1       1.080  -0.328   1.501  0.00  0.00    +0.025 C 
ENDBRANCH   1  10
BRANCH   3  12
ATOM     12  C   UNL     1       3.065  -4.274   3.222  0.00  0.00    +0.146 A 
ATOM     13  C   UNL     1       4.117  -5.137   2.927  0.00  0.00    +0.072 A 
ATOM     14  C   UNL     1       4.682  -5.892   3.948  0.00  0.00    +0.025 A 
ATOM     15  C   UNL     1       4.175  -5.757   5.227  0.00  0.00    +0.045 A 
ATOM     16  C   UNL     1       3.119  -4.874   5.454  0.00  0.00    +0.117 A 
ATOM     17  N   UNL     1       2.606  -4.167   4.465  0.00  0.00    -0.226 NA
ATOM     18 CL   UNL     1       4.716  -5.269   1.303  0.00  0.00    -0.081 Cl
BRANCH  16  19
ATOM     19  N   UNL     1       2.604  -4.735   6.738  0.00  0.00    -0.343 N 
ATOM     20  H   UNL     1       2.979  -5.250   7.470  0.00  0.00    +0.144 HD
ATOM     21  H   UNL     1       1.870  -4.122   6.902  0.00  0.00    +0.144 HD
ENDBRANCH  16  19
ENDBRANCH   3  12
TORSDOF 3
