REMARK  Name = ZINC07132362
REMARK  11 active torsions:
REMARK  status: ('A' for Active; 'I' for Inactive)
REMARK    1  A    between atoms: C_1  and  C_2
REMARK    2  A    between atoms: C_2  and  C_4
REMARK    3  A    between atoms: C_2  and  O_19
REMARK    4  A    between atoms: C_16  and  C_17
REMARK    5  A    between atoms: C_16  and  C_18
REMARK    6  A    between atoms: O_19  and  C_20
REMARK    7  A    between atoms: C_20  and  C_22
REMARK    8  A    between atoms: C_27  and  N_28
REMARK    9  A    between atoms: N_28  and  C_29
REMARK   10  A    between atoms: C_29  and  C_30
REMARK   11  A    between atoms: C_30  and  O_31
REMARK                            x       y       z     vdW  Elec       q    Type
REMARK                         _______ _______ _______ _____ _____    ______ ____
ROOT
ATOM      1  C   UNL     1      -1.796   2.720  -2.691  0.00  0.00    +0.062 C 
ATOM      2  C   UNL     1      -3.032   2.565  -1.802  0.00  0.00    +0.259 C 
ENDROOT
BRANCH   2   3
ATOM      3  C   UNL     1      -3.113   3.728  -0.846  0.00  0.00    +0.261 C 
ATOM      4  O   UNL     1      -4.147   4.352  -0.737  0.00  0.00    -0.271 OA
ATOM      5  N   UNL     1      -2.036   4.074  -0.114  0.00  0.00    -0.252 N 
ATOM      6  C   UNL     1      -0.852   3.321  -0.165  0.00  0.00    +0.059 A 
ATOM      7  C   UNL     1      -0.879   1.965  -0.436  0.00  0.00    +0.025 A 
ATOM      8  C   UNL     1       0.303   1.247  -0.468  0.00  0.00    +0.002 A 
ATOM      9  C   UNL     1       1.509   1.885  -0.242  0.00  0.00    +0.002 A 
ATOM     10  C   UNL     1       1.544   3.242   0.021  0.00  0.00    +0.025 A 
ATOM     11  C   UNL     1       0.364   3.967   0.060  0.00  0.00    +0.055 A 
ATOM     12  N   UNL     1       0.378   5.342   0.319  0.00  0.00    -0.282 N 
ATOM     13  C   UNL     1      -0.758   5.995   0.632  0.00  0.00    +0.241 C 
ATOM     14  O   UNL     1      -0.730   7.194   0.809  0.00  0.00    -0.273 OA
ATOM     15  C   UNL     1      -2.063   5.253   0.765  0.00  0.00    +0.113 C 
ATOM     16  C   UNL     1      -2.252   4.805   2.216  0.00  0.00    +0.042 C 
ATOM     17  C   UNL     1      -3.217   6.170   0.356  0.00  0.00    +0.042 C 
ATOM     18  H   UNL     1       1.215   5.831   0.273  0.00  0.00    +0.155 HD
ENDBRANCH   2   3
BRANCH   2  19
ATOM     19  O   UNL     1      -4.224   2.536  -2.630  0.00  0.00    -0.449 OA
BRANCH  19  20
ATOM     20  C   UNL     1      -4.638   1.329  -3.065  0.00  0.00    +0.342 C 
ATOM     21  O   UNL     1      -4.019   0.329  -2.760  0.00  0.00    -0.245 OA
BRANCH  20  22
ATOM     22  C   UNL     1      -5.839   1.223  -3.910  0.00  0.00    +0.080 A 
ATOM     23  C   UNL     1      -6.482   2.377  -4.367  0.00  0.00    +0.017 A 
ATOM     24  C   UNL     1      -7.602   2.271  -5.161  0.00  0.00    +0.001 A 
ATOM     25  C   UNL     1      -8.104   1.024  -5.502  0.00  0.00    +0.002 A 
ATOM     26  C   UNL     1      -7.484  -0.124  -5.055  0.00  0.00    +0.024 A 
ATOM     27  C   UNL     1      -6.350  -0.038  -4.257  0.00  0.00    +0.041 A 
BRANCH  27  28
ATOM     28  N   UNL     1      -5.725  -1.192  -3.805  0.00  0.00    -0.341 N 
ATOM     29  H   UNL     1      -4.991  -1.131  -3.174  0.00  0.00    +0.146 HD
BRANCH  28  30
ATOM     30  C   UNL     1      -6.173  -2.503  -4.282  0.00  0.00    +0.129 C 
BRANCH  30  31
ATOM     31  C   UNL     1      -5.325  -3.599  -3.635  0.00  0.00    +0.174 C 
BRANCH  31  32
ATOM     32  O   UNL     1      -5.556  -3.611  -2.225  0.00  0.00    -0.393 OA
ATOM     33  H   UNL     1      -5.050  -4.283  -1.749  0.00  0.00    +0.209 HD
ENDBRANCH  31  32
ENDBRANCH  30  31
ENDBRANCH  28  30
ENDBRANCH  27  28
ENDBRANCH  20  22
ENDBRANCH  19  20
ENDBRANCH   2  19
TORSDOF 8
