REMARK  Name = ZINC09124062
REMARK  10 active torsions:
REMARK  status: ('A' for Active; 'I' for Inactive)
REMARK    1  A    between atoms: C_1  and  C_2
REMARK    2  A    between atoms: C_4  and  O_37
REMARK    3  A    between atoms: C_5  and  C_9
REMARK    4  A    between atoms: N_17  and  C_30
REMARK    5  A    between atoms: C_18  and  C_20
REMARK    6  A    between atoms: C_23  and  C_26
REMARK    7  A    between atoms: C_26  and  C_27
REMARK    8  A    between atoms: C_26  and  C_28
REMARK    9  A    between atoms: C_26  and  C_29
REMARK   10  A    between atoms: C_30  and  C_31
REMARK                            x       y       z     vdW  Elec       q    Type
REMARK                         _______ _______ _______ _____ _____    ______ ____
ROOT
ATOM      1  C   UNL     1      -0.230  -4.717  -0.091  0.00  0.00    +0.102 A 
ATOM      2  C   UNL     1       0.044  -5.344   1.129  0.00  0.00    +0.035 A 
ATOM      3  C   UNL     1       0.104  -6.696   0.852  0.00  0.00    +0.126 A 
ATOM      4  N   UNL     1      -0.130  -6.820  -0.488  0.00  0.00    -0.272 N 
ATOM      5  H   UNL     1      -0.150  -7.659  -0.975  0.00  0.00    +0.189 HD
ATOM      6  N   UNL     1      -0.326  -5.660  -1.007  0.00  0.00    -0.173 NA
ATOM      7  C   UNL     1       0.390  -7.416   2.099  0.00  0.00    +0.266 C 
ATOM      8  O   UNL     1       0.506  -8.623   2.193  0.00  0.00    -0.268 OA
ATOM      9  N   UNL     1       0.505  -6.551   3.123  0.00  0.00    -0.281 N 
ATOM     10  C   UNL     1       0.299  -5.193   2.604  0.00  0.00    +0.142 C 
ENDROOT
BRANCH   1  15
ATOM     11  C   UNL     1      -0.850   0.949  -0.947  0.00  0.00    +0.045 C 
ATOM     12  C   UNL     1      -0.690  -0.533  -0.725  0.00  0.00    -0.029 A 
ATOM     13  C   UNL     1      -1.599  -1.414  -1.279  0.00  0.00    +0.050 A 
ATOM     14  C   UNL     1      -1.457  -2.777  -1.077  0.00  0.00    +0.126 A 
ATOM     15  C   UNL     1      -0.390  -3.258  -0.312  0.00  0.00    +0.045 A 
ATOM     16  C   UNL     1       0.521  -2.363   0.242  0.00  0.00    +0.034 A 
ATOM     17  C   UNL     1       0.370  -1.006   0.029  0.00  0.00    +0.045 A 
ATOM     18 CL   UNL     1       1.511   0.109   0.714  0.00  0.00    -0.083 Cl
BRANCH  14  19
ATOM     19  O   UNL     1      -2.351  -3.644  -1.621  0.00  0.00    -0.506 OA
ATOM     20  H   UNL     1      -2.113  -3.950  -2.506  0.00  0.00    +0.292 HD
ENDBRANCH  14  19
ENDBRANCH   1  15
BRANCH  10  21
ATOM     21  C   UNL     1      -0.891  -4.556   3.274  0.00  0.00    -0.022 A 
ATOM     22  C   UNL     1      -2.046  -5.289   3.472  0.00  0.00    +0.006 A 
ATOM     23  C   UNL     1      -3.138  -4.705   4.087  0.00  0.00    +0.004 A 
ATOM     24  C   UNL     1      -3.074  -3.389   4.504  0.00  0.00    -0.042 A 
ATOM     25  C   UNL     1      -1.919  -2.656   4.307  0.00  0.00    +0.004 A 
ATOM     26  C   UNL     1      -0.825  -3.241   3.696  0.00  0.00    +0.006 A 
BRANCH  24  27
ATOM     27  C   UNL     1      -4.265  -2.752   5.173  0.00  0.00    -0.013 C 
ATOM     28  C   UNL     1      -4.609  -3.527   6.447  0.00  0.00    +0.015 C 
ATOM     29  C   UNL     1      -3.933  -1.302   5.533  0.00  0.00    +0.015 C 
ATOM     30  C   UNL     1      -5.462  -2.781   4.220  0.00  0.00    +0.015 C 
ENDBRANCH  24  27
ENDBRANCH  10  21
BRANCH   9  31
ATOM     31  C   UNL     1       0.787  -6.904   4.516  0.00  0.00    +0.145 C 
BRANCH  31  32
ATOM     32  C   UNL     1       2.277  -6.911   4.741  0.00  0.00    -0.012 A 
ATOM     33  C   UNL     1       3.012  -8.069   4.540  0.00  0.00    +0.008 A 
ATOM     34  C   UNL     1       4.381  -8.028   4.759  0.00  0.00    +0.020 A 
ATOM     35  C   UNL     1       4.962  -6.843   5.168  0.00  0.00    +0.111 A 
ATOM     36  N   UNL     1       4.231  -5.761   5.351  0.00  0.00    -0.263 NA
ATOM     37  C   UNL     1       2.928  -5.761   5.146  0.00  0.00    +0.115 A 
ENDBRANCH  31  32
ENDBRANCH   9  31
TORSDOF 6
