REMARK  Name = ZINC06143875
REMARK  12 active torsions:
REMARK  status: ('A' for Active; 'I' for Inactive)
REMARK    1  A    between atoms: C_1  and  O_2
REMARK    2  A    between atoms: O_2  and  C_3
REMARK    3  A    between atoms: C_6  and  C_9
REMARK    4  A    between atoms: N_10  and  N_11
REMARK    5  A    between atoms: N_11  and  C_12
REMARK    6  A    between atoms: C_15  and  S_18
REMARK    7  A    between atoms: S_18  and  C_21
REMARK    8  A    between atoms: C_24  and  N_27
REMARK    9  A    between atoms: N_27  and  N_28
REMARK   10  A    between atoms: C_29  and  C_30
REMARK   11  A    between atoms: C_33  and  O_36
REMARK   12  A    between atoms: O_36  and  C_37
REMARK                            x       y       z     vdW  Elec       q    Type
REMARK                         _______ _______ _______ _____ _____    ______ ____
ROOT
ATOM      1  S   UNL     1     -10.000   3.837   0.071  0.00  0.00    +0.025 S 
ATOM      2  O   UNL     1      -9.745   5.125  -0.473  0.00  0.00    -0.164 OA
ATOM      3  O   UNL     1     -10.967   2.954  -0.480  0.00  0.00    -0.164 OA
ENDROOT
BRANCH   1   7
ATOM      4  C   UNL     1      -6.053   1.616   0.039  0.00  0.00    +0.048 A 
ATOM      5  C   UNL     1      -6.070   3.005   0.053  0.00  0.00    +0.026 A 
ATOM      6  C   UNL     1      -7.275   3.679   0.057  0.00  0.00    +0.029 A 
ATOM      7  C   UNL     1      -8.464   2.973   0.059  0.00  0.00    +0.094 A 
ATOM      8  C   UNL     1      -8.451   1.590   0.051  0.00  0.00    +0.029 A 
ATOM      9  C   UNL     1      -7.250   0.909   0.041  0.00  0.00    +0.026 A 
BRANCH   4  10
ATOM     10  N   UNL     1      -4.837   0.931   0.030  0.00  0.00    -0.238 N 
ATOM     11  H   UNL     1      -4.827  -0.039   0.025  0.00  0.00    +0.174 HD
BRANCH  10  13
ATOM     12  C   UNL     1      -2.500   1.008   0.019  0.00  0.00    +0.138 C 
ATOM     13  N   UNL     1      -3.631   1.645   0.028  0.00  0.00    -0.190 NA
BRANCH  12  17
ATOM     14  C   UNL     1       1.153   3.171   0.008  0.00  0.00    +0.120 A 
ATOM     15  C   UNL     1       1.171   1.782   0.001  0.00  0.00    +0.046 A 
ATOM     16  C   UNL     1      -0.013   1.076   0.008  0.00  0.00    +0.013 A 
ATOM     17  C   UNL     1      -1.231   1.759   0.017  0.00  0.00    -0.005 A 
ATOM     18  C   UNL     1      -1.244   3.156   0.031  0.00  0.00    +0.013 A 
ATOM     19  C   UNL     1      -0.056   3.854   0.023  0.00  0.00    +0.046 A 
BRANCH  14  21
ATOM     20  C   UNL     1       2.232   5.289   0.009  0.00  0.00    +0.277 C 
ATOM     21  O   UNL     1       2.322   3.863   0.000  0.00  0.00    -0.495 OA
ENDBRANCH  14  21
ENDBRANCH  12  17
ENDBRANCH  10  13
ENDBRANCH   4  10
ENDBRANCH   1   7
BRANCH   1  22
ATOM     22  C   UNL     1     -10.446   4.083   1.758  0.00  0.00    +0.094 A 
ATOM     23  C   UNL     1     -11.214   3.137   2.413  0.00  0.00    +0.029 A 
ATOM     24  C   UNL     1     -11.561   3.324   3.736  0.00  0.00    +0.026 A 
ATOM     25  C   UNL     1     -11.148   4.469   4.407  0.00  0.00    +0.048 A 
ATOM     26  C   UNL     1     -10.381   5.420   3.743  0.00  0.00    +0.026 A 
ATOM     27  C   UNL     1     -10.033   5.224   2.422  0.00  0.00    +0.029 A 
BRANCH  25  28
ATOM     28  N   UNL     1     -11.501   4.664   5.742  0.00  0.00    -0.238 N 
ATOM     29  H   UNL     1     -11.212   5.463   6.209  0.00  0.00    +0.174 HD
BRANCH  28  30
ATOM     30  N   UNL     1     -12.274   3.704   6.409  0.00  0.00    -0.190 NA
ATOM     31  C   UNL     1     -12.603   3.886   7.652  0.00  0.00    +0.138 C 
BRANCH  31  32
ATOM     32  C   UNL     1     -13.416   2.876   8.354  0.00  0.00    -0.005 A 
ATOM     33  C   UNL     1     -13.839   1.726   7.682  0.00  0.00    +0.013 A 
ATOM     34  C   UNL     1     -14.595   0.783   8.344  0.00  0.00    +0.046 A 
ATOM     35  C   UNL     1     -14.945   0.978   9.673  0.00  0.00    +0.120 A 
ATOM     36  C   UNL     1     -14.532   2.122  10.344  0.00  0.00    +0.046 A 
ATOM     37  C   UNL     1     -13.772   3.069   9.691  0.00  0.00    +0.013 A 
BRANCH  35  38
ATOM     38  O   UNL     1     -15.695   0.048  10.320  0.00  0.00    -0.495 OA
ATOM     39  C   UNL     1     -16.086  -1.105   9.572  0.00  0.00    +0.277 C 
ENDBRANCH  35  38
ENDBRANCH  31  32
ENDBRANCH  28  30
ENDBRANCH  25  28
ENDBRANCH   1  22
TORSDOF 10
