REMARK  Name = ZINC59272329
REMARK  5 active torsions:
REMARK  status: ('A' for Active; 'I' for Inactive)
REMARK    1  A    between atoms: C_6  and  C_7
REMARK    2  A    between atoms: C_7  and  S_8
REMARK    3  A    between atoms: S_8  and  C_9
REMARK    4  A    between atoms: C_15  and  C_17
REMARK    5  A    between atoms: C_22  and  C_25
REMARK                            x       y       z     vdW  Elec       q    Type
REMARK                         _______ _______ _______ _____ _____    ______ ____
ROOT
ATOM      1  C   UNL     1      -3.335  -1.973  -1.518  0.00  0.00    +0.160 A 
ATOM      2  N   UNL     1      -3.972  -2.358  -0.422  0.00  0.00    -0.133 NA
ATOM      3  N   UNL     1      -5.055  -3.003  -0.473  0.00  0.00    -0.125 NA
ATOM      4  C   UNL     1      -5.621  -3.335  -1.621  0.00  0.00    +0.189 A 
ATOM      5  S   UNL     1      -4.444  -2.620  -2.766  0.00  0.00    -0.024 S 
ATOM      6  N   UNL     1      -6.798  -4.037  -1.870  0.00  0.00    -0.263 N 
ATOM      7  C   UNL     1      -7.545  -4.486  -0.842  0.00  0.00    +0.222 C 
ATOM      8  O   UNL     1      -7.191  -4.280   0.300  0.00  0.00    -0.275 OA
ATOM      9  H   UNL     1      -7.081  -4.201  -2.783  0.00  0.00    +0.157 HD
ENDROOT
BRANCH   7  10
ATOM     10  C   UNL     1      -8.819  -5.245  -1.111  0.00  0.00    +0.076 C 
ATOM     11  C   UNL     1      -9.780  -4.360  -1.907  0.00  0.00    +0.013 C 
ATOM     12  C   UNL     1     -10.098  -3.099  -1.101  0.00  0.00    +0.001 C 
ATOM     13  C   UNL     1     -10.748  -3.492   0.227  0.00  0.00    +0.012 C 
ATOM     14  C   UNL     1      -9.786  -4.376   1.023  0.00  0.00    +0.094 C 
ATOM     15  C   UNL     1      -9.468  -5.638   0.218  0.00  0.00    +0.025 C 
BRANCH  14  16
ATOM     16  C   UNL     1     -10.436  -4.769   2.351  0.00  0.00    +0.393 C 
ATOM     17  F   UNL     1     -11.618  -5.473   2.102  0.00  0.00    -0.170 F 
ATOM     18  F   UNL     1      -9.556  -5.578   3.079  0.00  0.00    -0.170 F 
ATOM     19  F   UNL     1     -10.726  -3.616   3.088  0.00  0.00    -0.170 F 
ENDBRANCH  14  16
ENDBRANCH   7  10
BRANCH   1  20
ATOM     20  S   UNL     1      -1.829  -1.075  -1.696  0.00  0.00    -0.092 S 
BRANCH  20  21
ATOM     21  C   UNL     1      -1.293  -0.775   0.011  0.00  0.00    +0.111 C 
BRANCH  21  27
ATOM     22  C   UNL     1      -0.017   1.378   0.010  0.00  0.00    +0.006 A 
ATOM     23  C   UNL     1       1.171   2.086   0.002  0.00  0.00    +0.020 A 
ATOM     24  C   UNL     1       2.378   1.410  -0.013  0.00  0.00    +0.041 A 
ATOM     25  C   UNL     1       2.396   0.027  -0.021  0.00  0.00    +0.020 A 
ATOM     26  C   UNL     1       1.208  -0.679  -0.013  0.00  0.00    +0.006 A 
ATOM     27  C   UNL     1       0.002  -0.004   0.002  0.00  0.00    -0.037 A 
ATOM     28 CL   UNL     1       3.870   2.298  -0.023  0.00  0.00    -0.084 Cl
ENDBRANCH  21  27
ENDBRANCH  20  21
ENDBRANCH   1  20
TORSDOF 5
