REMARK  Name = ZINC02285947
REMARK  6 active torsions:
REMARK  status: ('A' for Active; 'I' for Inactive)
REMARK    1  A    between atoms: C_1  and  O_2
REMARK    2  A    between atoms: O_2  and  C_3
REMARK    3  A    between atoms: C_6  and  C_11
REMARK    4  A    between atoms: C_7  and  O_9
REMARK    5  A    between atoms: O_9  and  C_10
REMARK    6  A    between atoms: C_28  and  C_30
REMARK                            x       y       z     vdW  Elec       q    Type
REMARK                         _______ _______ _______ _____ _____    ______ ____
ROOT
ATOM      1  C   UNL     1       2.673  -2.205  -4.381  0.00  0.00    +0.238 C 
ATOM      2  C   UNL     1       4.074  -2.554  -3.970  0.00  0.00    +0.028 C 
ATOM      3  C   UNL     1       5.095  -1.709  -4.224  0.00  0.00    +0.083 C 
ATOM      4  C   UNL     1       4.777  -0.442  -4.929  0.00  0.00    +0.042 A 
ATOM      5  C   UNL     1       5.669   0.621  -4.951  0.00  0.00    +0.013 A 
ATOM      6  C   UNL     1       5.330   1.783  -5.618  0.00  0.00    +0.001 A 
ATOM      7  C   UNL     1       4.109   1.886  -6.262  0.00  0.00    +0.004 A 
ATOM      8  C   UNL     1       3.215   0.832  -6.245  0.00  0.00    +0.046 A 
ATOM      9  C   UNL     1       3.542  -0.338  -5.582  0.00  0.00    +0.131 A 
ATOM     10  O   UNL     1       2.690  -1.390  -5.555  0.00  0.00    -0.479 OA
ATOM     11  N   UNL     1       6.364  -2.006  -3.852  0.00  0.00    -0.216 NA
ATOM     12  C   UNL     1       6.712  -3.114  -3.236  0.00  0.00    +0.209 C 
ATOM     13  N   UNL     1       7.926  -3.575  -2.796  0.00  0.00    -0.275 N 
ATOM     14  C   UNL     1       7.732  -4.805  -2.216  0.00  0.00    +0.208 C 
ATOM     15  N   UNL     1       6.477  -5.114  -2.277  0.00  0.00    -0.169 NA
ATOM     16  N   UNL     1       5.798  -4.074  -2.912  0.00  0.00    -0.182 N 
ATOM     17  C   UNL     1       4.387  -3.853  -3.263  0.00  0.00    +0.163 C 
ATOM     18  H   UNL     1       8.774  -3.112  -2.880  0.00  0.00    +0.156 HD
ENDROOT
BRANCH   1  22
ATOM     19  C   UNL     1       0.756  -0.074  -1.208  0.00  0.00    +0.124 A 
ATOM     20  C   UNL     1       2.124   0.052  -1.406  0.00  0.00    +0.046 A 
ATOM     21  C   UNL     1       2.740  -0.638  -2.432  0.00  0.00    +0.015 A 
ATOM     22  C   UNL     1       1.997  -1.455  -3.263  0.00  0.00    +0.039 A 
ATOM     23  C   UNL     1       0.630  -1.584  -3.069  0.00  0.00    +0.131 A 
ATOM     24  C   UNL     1       0.009  -0.897  -2.036  0.00  0.00    +0.091 A 
BRANCH  19  26
ATOM     25  C   UNL     1       0.980   1.435   0.616  0.00  0.00    +0.277 C 
ATOM     26  O   UNL     1       0.149   0.605  -0.199  0.00  0.00    -0.495 OA
ENDBRANCH  19  26
BRANCH  23  27
ATOM     27  O   UNL     1      -0.101  -2.387  -3.887  0.00  0.00    -0.495 OA
ATOM     28  C   UNL     1      -1.515  -2.407  -3.683  0.00  0.00    +0.277 C 
ENDBRANCH  23  27
ENDBRANCH   1  22
BRANCH  17  29
ATOM     29  C   UNL     1       3.574  -3.905  -1.994  0.00  0.00    -0.021 A 
ATOM     30  C   UNL     1       3.975  -3.182  -0.886  0.00  0.00    +0.006 A 
ATOM     31  C   UNL     1       3.229  -3.230   0.277  0.00  0.00    +0.000 A 
ATOM     32  C   UNL     1       2.083  -4.000   0.332  0.00  0.00    +0.000 A 
ATOM     33  C   UNL     1       1.681  -4.723  -0.777  0.00  0.00    +0.000 A 
ATOM     34  C   UNL     1       2.425  -4.671  -1.941  0.00  0.00    +0.006 A 
ENDBRANCH  17  29
TORSDOF 4
