REMARK  Name = ZINC06135303
REMARK  7 active torsions:
REMARK  status: ('A' for Active; 'I' for Inactive)
REMARK    1  A    between atoms: C_1  and  C_2
REMARK    2  A    between atoms: C_2  and  C_3
REMARK    3  A    between atoms: C_10  and  C_15
REMARK    4  A    between atoms: C_15  and  C_17
REMARK    5  A    between atoms: C_15  and  N_69
REMARK    6  A    between atoms: N_21  and  C_22
REMARK    7  A    between atoms: N_29  and  C_32
REMARK                            x       y       z     vdW  Elec       q    Type
REMARK                         _______ _______ _______ _____ _____    ______ ____
ROOT
ATOM      1  C   UNL     1      -6.203  -0.532  -1.033  0.00  0.00    +0.039 C 
ENDROOT
BRANCH   1   9
ATOM      2  C   UNL     1      -6.710  -5.830  -4.190  0.00  0.00    -0.047 A 
ATOM      3  C   UNL     1      -6.517  -5.279  -5.450  0.00  0.00    +0.005 A 
ATOM      4  C   UNL     1      -6.304  -3.926  -5.601  0.00  0.00    +0.026 A 
ATOM      5  C   UNL     1      -6.281  -3.102  -4.481  0.00  0.00    +0.049 A 
ATOM      6  C   UNL     1      -6.477  -3.663  -3.205  0.00  0.00    -0.001 A 
ATOM      7  C   UNL     1      -6.692  -5.040  -3.076  0.00  0.00    +0.013 A 
ATOM      8  C   UNL     1      -6.445  -2.788  -2.032  0.00  0.00    +0.017 A 
ATOM      9  C   UNL     1      -6.237  -1.462  -2.219  0.00  0.00    +0.011 A 
ATOM     10  C   UNL     1      -6.045  -0.949  -3.520  0.00  0.00    +0.251 A 
ATOM     11  O   UNL     1      -5.855   0.247  -3.665  0.00  0.00    -0.268 OA
ATOM     12  N   UNL     1      -6.068  -1.745  -4.603  0.00  0.00    -0.322 N 
ATOM     13  H   UNL     1      -5.929  -1.348  -5.510  0.00  0.00    +0.169 HD
BRANCH   2  15
ATOM     14  C   UNL     1      -8.442  -7.604  -4.129  0.00  0.00    +0.009 C 
ATOM     15  C   UNL     1      -6.942  -7.312  -4.050  0.00  0.00    +0.032 C 
ENDBRANCH   2  15
ENDBRANCH   1   9
BRANCH   1  21
ATOM     16  C   UNL     1      -4.871   1.136   0.111  0.00  0.00    -0.058 C 
ATOM     17  C   UNL     1      -3.579   1.953   0.029  0.00  0.00    +0.086 C 
ATOM     18  N   UNL     1      -2.426   1.042   0.019  0.00  0.00    -0.333 N 
ATOM     19  C   UNL     1      -2.495   0.123  -1.126  0.00  0.00    +0.086 C 
ATOM     20  C   UNL     1      -3.786  -0.694  -1.045  0.00  0.00    -0.058 C 
ATOM     21  N   UNL     1      -4.938   0.233  -1.058  0.00  0.00    +0.391 N 
ATOM     22  H   UNL     1      -4.905   0.795  -1.916  0.00  0.00    -0.080 HD
BRANCH  18  23
ATOM     23  C   UNL     1      -1.225   1.755   0.017  0.00  0.00    +0.031 A 
ATOM     24  C   UNL     1      -0.013   1.076   0.008  0.00  0.00    +0.023 A 
ATOM     25  C   UNL     1       1.173   1.783   0.000  0.00  0.00    +0.003 A 
ATOM     26  C   UNL     1       1.156   3.166   0.008  0.00  0.00    +0.020 A 
ATOM     27  C   UNL     1      -0.049   3.845   0.023  0.00  0.00    +0.043 A 
ATOM     28  C   UNL     1      -1.240   3.143   0.031  0.00  0.00    +0.043 A 
ATOM     29 CL   UNL     1      -0.066   5.581   0.032  0.00  0.00    -0.083 Cl
ENDBRANCH  18  23
ENDBRANCH   1  21
BRANCH   1  30
ATOM     30  C   UNL     1      -7.358   0.431  -1.116  0.00  0.00    +0.143 A 
ATOM     31  N   UNL     1      -7.461   1.464  -1.917  0.00  0.00    -0.115 NA
ATOM     32  N   UNL     1      -8.592   2.035  -1.688  0.00  0.00    -0.023 NA
ATOM     33  N   UNL     1      -9.215   1.393  -0.761  0.00  0.00    -0.044 NA
ATOM     34  N   UNL     1      -8.489   0.395  -0.387  0.00  0.00    -0.227 N 
BRANCH  34  35
ATOM     35  C   UNL     1      -8.829  -0.591   0.642  0.00  0.00    +0.111 C 
ATOM     36  C   UNL     1     -10.152  -1.298   0.280  0.00  0.00    +0.027 C 
ATOM     37  C   UNL     1     -10.862  -1.495   1.643  0.00  0.00    +0.002 C 
ATOM     38  C   UNL     1     -10.517  -0.190   2.401  0.00  0.00    +0.002 C 
ATOM     39  C   UNL     1      -9.061   0.113   1.990  0.00  0.00    +0.027 C 
ENDBRANCH  34  35
ENDBRANCH   1  30
TORSDOF 6
