REMARK  Name = ZINC08694918
REMARK  6 active torsions:
REMARK  status: ('A' for Active; 'I' for Inactive)
REMARK    1  A    between atoms: C_14  and  N_15
REMARK    2  A    between atoms: N_15  and  C_16
REMARK    3  A    between atoms: C_16  and  C_17
REMARK    4  A    between atoms: C_22  and  C_24
REMARK    5  A    between atoms: C_24  and  S_25
REMARK    6  A    between atoms: S_25  and  C_26
REMARK                            x       y       z     vdW  Elec       q    Type
REMARK                         _______ _______ _______ _____ _____    ______ ____
ROOT
ATOM      1  C   UNL     1      -0.017   1.366   0.010  0.00  0.00    +0.002 A 
ATOM      2  C   UNL     1       1.157   2.107   0.002  0.00  0.00    +0.001 A 
ATOM      3  C   UNL     1       2.373   1.450  -0.013  0.00  0.00    +0.017 A 
ATOM      4  C   UNL     1       2.401   0.078  -0.020  0.00  0.00    +0.041 A 
ATOM      5  C   UNL     1       1.228  -0.710  -0.013  0.00  0.00    +0.080 A 
ATOM      6  C   UNL     1       0.002  -0.004   0.002  0.00  0.00    +0.029 A 
ATOM      7  N   UNL     1       1.420  -2.046  -0.023  0.00  0.00    -0.223 NA
ATOM      8  C   UNL     1       2.616  -2.587  -0.037  0.00  0.00    +0.189 A 
ATOM      9  S   UNL     1       3.683  -1.153  -0.040  0.00  0.00    -0.050 S 
ATOM     10  N   UNL     1       2.963  -3.931  -0.048  0.00  0.00    -0.132 N 
ATOM     11  C   UNL     1       4.227  -4.402  -0.057  0.00  0.00    +0.275 C 
ATOM     12  O   UNL     1       5.254  -3.745  -0.059  0.00  0.00    -0.268 OA
ATOM     13  C   UNL     1       4.114  -5.865  -0.065  0.00  0.00    +0.076 C 
ATOM     14  C   UNL     1       5.145  -6.790  -0.076  0.00  0.00    +0.082 C 
ATOM     15  C   UNL     1       2.669  -6.135  -0.059  0.00  0.00    +0.083 C 
ATOM     16  N   UNL     1       2.057  -4.990  -0.043  0.00  0.00    -0.174 NA
ENDROOT
BRANCH  14  17
ATOM     17  N   UNL     1       4.866  -8.110  -0.082  0.00  0.00    -0.344 N 
ATOM     18  H   UNL     1       3.944  -8.411  -0.079  0.00  0.00    +0.146 HD
BRANCH  17  19
ATOM     19  C   UNL     1       5.956  -9.088  -0.093  0.00  0.00    +0.143 C 
BRANCH  19  20
ATOM     20  C   UNL     1       5.381 -10.481  -0.098  0.00  0.00    +0.007 A 
ATOM     21  C   UNL     1       5.055 -11.266  -1.153  0.00  0.00    +0.013 A 
ATOM     22  C   UNL     1       4.536 -12.525  -0.917  0.00  0.00    +0.008 A 
ATOM     23  C   UNL     1       4.369 -12.938   0.363  0.00  0.00    +0.045 A 
ATOM     24  S   UNL     1       4.960 -11.528   1.286  0.00  0.00    -0.100 S 
ENDBRANCH  19  20
ENDBRANCH  17  19
ENDBRANCH  14  17
BRANCH  15  25
ATOM     25  C   UNL     1       2.016  -7.493  -0.064  0.00  0.00    +0.132 C 
BRANCH  25  26
ATOM     26  S   UNL     1       0.213  -7.298  -0.053  0.00  0.00    -0.119 S 
BRANCH  26  27
ATOM     27  C   UNL     1      -0.395  -8.952  -0.061  0.00  0.00    +0.008 A 
ATOM     28  C   UNL     1       0.493 -10.020  -0.067  0.00  0.00    +0.016 A 
ATOM     29  C   UNL     1       0.014 -11.315  -0.073  0.00  0.00    +0.021 A 
ATOM     30  C   UNL     1      -1.350 -11.549  -0.072  0.00  0.00    +0.041 A 
ATOM     31  C   UNL     1      -2.238 -10.487  -0.066  0.00  0.00    +0.021 A 
ATOM     32  C   UNL     1      -1.764  -9.190  -0.055  0.00  0.00    +0.016 A 
ATOM     33 CL   UNL     1      -1.949 -13.179  -0.080  0.00  0.00    -0.084 Cl
ENDBRANCH  26  27
ENDBRANCH  25  26
ENDBRANCH  15  25
TORSDOF 6
