REMARK  Name = ZINC00188207
REMARK  3 active torsions:
REMARK  status: ('A' for Active; 'I' for Inactive)
REMARK    1  A    between atoms: C_4  and  C_7
REMARK    2  A    between atoms: C_7  and  C_19
REMARK    3  A    between atoms: N_12  and  C_13
REMARK                            x       y       z     vdW  Elec       q    Type
REMARK                         _______ _______ _______ _____ _____    ______ ____
ROOT
ATOM      1  C   UNL     1       3.685  -0.772  -0.038  0.00  0.00    +0.143 C 
ATOM      2  C   UNL     1       3.528  -1.984   0.908  0.00  0.00    +0.050 C 
ATOM      3  C   UNL     1       4.081  -1.420   2.237  0.00  0.00    +0.099 C 
ATOM      4  C   UNL     1       5.015  -0.310   1.809  0.00  0.00    +0.221 C 
ATOM      5  O   UNL     1       5.859   0.200   2.516  0.00  0.00    -0.275 OA
ATOM      6  N   UNL     1       4.776   0.029   0.530  0.00  0.00    -0.253 N 
ENDROOT
BRANCH   1  10
ATOM      7  C   UNL     1       0.074   1.506  -0.139  0.00  0.00    +0.000 A 
ATOM      8  C   UNL     1       1.250   2.095   0.285  0.00  0.00    +0.000 A 
ATOM      9  C   UNL     1       2.419   1.357   0.318  0.00  0.00    +0.006 A 
ATOM     10  C   UNL     1       2.411   0.031  -0.073  0.00  0.00    -0.015 A 
ATOM     11  C   UNL     1       1.234  -0.557  -0.497  0.00  0.00    +0.006 A 
ATOM     12  C   UNL     1       0.066   0.181  -0.531  0.00  0.00    +0.000 A 
ENDBRANCH   1  10
BRANCH   6  13
ATOM     13  C   UNL     1       5.476   1.018  -0.169  0.00  0.00    +0.038 A 
ATOM     14  C   UNL     1       6.580   1.630   0.409  0.00  0.00    +0.023 A 
ATOM     15  C   UNL     1       7.269   2.606  -0.283  0.00  0.00    +0.002 A 
ATOM     16  C   UNL     1       6.860   2.974  -1.552  0.00  0.00    +0.000 A 
ATOM     17  C   UNL     1       5.761   2.368  -2.131  0.00  0.00    +0.002 A 
ATOM     18  C   UNL     1       5.071   1.386  -1.446  0.00  0.00    +0.023 A 
ENDBRANCH   6  13
BRANCH   1  19
ATOM     19  C   UNL     1       4.047  -1.236  -1.426  0.00  0.00    +0.239 C 
ATOM     20  O   UNL     1       3.189  -1.322  -2.279  0.00  0.00    -0.273 OA
ATOM     21  N   UNL     1       5.324  -1.554  -1.719  0.00  0.00    -0.327 N 
ATOM     22  H   UNL     1       6.021  -1.417  -1.059  0.00  0.00    +0.145 HD
ATOM     23  H   UNL     1       5.545  -1.921  -2.589  0.00  0.00    +0.145 HD
ENDBRANCH   1  19
TORSDOF 3
