REMARK  Name = ZINC13008134
REMARK  8 active torsions:
REMARK  status: ('A' for Active; 'I' for Inactive)
REMARK    1  A    between atoms: C_1  and  C_2
REMARK    2  A    between atoms: C_7  and  N_8
REMARK    3  A    between atoms: C_9  and  C_11
REMARK    4  A    between atoms: N_13  and  C_14
REMARK    5  A    between atoms: C_14  and  C_15
REMARK    6  A    between atoms: C_15  and  C_17
REMARK    7  A    between atoms: C_15  and  N_63
REMARK    8  A    between atoms: N_25  and  C_26
REMARK                            x       y       z     vdW  Elec       q    Type
REMARK                         _______ _______ _______ _____ _____    ______ ____
ROOT
ATOM      1  C   UNL     1       0.614   0.549  -0.587  0.00  0.00    -0.020 C 
ENDROOT
BRANCH   1   2
ATOM      2  C   UNL     1      -0.170   0.742  -1.860  0.00  0.00    -0.059 A 
ATOM      3  C   UNL     1      -0.882   1.910  -2.065  0.00  0.00    +0.004 A 
ATOM      4  C   UNL     1      -1.599   2.092  -3.229  0.00  0.00    +0.023 A 
ATOM      5  C   UNL     1      -1.619   1.095  -4.203  0.00  0.00    +0.033 A 
ATOM      6  C   UNL     1      -0.901  -0.075  -3.987  0.00  0.00    -0.025 A 
ATOM      7  C   UNL     1      -0.183  -0.251  -2.823  0.00  0.00    +0.007 A 
ATOM      8  C   UNL     1      -1.088  -0.968  -5.197  0.00  0.00    +0.056 C 
ATOM      9  C   UNL     1      -1.641   0.007  -6.262  0.00  0.00    +0.109 C 
ATOM     10  N   UNL     1      -2.279   1.057  -5.438  0.00  0.00    -0.332 N 
ATOM     11  C   UNL     1      -2.217   2.363  -6.108  0.00  0.00    +0.129 C 
ENDBRANCH   1   2
BRANCH   1  17
ATOM     12  C   UNL     1      -1.510  -0.311   0.196  0.00  0.00    -0.078 C 
ATOM     13  C   UNL     1      -2.381  -0.504   1.439  0.00  0.00    -0.019 C 
ATOM     14  C   UNL     1      -2.781   0.866   1.993  0.00  0.00    -0.004 C 
ATOM     15  C   UNL     1      -1.517   1.670   2.309  0.00  0.00    -0.019 C 
ATOM     16  C   UNL     1      -0.671   1.800   1.040  0.00  0.00    -0.078 C 
ATOM     17  N   UNL     1      -0.298   0.448   0.571  0.00  0.00    +0.385 N 
ATOM     18  H   UNL     1       0.183  -0.047   1.331  0.00  0.00    -0.081 HD
ENDBRANCH   1  17
BRANCH   1  19
ATOM     19  C   UNL     1       1.559   1.735  -0.385  0.00  0.00    +0.094 C 
BRANCH  19  22
ATOM     20  C   UNL     1       3.279   2.434   1.193  0.00  0.00    +0.299 C 
ATOM     21  O   UNL     1       3.479   3.408   0.498  0.00  0.00    -0.265 OA
ATOM     22  N   UNL     1       2.339   1.535   0.839  0.00  0.00    -0.309 N 
ATOM     23  H   UNL     1       2.179   0.756   1.394  0.00  0.00    +0.149 HD
BRANCH  20  25
ATOM     24  N   UNL     1       5.014   3.128   2.795  0.00  0.00    -0.277 N 
ATOM     25  C   UNL     1       4.074   2.230   2.440  0.00  0.00    +0.303 C 
ATOM     26  O   UNL     1       3.874   1.255   3.135  0.00  0.00    -0.265 OA
ATOM     27  H   UNL     1       5.129   3.941   2.277  0.00  0.00    +0.155 HD
BRANCH  24  34
ATOM     28  C   UNL     1       7.787   3.735   2.591  0.00  0.00    +0.045 C 
ATOM     29  C   UNL     1       7.184   3.171   3.852  0.00  0.00    -0.029 A 
ATOM     30  C   UNL     1       7.983   2.934   4.954  0.00  0.00    +0.006 A 
ATOM     31  C   UNL     1       7.431   2.417   6.112  0.00  0.00    +0.020 A 
ATOM     32  C   UNL     1       6.077   2.135   6.171  0.00  0.00    +0.043 A 
ATOM     33  C   UNL     1       5.272   2.375   5.074  0.00  0.00    +0.043 A 
ATOM     34  C   UNL     1       5.825   2.889   3.908  0.00  0.00    +0.038 A 
ATOM     35 CL   UNL     1       5.389   1.487   7.627  0.00  0.00    -0.083 Cl
ENDBRANCH  24  34
ENDBRANCH  20  25
ENDBRANCH  19  22
ENDBRANCH   1  19
TORSDOF 6
