REMARK  Name = ZINC01100045
REMARK  7 active torsions:
REMARK  status: ('A' for Active; 'I' for Inactive)
REMARK    1  A    between atoms: C_1  and  C_2
REMARK    2  A    between atoms: C_5  and  C_7
REMARK    3  A    between atoms: N_9  and  N_10
REMARK    4  A    between atoms: C_11  and  C_12
REMARK    5  A    between atoms: C_17  and  O_18
REMARK    6  A    between atoms: O_18  and  C_19
REMARK    7  A    between atoms: C_19  and  C_20
REMARK                            x       y       z     vdW  Elec       q    Type
REMARK                         _______ _______ _______ _____ _____    ______ ____
ROOT
ATOM      1  C   UNL     1      -5.326   7.707  -0.257  0.00  0.00    +0.036 A 
ATOM      2  C   UNL     1      -5.508   9.091  -0.285  0.00  0.00    +0.013 A 
ATOM      3  C   UNL     1      -4.428   9.923  -0.493  0.00  0.00    +0.001 A 
ATOM      4  C   UNL     1      -3.162   9.391  -0.671  0.00  0.00    +0.004 A 
ATOM      5  C   UNL     1      -2.968   8.023  -0.641  0.00  0.00    +0.046 A 
ATOM      6  C   UNL     1      -4.042   7.174  -0.432  0.00  0.00    +0.130 A 
ENDROOT
BRANCH   1   8
ATOM      7  N   UNL     1      -6.314   5.524  -0.079  0.00  0.00    -0.187 NA
ATOM      8  C   UNL     1      -6.477   6.812  -0.041  0.00  0.00    +0.142 C 
BRANCH   7  11
ATOM      9  C   UNL     1      -7.257   3.344   0.067  0.00  0.00    +0.299 C 
ATOM     10  O   UNL     1      -6.144   2.885   0.250  0.00  0.00    -0.265 OA
ATOM     11  N   UNL     1      -7.428   4.676  -0.041  0.00  0.00    -0.200 N 
ATOM     12  H   UNL     1      -8.323   5.048  -0.091  0.00  0.00    +0.178 HD
BRANCH   9  17
ATOM     13  C   UNL     1     -11.965   1.731  -0.487  0.00  0.00    +0.086 C 
ATOM     14  C   UNL     1     -10.473   1.733  -0.280  0.00  0.00    +0.103 A 
ATOM     15  C   UNL     1      -9.701   0.637  -0.104  0.00  0.00    +0.045 A 
ATOM     16  C   UNL     1      -8.379   1.083   0.047  0.00  0.00    +0.055 A 
ATOM     17  C   UNL     1      -8.412   2.446  -0.037  0.00  0.00    +0.191 A 
ATOM     18  O   UNL     1      -9.692   2.821  -0.239  0.00  0.00    -0.455 OA
ENDBRANCH   9  17
ENDBRANCH   7  11
ENDBRANCH   1   8
BRANCH   6  19
ATOM     19  O   UNL     1      -3.851   5.829  -0.401  0.00  0.00    -0.487 OA
BRANCH  19  20
ATOM     20  C   UNL     1      -2.501   5.364  -0.438  0.00  0.00    +0.265 C 
BRANCH  20  21
ATOM     21  C   UNL     1      -2.490   3.863  -0.573  0.00  0.00    -0.003 A 
ATOM     22  C   UNL     1      -3.661   3.176  -0.672  0.00  0.00    +0.007 A 
ATOM     23  C   UNL     1      -3.671   1.789  -0.797  0.00  0.00    +0.001 A 
ATOM     24  C   UNL     1      -2.510   1.079  -0.824  0.00  0.00    +0.008 A 
ATOM     25  C   UNL     1      -1.280   1.754  -0.730  0.00  0.00    -0.018 A 
ATOM     26  C   UNL     1      -1.271   3.165  -0.597  0.00  0.00    -0.011 A 
ATOM     27  C   UNL     1      -0.042   3.839  -0.496  0.00  0.00    +0.009 A 
ATOM     28  C   UNL     1       1.119   3.129  -0.522  0.00  0.00    +0.001 A 
ATOM     29  C   UNL     1       1.110   1.741  -0.648  0.00  0.00    +0.001 A 
ATOM     30  C   UNL     1      -0.061   1.055  -0.748  0.00  0.00    +0.008 A 
ENDBRANCH  20  21
ENDBRANCH  19  20
ENDBRANCH   6  19
TORSDOF 6
