REMARK  Name = ZINC19075043
REMARK  13 active torsions:
REMARK  status: ('A' for Active; 'I' for Inactive)
REMARK    1  A    between atoms: C_1  and  C_2
REMARK    2  A    between atoms: C_2  and  C_36
REMARK    3  A    between atoms: C_7  and  C_35
REMARK    4  A    between atoms: N_13  and  C_14
REMARK    5  A    between atoms: C_14  and  C_15
REMARK    6  A    between atoms: C_15  and  C_16
REMARK    7  A    between atoms: C_16  and  C_17
REMARK    8  A    between atoms: C_17  and  C_18
REMARK    9  A    between atoms: C_18  and  C_19
REMARK   10  A    between atoms: C_19  and  N_20
REMARK   11  A    between atoms: C_25  and  C_34
REMARK   12  A    between atoms: C_30  and  C_32
REMARK   13  A    between atoms: C_30  and  C_33
REMARK                            x       y       z     vdW  Elec       q    Type
REMARK                         _______ _______ _______ _____ _____    ______ ____
ROOT
ATOM      1  C   UNL     1       3.636   8.726  -1.917  0.00  0.00    +0.002 C 
ENDROOT
BRANCH   1   2
ATOM      2  C   UNL     1       2.784   7.842  -1.004  0.00  0.00    +0.019 C 
BRANCH   2   3
ATOM      3  C   UNL     1       1.930   6.901  -1.856  0.00  0.00    +0.106 C 
BRANCH   3  15
ATOM      4  C   UNL     1       0.002  -0.004   0.002  0.00  0.00    +0.011 C 
ATOM      5  C   UNL     1      -0.019   1.545   0.011  0.00  0.00    -0.033 C 
ATOM      6  C   UNL     1      -0.702   1.989  -1.270  0.00  0.00    +0.029 C 
ATOM      7  C   UNL     1      -1.428   3.328  -1.148  0.00  0.00    +0.079 C 
ATOM      8  C   UNL     1      -2.435   3.189   0.023  0.00  0.00    +0.030 C 
ATOM      9  C   UNL     1      -1.453   3.294   1.222  0.00  0.00    -0.014 C 
ATOM     10  C   UNL     1      -0.685   1.977   1.302  0.00  0.00    +0.014 C 
ATOM     11  C   UNL     1      -0.491   4.412   0.760  0.00  0.00    +0.116 C 
ATOM     12  N   UNL     1      -0.473   4.364  -0.710  0.00  0.00    -0.282 N 
ATOM     13  C   UNL     1       0.278   5.143  -1.515  0.00  0.00    +0.302 C 
ATOM     14  O   UNL     1       0.200   5.022  -2.723  0.00  0.00    -0.253 OA
ATOM     15  N   UNL     1       1.114   6.055  -0.981  0.00  0.00    -0.299 N 
ATOM     16  C   UNL     1      -2.169   3.646   2.534  0.00  0.00    +0.013 C 
ATOM     17  C   UNL     1       1.449   1.997  -0.001  0.00  0.00    +0.011 C 
ATOM     18  H   UNL     1       1.176   6.152  -0.018  0.00  0.00    +0.150 HD
ENDBRANCH   3  15
ENDBRANCH   2   3
ENDBRANCH   1   2
BRANCH   1  19
ATOM     19  C   UNL     1       4.489   9.667  -1.065  0.00  0.00    +0.002 C 
BRANCH  19  20
ATOM     20  C   UNL     1       5.341  10.550  -1.978  0.00  0.00    +0.019 C 
BRANCH  20  21
ATOM     21  C   UNL     1       6.195  11.491  -1.125  0.00  0.00    +0.106 C 
BRANCH  21  22
ATOM     22  N   UNL     1       7.011  12.337  -2.000  0.00  0.00    -0.299 N 
ATOM     23  C   UNL     1       7.847  13.249  -1.466  0.00  0.00    +0.302 C 
ATOM     24  O   UNL     1       7.925  13.370  -0.259  0.00  0.00    -0.253 OA
ATOM     25  N   UNL     1       8.598  14.028  -2.271  0.00  0.00    -0.282 N 
ATOM     26  C   UNL     1       8.605  13.990  -3.742  0.00  0.00    +0.116 C 
ATOM     27  C   UNL     1       9.662  15.020  -4.201  0.00  0.00    -0.014 C 
ATOM     28  C   UNL     1       9.650  16.048  -3.036  0.00  0.00    +0.030 C 
ATOM     29  C   UNL     1       9.543  15.074  -1.834  0.00  0.00    +0.079 C 
ATOM     30  C   UNL     1      10.927  14.457  -1.639  0.00  0.00    +0.029 C 
ATOM     31  C   UNL     1      11.477  13.776  -2.879  0.00  0.00    -0.033 C 
ATOM     32  C   UNL     1      11.036  14.353  -4.210  0.00  0.00    +0.014 C 
ATOM     33  C   UNL     1      13.020  13.895  -2.817  0.00  0.00    +0.011 C 
ATOM     34  C   UNL     1      11.156  12.274  -2.828  0.00  0.00    +0.011 C 
ATOM     35  C   UNL     1       9.304  15.662  -5.550  0.00  0.00    +0.013 C 
ATOM     36  H   UNL     1       6.949  12.241  -2.963  0.00  0.00    +0.150 HD
ENDBRANCH  21  22
ENDBRANCH  20  21
ENDBRANCH  19  20
ENDBRANCH   1  19
TORSDOF 7
