REMARK  Name = ZINC27604102
REMARK  15 active torsions:
REMARK  status: ('A' for Active; 'I' for Inactive)
REMARK    1  A    between atoms: C_1  and  C_2
REMARK    2  A    between atoms: C_2  and  C_3
REMARK    3  A    between atoms: C_3  and  C_4
REMARK    4  A    between atoms: C_4  and  N_5
REMARK    5  A    between atoms: C_9  and  S_30
REMARK    6  A    between atoms: C_13  and  C_14
REMARK    7  A    between atoms: C_14  and  N_15
REMARK    8  A    between atoms: N_15  and  C_16
REMARK    9  A    between atoms: N_15  and  C_27
REMARK   10  A    between atoms: C_16  and  C_17
REMARK   11  A    between atoms: C_19  and  O_25
REMARK   12  A    between atoms: C_22  and  O_23
REMARK   13  A    between atoms: O_23  and  C_24
REMARK   14  A    between atoms: O_25  and  C_26
REMARK   15  A    between atoms: S_30  and  N_33
REMARK                            x       y       z     vdW  Elec       q    Type
REMARK                         _______ _______ _______ _____ _____    ______ ____
ROOT
ATOM      1  N   UNL     1      -5.434  -2.031  -1.776  0.00  0.00    -0.329 N 
ATOM      2  C   UNL     1      -4.852  -1.601  -0.600  0.00  0.00    +0.069 A 
ATOM      3  C   UNL     1      -3.880  -0.659  -0.290  0.00  0.00    +0.030 A 
ATOM      4  C   UNL     1      -3.512  -0.464   1.024  0.00  0.00    +0.030 A 
ATOM      5  C   UNL     1      -4.108  -1.202   2.038  0.00  0.00    +0.107 A 
ATOM      6  C   UNL     1      -5.062  -2.136   1.751  0.00  0.00    +0.058 A 
ATOM      7  C   UNL     1      -5.455  -2.347   0.426  0.00  0.00    +0.091 A 
ATOM      8  N   UNL     1      -6.353  -3.177  -0.163  0.00  0.00    -0.234 NA
ATOM      9  C   UNL     1      -6.341  -2.991  -1.451  0.00  0.00    +0.094 A 
ENDROOT
BRANCH   5  10
ATOM     10  S   UNL     1      -3.622  -0.936   3.710  0.00  0.00    +0.056 S 
ATOM     11  O   UNL     1      -2.310  -0.391   3.671  0.00  0.00    -0.153 OA
ATOM     12  O   UNL     1      -3.931  -2.129   4.417  0.00  0.00    -0.153 OA
BRANCH  10  13
ATOM     13  N   UNL     1      -4.607   0.246   4.324  0.00  0.00    -0.204 NA
ATOM     14  H   UNL     1      -4.335   0.442   5.371  0.00  0.00    +0.144 HD
ATOM     15  H   UNL     1      -5.654  -0.087   4.273  0.00  0.00    +0.144 HD
ENDBRANCH  10  13
ENDBRANCH   5  10
BRANCH   1  16
ATOM     16  C   UNL     1      -5.130  -1.544  -3.124  0.00  0.00    +0.123 C 
BRANCH  16  17
ATOM     17  C   UNL     1      -3.924  -2.303  -3.681  0.00  0.00    +0.021 C 
BRANCH  17  19
ATOM     18  C   UNL     1      -2.334  -2.480  -5.600  0.00  0.00    +0.004 C 
ATOM     19  C   UNL     1      -3.540  -1.721  -5.043  0.00  0.00    -0.002 C 
ENDBRANCH  17  19
ENDBRANCH  16  17
ENDBRANCH   1  16
BRANCH   9  20
ATOM     20  C   UNL     1      -7.206  -3.732  -2.438  0.00  0.00    -0.002 C 
BRANCH  20  21
ATOM     21  N   UNL     1      -8.405  -2.936  -2.732  0.00  0.00    +0.389 N 
ATOM     22  H   UNL     1      -8.077  -1.961  -3.121  0.00  0.00    -0.080 HD
BRANCH  21  23
ATOM     23  C   UNL     1      -9.188  -2.695  -1.513  0.00  0.00    -0.068 C 
ATOM     24  C   UNL     1     -10.593  -3.297  -1.444  0.00  0.00    -0.017 C 
ATOM     25  C   UNL     1     -10.416  -1.789  -1.629  0.00  0.00    -0.017 C 
ENDBRANCH  21  23
BRANCH  21  26
ATOM     26  C   UNL     1      -9.226  -3.582  -3.765  0.00  0.00    -0.038 C 
BRANCH  26  27
ATOM     27  C   UNL     1      -8.516  -3.503  -5.092  0.00  0.00    -0.019 A 
ATOM     28  C   UNL     1      -8.813  -2.482  -5.974  0.00  0.00    +0.051 A 
ATOM     29  C   UNL     1      -8.156  -2.405  -7.193  0.00  0.00    +0.121 A 
ATOM     30  C   UNL     1      -7.209  -3.361  -7.532  0.00  0.00    +0.049 A 
ATOM     31  C   UNL     1      -6.916  -4.385  -6.652  0.00  0.00    +0.049 A 
ATOM     32  C   UNL     1      -7.569  -4.458  -5.431  0.00  0.00    +0.122 A 
BRANCH  32  33
ATOM     33  O   UNL     1      -7.281  -5.466  -4.565  0.00  0.00    -0.495 OA
ATOM     34  C   UNL     1      -6.296  -6.415  -4.978  0.00  0.00    +0.277 C 
ENDBRANCH  32  33
BRANCH  29  35
ATOM     35  O   UNL     1      -8.444  -1.397  -8.059  0.00  0.00    -0.495 OA
ATOM     36  C   UNL     1      -7.733  -1.384  -9.299  0.00  0.00    +0.277 C 
ENDBRANCH  29  35
ENDBRANCH  26  27
ENDBRANCH  21  26
ENDBRANCH  20  21
ENDBRANCH   9  20
TORSDOF 12
