REMARK  Name = ZINC09868678
REMARK  9 active torsions:
REMARK  status: ('A' for Active; 'I' for Inactive)
REMARK    1  A    between atoms: C_1  and  C_2
REMARK    2  A    between atoms: C_2  and  C_3
REMARK    3  A    between atoms: C_3  and  C_5
REMARK    4  A    between atoms: C_3  and  C_6
REMARK    5  A    between atoms: C_11  and  O_12
REMARK    6  A    between atoms: O_12  and  C_13
REMARK    7  A    between atoms: C_13  and  C_15
REMARK    8  A    between atoms: C_13  and  C_16
REMARK    9  A    between atoms: N_18  and  C_19
REMARK                            x       y       z     vdW  Elec       q    Type
REMARK                         _______ _______ _______ _____ _____    ______ ____
ROOT
ATOM      1  C   UNL     1      -2.379   5.226   0.144  0.00  0.00    +0.256 C 
ATOM      2  C   UNL     1      -2.450   5.861  -1.247  0.00  0.00    +0.062 C 
ENDROOT
BRANCH   1   3
ATOM      3  C   UNL     1      -3.540   5.708   0.975  0.00  0.00    +0.258 C 
ATOM      4  O   UNL     1      -4.340   4.912   1.419  0.00  0.00    -0.271 OA
ATOM      5  N   UNL     1      -3.689   7.024   1.225  0.00  0.00    -0.282 N 
ATOM      6  H   UNL     1      -3.086   7.667   0.819  0.00  0.00    +0.155 HD
BRANCH   5   7
ATOM      7  C   UNL     1      -4.714   7.464   2.071  0.00  0.00    +0.048 A 
ATOM      8  C   UNL     1      -5.934   6.802   2.089  0.00  0.00    +0.024 A 
ATOM      9  C   UNL     1      -6.942   7.236   2.928  0.00  0.00    +0.002 A 
ATOM     10  C   UNL     1      -6.740   8.335   3.743  0.00  0.00    +0.001 A 
ATOM     11  C   UNL     1      -5.528   9.000   3.724  0.00  0.00    +0.017 A 
ATOM     12  C   UNL     1      -4.514   8.568   2.890  0.00  0.00    +0.039 A 
ATOM     13 BR   UNL     1      -2.857   9.479   2.865  0.00  0.00    -0.048 Br
ENDBRANCH   5   7
ENDBRANCH   1   3
BRANCH   1  14
ATOM     14  O   UNL     1      -2.439   3.804   0.021  0.00  0.00    -0.480 OA
BRANCH  14  20
ATOM     15  C   UNL     1      -1.237   1.752  -0.028  0.00  0.00    -0.003 A 
ATOM     16  C   UNL     1      -0.032   1.078  -0.078  0.00  0.00    +0.007 A 
ATOM     17  C   UNL     1       1.154   1.785  -0.143  0.00  0.00    +0.001 A 
ATOM     18  C   UNL     1       1.138   3.167  -0.153  0.00  0.00    +0.004 A 
ATOM     19  C   UNL     1      -0.064   3.846  -0.099  0.00  0.00    +0.046 A 
ATOM     20  C   UNL     1      -1.256   3.139  -0.033  0.00  0.00    +0.125 A 
BRANCH  15  21
ATOM     21  C   UNL     1      -2.530   0.980   0.036  0.00  0.00    +0.019 C 
ATOM     22  C   UNL     1      -2.542   0.109   1.294  0.00  0.00    +0.012 C 
BRANCH  21  24
ATOM     23  C   UNL     1      -4.022  -0.598  -1.199  0.00  0.00    +0.004 C 
ATOM     24  C   UNL     1      -2.655   0.090  -1.202  0.00  0.00    +0.004 C 
ENDBRANCH  21  24
ENDBRANCH  15  21
ENDBRANCH  14  20
ENDBRANCH   1  14
TORSDOF 6
