REMARK  Name = ZINC08327198
REMARK  4 active torsions:
REMARK  status: ('A' for Active; 'I' for Inactive)
REMARK    1  A    between atoms: C_1  and  C_2
REMARK    2  A    between atoms: C_2  and  C_17
REMARK    3  A    between atoms: N_5  and  C_9
REMARK    4  A    between atoms: C_9  and  C_10
REMARK                            x       y       z     vdW  Elec       q    Type
REMARK                         _______ _______ _______ _____ _____    ______ ____
ROOT
ATOM      1  C   UNL     1       1.032   7.977   1.464  0.00  0.00    +0.047 C 
ATOM      2  C   UNL     1       1.044   7.447   0.029  0.00  0.00    +0.135 C 
ATOM      3  C   UNL     1       2.231   8.000  -0.735  0.00  0.00    +0.251 C 
ATOM      4  O   UNL     1       3.405   7.840  -0.479  0.00  0.00    -0.272 OA
ATOM      5  N   UNL     1       1.709   8.707  -1.757  0.00  0.00    -0.219 N 
ATOM      6  C   UNL     1       0.371   8.677  -1.746  0.00  0.00    +0.310 C 
ATOM      7  O   UNL     1      -0.324   9.240  -2.568  0.00  0.00    -0.252 OA
ATOM      8  N   UNL     1      -0.120   7.953  -0.719  0.00  0.00    -0.281 N 
ATOM      9  H   UNL     1      -1.055   7.795  -0.513  0.00  0.00    +0.152 HD
ENDROOT
BRANCH   2  10
ATOM     10  C   UNL     1       1.064   5.940   0.022  0.00  0.00    -0.015 A 
ATOM     11  C   UNL     1       2.286   5.270   0.007  0.00  0.00    +0.007 A 
ATOM     12  C   UNL     1       2.340   3.910  -0.000  0.00  0.00    +0.009 A 
ATOM     13  C   UNL     1       1.147   3.167   0.008  0.00  0.00    -0.018 A 
ATOM     14  C   UNL     1       1.163   1.762   0.000  0.00  0.00    +0.008 A 
ATOM     15  C   UNL     1      -0.013   1.076   0.008  0.00  0.00    +0.001 A 
ATOM     16  C   UNL     1      -1.235   1.746   0.017  0.00  0.00    +0.001 A 
ATOM     17  C   UNL     1      -1.288   3.106   0.031  0.00  0.00    +0.008 A 
ATOM     18  C   UNL     1      -0.096   3.849   0.023  0.00  0.00    -0.018 A 
ATOM     19  C   UNL     1      -0.111   5.254   0.029  0.00  0.00    +0.014 A 
ENDBRANCH   2  10
BRANCH   5  20
ATOM     20  C   UNL     1       2.508   9.419  -2.757  0.00  0.00    +0.156 C 
BRANCH  20  21
ATOM     21  C   UNL     1       2.802   8.500  -3.914  0.00  0.00    +0.006 A 
ATOM     22  C   UNL     1       4.032   7.877  -4.007  0.00  0.00    +0.008 A 
ATOM     23  C   UNL     1       4.300   7.029  -5.065  0.00  0.00    +0.000 A 
ATOM     24  C   UNL     1       3.342   6.811  -6.037  0.00  0.00    +0.003 A 
ATOM     25  C   UNL     1       2.113   7.437  -5.950  0.00  0.00    +0.038 A 
ATOM     26  C   UNL     1       1.841   8.283  -4.887  0.00  0.00    +0.128 A 
ATOM     27  F   UNL     1       0.640   8.894  -4.800  0.00  0.00    -0.205 F 
ENDBRANCH  20  21
ENDBRANCH   5  20
TORSDOF 3
