REMARK  Name = ZINC16286124
REMARK  7 active torsions:
REMARK  status: ('A' for Active; 'I' for Inactive)
REMARK    1  A    between atoms: C_1  and  N_2
REMARK    2  A    between atoms: C_16  and  C_19
REMARK    3  A    between atoms: C_19  and  C_20
REMARK    4  A    between atoms: C_20  and  S_21
REMARK    5  A    between atoms: S_21  and  C_22
REMARK    6  A    between atoms: N_25  and  C_28
REMARK    7  A    between atoms: C_28  and  C_29
REMARK                            x       y       z     vdW  Elec       q    Type
REMARK                         _______ _______ _______ _____ _____    ______ ____
ROOT
ATOM      1  C   UNL     1      -0.018   1.461   0.010  0.00  0.00    +0.138 C 
ATOM      2  N   UNL     1       0.002  -0.004   0.002  0.00  0.00    -0.272 N 
ATOM      3  C   UNL     1       0.008  -0.777  -1.161  0.00  0.00    +0.041 A 
ATOM      4  C   UNL     1       0.002  -0.400  -2.502  0.00  0.00    +0.024 A 
ATOM      5  C   UNL     1       0.010  -1.359  -3.494  0.00  0.00    +0.002 A 
ATOM      6  C   UNL     1       0.025  -2.702  -3.164  0.00  0.00    +0.000 A 
ATOM      7  C   UNL     1       0.032  -3.084  -1.835  0.00  0.00    +0.008 A 
ATOM      8  C   UNL     1       0.023  -2.132  -0.839  0.00  0.00    +0.004 A 
ATOM      9  C   UNL     1       0.031  -2.196   0.659  0.00  0.00    +0.136 C 
ATOM     10  C   UNL     1       0.023  -0.762   1.115  0.00  0.00    +0.245 C 
ATOM     11  O   UNL     1       0.031  -0.366   2.262  0.00  0.00    -0.273 OA
ATOM     12  C   UNL     1      -1.119  -2.996   1.236  0.00  0.00    +0.122 C 
ATOM     13  C   UNL     1      -0.516  -4.428   0.965  0.00  0.00    +0.107 C 
ATOM     14  C   UNL     1       0.865  -4.321   1.454  0.00  0.00    +0.068 C 
ATOM     15  N   UNL     1       1.251  -2.890   1.157  0.00  0.00    -0.295 NA
ATOM     16  C   UNL     1      -1.677  -5.273   1.106  0.00  0.00    +0.227 C 
ATOM     17  O   UNL     1      -1.719  -6.404   1.542  0.00  0.00    -0.275 OA
ATOM     18  N   UNL     1      -2.723  -4.517   0.638  0.00  0.00    -0.237 N 
ATOM     19  C   UNL     1      -2.401  -3.186   0.485  0.00  0.00    +0.229 C 
ATOM     20  O   UNL     1      -3.018  -2.342  -0.130  0.00  0.00    -0.275 OA
ATOM     21  H   UNL     1       1.996  -2.842   0.479  0.00  0.00    +0.123 HD
ENDROOT
BRANCH  14  22
ATOM     22  C   UNL     1       0.925  -4.617   2.954  0.00  0.00    +0.030 C 
BRANCH  22  23
ATOM     23  C   UNL     1       2.384  -4.621   3.415  0.00  0.00    +0.070 C 
BRANCH  23  24
ATOM     24  S   UNL     1       2.455  -4.972   5.193  0.00  0.00    -0.164 S 
ATOM     25  C   UNL     1       4.228  -4.943   5.576  0.00  0.00    +0.084 C 
ENDBRANCH  23  24
ENDBRANCH  22  23
ENDBRANCH  14  22
BRANCH  18  26
ATOM     26  C   UNL     1      -4.050  -5.064   0.344  0.00  0.00    +0.151 C 
BRANCH  26  27
ATOM     27  C   UNL     1      -4.910  -4.986   1.579  0.00  0.00    -0.030 A 
ATOM     28  C   UNL     1      -4.926  -6.036   2.478  0.00  0.00    +0.005 A 
ATOM     29  C   UNL     1      -5.715  -5.965   3.610  0.00  0.00    +0.000 A 
ATOM     30  C   UNL     1      -6.489  -4.843   3.844  0.00  0.00    +0.000 A 
ATOM     31  C   UNL     1      -6.473  -3.793   2.945  0.00  0.00    +0.000 A 
ATOM     32  C   UNL     1      -5.680  -3.862   1.815  0.00  0.00    +0.005 A 
ENDBRANCH  26  27
ENDBRANCH  18  26
TORSDOF 5
