REMARK  Name = ZINC38670222
REMARK  14 active torsions:
REMARK  status: ('A' for Active; 'I' for Inactive)
REMARK    1  A    between atoms: C_1  and  C_2
REMARK    2  A    between atoms: C_2  and  C_3
REMARK    3  A    between atoms: C_2  and  C_4
REMARK    4  A    between atoms: C_2  and  C_5
REMARK    5  A    between atoms: C_8  and  O_11
REMARK    6  A    between atoms: O_11  and  C_12
REMARK    7  A    between atoms: C_12  and  C_13
REMARK    8  A    between atoms: N_15  and  C_16
REMARK    9  A    between atoms: C_16  and  C_17
REMARK   10  A    between atoms: C_17  and  C_19
REMARK   11  A    between atoms: C_17  and  N_30
REMARK   12  A    between atoms: N_28  and  C_29
REMARK   13  A    between atoms: N_30  and  C_31
REMARK   14  A    between atoms: N_30  and  C_32
REMARK                            x       y       z     vdW  Elec       q    Type
REMARK                         _______ _______ _______ _____ _____    ______ ____
ROOT
ATOM      1  C   UNL     1       6.286  -1.915  -7.782  0.00  0.00    +0.093 C 
ENDROOT
BRANCH   1   4
ATOM      2  C   UNL     1       4.205  -1.651  -9.021  0.00  0.00    +0.251 C 
ATOM      3  O   UNL     1       3.654  -2.334  -8.184  0.00  0.00    -0.272 OA
ATOM      4  N   UNL     1       5.521  -1.383  -8.912  0.00  0.00    -0.314 N 
ATOM      5  H   UNL     1       5.962  -0.836  -9.582  0.00  0.00    +0.149 HD
BRANCH   2   6
ATOM      6  C   UNL     1       3.418  -1.103 -10.184  0.00  0.00    +0.324 C 
BRANCH   6   7
ATOM      7  O   UNL     1       2.056  -1.523 -10.078  0.00  0.00    -0.483 OA
BRANCH   7  11
ATOM      8  C   UNL     1      -0.526  -0.273 -13.042  0.00  0.00    -0.042 A 
ATOM      9  C   UNL     1      -0.993  -1.063 -12.007  0.00  0.00    +0.008 A 
ATOM     10  C   UNL     1      -0.131  -1.483 -11.014  0.00  0.00    +0.046 A 
ATOM     11  C   UNL     1       1.206  -1.112 -11.054  0.00  0.00    +0.121 A 
ATOM     12  C   UNL     1       1.672  -0.320 -12.094  0.00  0.00    +0.046 A 
ATOM     13  C   UNL     1       0.806   0.093 -13.088  0.00  0.00    +0.008 A 
BRANCH   8  15
ATOM     14  C   UNL     1      -0.987  -0.343 -15.477  0.00  0.00    +0.015 C 
ATOM     15  C   UNL     1      -1.470   0.184 -14.124  0.00  0.00    -0.013 C 
ATOM     16  C   UNL     1      -1.507   1.713 -14.156  0.00  0.00    +0.015 C 
ATOM     17  C   UNL     1      -2.873  -0.355 -13.838  0.00  0.00    +0.015 C 
ENDBRANCH   8  15
ENDBRANCH   7  11
ENDBRANCH   6   7
ENDBRANCH   2   6
ENDBRANCH   1   4
BRANCH   1  18
ATOM     18  C   UNL     1       7.767  -1.577  -7.965  0.00  0.00    -0.021 C 
BRANCH  18  19
ATOM     19  C   UNL     1       8.296  -2.282  -9.187  0.00  0.00    -0.059 A 
ATOM     20  C   UNL     1       8.639  -3.620  -9.117  0.00  0.00    +0.004 A 
ATOM     21  C   UNL     1       9.125  -4.266 -10.236  0.00  0.00    +0.023 A 
ATOM     22  C   UNL     1       9.269  -3.571 -11.433  0.00  0.00    +0.033 A 
ATOM     23  C   UNL     1       8.922  -2.231 -11.503  0.00  0.00    -0.026 A 
ATOM     24  C   UNL     1       8.432  -1.592 -10.376  0.00  0.00    +0.007 A 
ATOM     25  C   UNL     1       9.054  -1.450 -12.783  0.00  0.00    +0.038 C 
ATOM     26  C   UNL     1      10.039  -2.136 -13.730  0.00  0.00    +0.024 C 
ATOM     27  C   UNL     1       9.641  -3.611 -13.875  0.00  0.00    +0.105 C 
ATOM     28  N   UNL     1       9.768  -4.242 -12.554  0.00  0.00    -0.333 N 
ATOM     29  C   UNL     1      10.407  -5.553 -12.414  0.00  0.00    +0.129 C 
ENDBRANCH  18  19
BRANCH  18  30
ATOM     30  N   UNL     1       8.519  -2.017  -6.782  0.00  0.00    +0.382 N 
ATOM     31  C   UNL     1       9.934  -1.653  -6.937  0.00  0.00    -0.096 C 
ATOM     32  C   UNL     1       7.974  -1.364  -5.584  0.00  0.00    -0.096 C 
ATOM     33  H   UNL     1       8.438  -3.018  -6.685  0.00  0.00    -0.082 HD
ENDBRANCH  18  30
ENDBRANCH   1  18
TORSDOF 8
