REMARK  Name = ZINC36118438
REMARK  9 active torsions:
REMARK  status: ('A' for Active; 'I' for Inactive)
REMARK    1  A    between atoms: C_1  and  C_2
REMARK    2  A    between atoms: N_6  and  C_21
REMARK    3  A    between atoms: C_10  and  C_20
REMARK    4  A    between atoms: N_11  and  C_12
REMARK    5  A    between atoms: C_12  and  C_13
REMARK    6  A    between atoms: C_21  and  C_22
REMARK    7  A    between atoms: N_24  and  C_25
REMARK    8  A    between atoms: C_30  and  C_35
REMARK    9  A    between atoms: C_32  and  C_34
REMARK                            x       y       z     vdW  Elec       q    Type
REMARK                         _______ _______ _______ _____ _____    ______ ____
ROOT
ATOM      1  C   UNL     1      -0.400   1.597   0.137  0.00  0.00    +0.064 C 
ATOM      2  C   UNL     1      -0.172   0.111   0.035  0.00  0.00    +0.026 A 
ATOM      3  C   UNL     1      -0.196  -0.617  -1.108  0.00  0.00    +0.028 A 
ATOM      4  C   UNL     1      -0.417  -0.346  -2.530  0.00  0.00    +0.143 A 
ATOM      5  N   UNL     1      -0.366  -1.318  -3.388  0.00  0.00    -0.176 NA
ATOM      6  N   UNL     1      -0.107  -2.641  -3.039  0.00  0.00    -0.220 N 
ATOM      7  C   UNL     1       0.114  -3.028  -1.765  0.00  0.00    +0.277 A 
ATOM      8  O   UNL     1       0.337  -4.196  -1.500  0.00  0.00    -0.265 OA
ATOM      9  C   UNL     1       0.082  -2.015  -0.707  0.00  0.00    +0.070 A 
ATOM     10  C   UNL     1       0.247  -1.996   0.640  0.00  0.00    +0.029 A 
ATOM     11  N   UNL     1       0.100  -0.726   1.074  0.00  0.00    -0.342 N 
ATOM     12  C   UNL     1       0.549  -3.191   1.506  0.00  0.00    +0.064 C 
ENDROOT
BRANCH  11  13
ATOM     13  C   UNL     1       0.213  -0.306   2.473  0.00  0.00    +0.159 C 
BRANCH  13  14
ATOM     14  C   UNL     1       1.662  -0.070   2.811  0.00  0.00    +0.007 A 
ATOM     15  C   UNL     1       2.420  -1.090   3.356  0.00  0.00    +0.008 A 
ATOM     16  C   UNL     1       3.750  -0.874   3.666  0.00  0.00    +0.000 A 
ATOM     17  C   UNL     1       4.323   0.362   3.431  0.00  0.00    +0.003 A 
ATOM     18  C   UNL     1       3.568   1.383   2.885  0.00  0.00    +0.039 A 
ATOM     19  C   UNL     1       2.237   1.166   2.570  0.00  0.00    +0.128 A 
ATOM     20  F   UNL     1       1.499   2.161   2.032  0.00  0.00    -0.205 F 
ENDBRANCH  13  14
ENDBRANCH  11  13
BRANCH   6  21
ATOM     21  C   UNL     1      -0.075  -3.654  -4.096  0.00  0.00    +0.243 C 
BRANCH  21  22
ATOM     22  C   UNL     1      -1.455  -4.228  -4.285  0.00  0.00    +0.235 C 
ATOM     23  O   UNL     1      -2.376  -3.830  -3.603  0.00  0.00    -0.274 OA
ATOM     24  N   UNL     1      -1.667  -5.184  -5.212  0.00  0.00    -0.311 N 
ATOM     25  H   UNL     1      -0.931  -5.502  -5.757  0.00  0.00    +0.149 HD
BRANCH  24  26
ATOM     26  C   UNL     1      -3.009  -5.741  -5.395  0.00  0.00    +0.076 C 
ATOM     27  C   UNL     1      -3.233  -6.873  -4.390  0.00  0.00    +0.022 C 
ATOM     28  C   UNL     1      -2.190  -7.969  -4.615  0.00  0.00    +0.002 C 
ATOM     29  C   UNL     1      -2.325  -8.517  -6.038  0.00  0.00    +0.003 C 
ATOM     30  C   UNL     1      -2.100  -7.385  -7.043  0.00  0.00    -0.009 C 
ATOM     31  C   UNL     1      -3.144  -6.289  -6.818  0.00  0.00    +0.009 C 
ATOM     32  C   UNL     1      -2.920  -5.157  -7.823  0.00  0.00    +0.009 C 
ATOM     33  C   UNL     1      -2.235  -7.933  -8.465  0.00  0.00    +0.008 C 
ENDBRANCH  24  26
ENDBRANCH  21  22
ENDBRANCH   6  21
TORSDOF 5
