REMARK  Name = ZINC09541492
REMARK  7 active torsions:
REMARK  status: ('A' for Active; 'I' for Inactive)
REMARK    1  A    between atoms: C_1  and  C_2
REMARK    2  A    between atoms: C_2  and  O_3
REMARK    3  A    between atoms: O_3  and  C_4
REMARK    4  A    between atoms: C_7  and  C_10
REMARK    5  A    between atoms: C_12  and  C_25
REMARK    6  A    between atoms: C_14  and  C_17
REMARK    7  A    between atoms: C_22  and  O_23
REMARK                            x       y       z     vdW  Elec       q    Type
REMARK                         _______ _______ _______ _____ _____    ______ ____
ROOT
ATOM      1  C   UNL     1      -0.018   1.470   0.010  0.00  0.00    +0.040 C 
ATOM      2  N   UNL     1      -1.152   2.065   0.019  0.00  0.00    -0.299 NA
ATOM      3  C   UNL     1      -1.316   3.513   0.044  0.00  0.00    +0.081 C 
ATOM      4  C   UNL     1       1.065   3.665   0.402  0.00  0.00    -0.028 C 
ATOM      5  C   UNL     1       1.294   2.204   0.002  0.00  0.00    +0.044 C 
ATOM      6  N   UNL     1      -0.076   4.184  -0.377  0.00  0.00    +0.401 N 
ATOM      7  H   UNL     1      -0.166   5.195  -0.218  0.00  0.00    -0.081 HD
ATOM      8  H   UNL     1       0.084   4.008  -1.375  0.00  0.00    -0.081 HD
ENDROOT
BRANCH   4   9
ATOM      9  C   UNL     1       2.297   4.476   0.094  0.00  0.00    -0.018 A 
ATOM     10  C   UNL     1       2.350   5.244  -1.054  0.00  0.00    +0.025 A 
ATOM     11  C   UNL     1       3.478   5.993  -1.335  0.00  0.00    +0.041 A 
ATOM     12  C   UNL     1       4.560   5.967  -0.472  0.00  0.00    +0.023 A 
ATOM     13  C   UNL     1       4.513   5.197   0.673  0.00  0.00    +0.047 A 
ATOM     14  C   UNL     1       3.380   4.449   0.959  0.00  0.00    +0.119 A 
ATOM     15 CL   UNL     1       3.540   6.962  -2.774  0.00  0.00    -0.084 Cl
BRANCH  14  16
ATOM     16  O   UNL     1       3.332   3.690   2.086  0.00  0.00    -0.507 OA
ATOM     17  H   UNL     1       3.657   2.787   1.966  0.00  0.00    +0.292 HD
ENDBRANCH  14  16
ENDBRANCH   4   9
BRANCH   3  18
ATOM     18  C   UNL     1      -2.429   3.900  -0.896  0.00  0.00    -0.040 A 
ATOM     19  C   UNL     1      -2.416   5.138  -1.510  0.00  0.00    +0.005 A 
ATOM     20  C   UNL     1      -3.433   5.491  -2.376  0.00  0.00    +0.015 A 
ATOM     21  C   UNL     1      -4.471   4.609  -2.620  0.00  0.00    +0.018 A 
ATOM     22  C   UNL     1      -4.486   3.372  -2.001  0.00  0.00    +0.015 A 
ATOM     23  C   UNL     1      -3.465   3.018  -1.140  0.00  0.00    +0.005 A 
ATOM     24 BR   UNL     1      -5.867   5.094  -3.799  0.00  0.00    -0.050 Br
ENDBRANCH   3  18
BRANCH   1  28
ATOM     25  C   UNL     1       0.040  -2.775  -0.014  0.00  0.00    +0.121 A 
ATOM     26  C   UNL     1      -1.174  -2.098   0.002  0.00  0.00    +0.046 A 
ATOM     27  C   UNL     1      -1.197  -0.721   0.010  0.00  0.00    +0.013 A 
ATOM     28  C   UNL     1       0.002  -0.004   0.002  0.00  0.00    -0.004 A 
ATOM     29  C   UNL     1       1.220  -0.688  -0.019  0.00  0.00    +0.013 A 
ATOM     30  C   UNL     1       1.235  -2.066  -0.022  0.00  0.00    +0.046 A 
BRANCH  25  31
ATOM     31  O   UNL     1       0.058  -4.132  -0.021  0.00  0.00    -0.492 OA
BRANCH  31  33
ATOM     32  C   UNL     1       1.160  -6.283  -0.043  0.00  0.00    +0.048 C 
ATOM     33  C   UNL     1       1.340  -4.763  -0.037  0.00  0.00    +0.225 C 
ENDBRANCH  31  33
ENDBRANCH  25  31
ENDBRANCH   1  28
TORSDOF 6
