REMARK  Name = ZINC02955706
REMARK  7 active torsions:
REMARK  status: ('A' for Active; 'I' for Inactive)
REMARK    1  A    between atoms: C_1  and  C_2
REMARK    2  A    between atoms: C_6  and  N_8
REMARK    3  A    between atoms: C_10  and  C_22
REMARK    4  A    between atoms: C_13  and  C_20
REMARK    5  A    between atoms: C_16  and  C_19
REMARK    6  A    between atoms: C_20  and  O_21
REMARK    7  A    between atoms: N_24  and  C_25
REMARK                            x       y       z     vdW  Elec       q    Type
REMARK                         _______ _______ _______ _____ _____    ______ ____
ROOT
ATOM      1  N   UNL     1      -0.489  -2.462   3.352  0.00  0.00    -0.325 N 
ATOM      2  C   UNL     1      -0.857  -3.572   2.751  0.00  0.00    +0.212 A 
ATOM      3  C   UNL     1      -0.438  -4.890   3.269  0.00  0.00    +0.098 A 
ATOM      4  C   UNL     1      -1.251  -5.966   2.988  0.00  0.00    +0.030 A 
ATOM      5  C   UNL     1      -2.457  -5.708   2.198  0.00  0.00    +0.027 A 
ATOM      6  C   UNL     1      -3.475  -6.661   2.075  0.00  0.00    +0.007 A 
ATOM      7  C   UNL     1      -4.583  -6.345   1.316  0.00  0.00    +0.117 A 
ATOM      8  N   UNL     1      -4.689  -5.174   0.715  0.00  0.00    -0.256 NA
ATOM      9  C   UNL     1      -3.758  -4.246   0.799  0.00  0.00    +0.081 A 
ATOM     10  C   UNL     1      -2.607  -4.473   1.540  0.00  0.00    +0.159 A 
ATOM     11  O   UNL     1      -1.637  -3.538   1.640  0.00  0.00    -0.437 OA
ATOM     12  C   UNL     1      -3.945  -2.930   0.088  0.00  0.00    +0.069 C 
ATOM     13  H   UNL     1      -0.027  -2.502   4.204  0.00  0.00    +0.169 HD
ENDROOT
BRANCH   1  19
ATOM     14  C   UNL     1      -2.096   2.141   3.787  0.00  0.00    +0.044 C 
ATOM     15  C   UNL     1      -1.540   1.012   2.958  0.00  0.00    -0.049 A 
ATOM     16  C   UNL     1      -1.299   1.201   1.608  0.00  0.00    +0.003 A 
ATOM     17  C   UNL     1      -0.788   0.170   0.839  0.00  0.00    +0.002 A 
ATOM     18  C   UNL     1      -0.516  -1.054   1.414  0.00  0.00    +0.026 A 
ATOM     19  C   UNL     1      -0.756  -1.251   2.776  0.00  0.00    +0.042 A 
ATOM     20  C   UNL     1      -1.266  -0.204   3.547  0.00  0.00    +0.029 A 
ENDBRANCH   1  19
BRANCH   3  21
ATOM     21  C   UNL     1       0.799  -5.048   4.055  0.00  0.00    +0.253 C 
ATOM     22  O   UNL     1       1.057  -6.116   4.575  0.00  0.00    -0.270 OA
ATOM     23  N   UNL     1       1.645  -4.008   4.196  0.00  0.00    -0.281 N 
ATOM     24  H   UNL     1       1.413  -3.141   3.827  0.00  0.00    +0.155 HD
BRANCH  23  25
ATOM     25  C   UNL     1       2.856  -4.179   4.875  0.00  0.00    +0.034 A 
ATOM     26  C   UNL     1       2.931  -5.047   5.956  0.00  0.00    +0.024 A 
ATOM     27  C   UNL     1       4.128  -5.214   6.624  0.00  0.00    +0.017 A 
ATOM     28  C   UNL     1       5.252  -4.516   6.218  0.00  0.00    +0.018 A 
ATOM     29  C   UNL     1       5.180  -3.650   5.141  0.00  0.00    +0.017 A 
ATOM     30  C   UNL     1       3.987  -3.484   4.465  0.00  0.00    +0.024 A 
ATOM     31 BR   UNL     1       6.889  -4.746   7.136  0.00  0.00    -0.050 Br
ENDBRANCH  23  25
ENDBRANCH   3  21
BRANCH   6  32
ATOM     32  C   UNL     1      -3.364  -8.000   2.756  0.00  0.00    +0.193 C 
BRANCH  32  33
ATOM     33  O   UNL     1      -4.529  -8.778   2.472  0.00  0.00    -0.390 OA
ATOM     34  H   UNL     1      -4.526  -9.655   2.879  0.00  0.00    +0.210 HD
ENDBRANCH  32  33
ENDBRANCH   6  32
TORSDOF 5
