REMARK  Name = ZINC03146789
REMARK  9 active torsions:
REMARK  status: ('A' for Active; 'I' for Inactive)
REMARK    1  A    between atoms: C_1  and  C_2
REMARK    2  A    between atoms: C_5  and  N_8
REMARK    3  A    between atoms: N_19  and  C_20
REMARK    4  A    between atoms: C_20  and  C_22
REMARK    5  A    between atoms: C_20  and  C_32
REMARK    6  A    between atoms: C_23  and  C_24
REMARK    7  A    between atoms: C_32  and  C_33
REMARK    8  A    between atoms: C_32  and  C_34
REMARK    9  A    between atoms: C_32  and  C_35
REMARK                            x       y       z     vdW  Elec       q    Type
REMARK                         _______ _______ _______ _____ _____    ______ ____
ROOT
ATOM      1  N   UNL     1       2.921  -0.492   0.127  0.00  0.00    -0.270 N 
ATOM      2  C   UNL     1       3.990  -1.111   0.667  0.00  0.00    +0.143 C 
ATOM      3  S   UNL     1       5.255  -1.811  -0.250  0.00  0.00    -0.018 S 
ATOM      4  N   UNL     1       3.946  -1.117   2.003  0.00  0.00    -0.287 N 
ATOM      5  C   UNL     1       2.878  -0.520   2.472  0.00  0.00    +0.090 C 
ATOM      6  C   UNL     1       2.101  -0.052   1.263  0.00  0.00    +0.092 C 
ATOM      7  C   UNL     1       0.729  -0.716   1.222  0.00  0.00    +0.034 C 
ATOM      8  C   UNL     1      -0.027  -0.252  -0.026  0.00  0.00    +0.003 C 
ATOM      9  C   UNL     1      -0.178   1.271   0.008  0.00  0.00    +0.000 C 
ATOM     10  C   UNL     1       1.206   1.921   0.023  0.00  0.00    +0.003 C 
ATOM     11  C   UNL     1       1.968   1.466   1.271  0.00  0.00    +0.034 C 
ATOM     12  N   UNL     1       2.538  -0.357   3.776  0.00  0.00    -0.327 N 
ATOM     13  H   UNL     1       1.607   0.166   4.041  0.00  0.00    +0.148 HD
ATOM     14  H   UNL     1       4.683  -1.550   2.696  0.00  0.00    +0.155 HD
ENDROOT
BRANCH   1  19
ATOM     15  C   UNL     1       1.821   0.255  -5.388  0.00  0.00    +0.044 C 
ATOM     16  C   UNL     1       2.113   0.057  -3.922  0.00  0.00    -0.050 A 
ATOM     17  C   UNL     1       1.231   0.536  -2.972  0.00  0.00    +0.005 A 
ATOM     18  C   UNL     1       1.496   0.356  -1.628  0.00  0.00    +0.024 A 
ATOM     19  C   UNL     1       2.650  -0.308  -1.233  0.00  0.00    +0.036 A 
ATOM     20  C   UNL     1       3.537  -0.784  -2.190  0.00  0.00    +0.024 A 
ATOM     21  C   UNL     1       3.263  -0.605  -3.532  0.00  0.00    +0.005 A 
ENDBRANCH   1  19
BRANCH  12  22
ATOM     22  C   UNL     1       3.412  -0.876   4.831  0.00  0.00    +0.100 C 
BRANCH  22  23
ATOM     23  C   UNL     1       3.086  -2.350   5.083  0.00  0.00    -0.016 C 
ATOM     24  C   UNL     1       3.308  -3.149   3.798  0.00  0.00    +0.013 C 
ATOM     25  C   UNL     1       3.998  -2.893   6.186  0.00  0.00    +0.013 C 
ATOM     26  C   UNL     1       1.625  -2.482   5.519  0.00  0.00    +0.013 C 
ENDBRANCH  22  23
BRANCH  22  27
ATOM     27  C   UNL     1       3.192  -0.090   6.098  0.00  0.00    -0.004 C 
ATOM     28  C   UNL     1       4.172   0.653   6.595  0.00  0.00    +0.007 C 
BRANCH  28  29
ATOM     29  C   UNL     1       3.957   1.425   7.837  0.00  0.00    -0.007 A 
ATOM     30  C   UNL     1       2.722   1.378   8.486  0.00  0.00    +0.011 A 
ATOM     31  C   UNL     1       2.529   2.096   9.648  0.00  0.00    +0.020 A 
ATOM     32  C   UNL     1       3.553   2.871  10.165  0.00  0.00    +0.042 A 
ATOM     33  C   UNL     1       4.779   2.926   9.524  0.00  0.00    +0.040 A 
ATOM     34  C   UNL     1       4.986   2.208   8.363  0.00  0.00    +0.049 A 
ATOM     35 CL   UNL     1       6.523   2.278   7.559  0.00  0.00    -0.083 Cl
ATOM     36 CL   UNL     1       3.300   3.776  11.624  0.00  0.00    -0.083 Cl
ENDBRANCH  28  29
ENDBRANCH  22  27
ENDBRANCH  12  22
TORSDOF 5
