REMARK  Name = ZINC43780270
REMARK  3 active torsions:
REMARK  status: ('A' for Active; 'I' for Inactive)
REMARK    1  A    between atoms: C_3  and  C_6
REMARK    2  A    between atoms: N_14  and  C_15
REMARK    3  A    between atoms: C_15  and  C_16
REMARK                            x       y       z     vdW  Elec       q    Type
REMARK                         _______ _______ _______ _____ _____    ______ ____
ROOT
ATOM      1  C   UNL     1       3.761   1.845  -0.024  0.00  0.00    +0.114 C 
ATOM      2  C   UNL     1       4.356   1.771   1.397  0.00  0.00    +0.029 C 
ATOM      3  C   UNL     1       5.822   1.333   1.138  0.00  0.00    +0.021 C 
ATOM      4  C   UNL     1       5.652   0.380  -0.072  0.00  0.00    +0.110 C 
ATOM      5  N   UNL     1       4.590   0.998  -0.893  0.00  0.00    -0.278 N 
ATOM      6  C   UNL     1       4.409   0.814  -2.216  0.00  0.00    +0.303 C 
ATOM      7  O   UNL     1       3.495   1.376  -2.788  0.00  0.00    -0.253 OA
ATOM      8  N   UNL     1       5.241   0.008  -2.905  0.00  0.00    -0.292 N 
ATOM      9  H   UNL     1       5.970  -0.440  -2.449  0.00  0.00    +0.151 HD
ENDROOT
BRANCH   1  12
ATOM     10  C   UNL     1      -0.016   1.351   0.009  0.00  0.00    +0.008 A 
ATOM     11  C   UNL     1       1.183   2.038   0.002  0.00  0.00    +0.013 A 
ATOM     12  C   UNL     1       2.343   1.336  -0.013  0.00  0.00    +0.010 A 
ATOM     13  S   UNL     1       1.754  -0.349  -0.017  0.00  0.00    -0.100 S 
ATOM     14  C   UNL     1       0.002  -0.004   0.002  0.00  0.00    +0.045 A 
ENDBRANCH   1  12
BRANCH   8  15
ATOM     15  C   UNL     1       5.044  -0.191  -4.343  0.00  0.00    +0.182 C 
BRANCH  15  16
ATOM     16  C   UNL     1       6.099  -1.129  -4.869  0.00  0.00    +0.151 A 
ATOM     17  N   UNL     1       7.274  -0.794  -5.335  0.00  0.00    -0.133 NA
ATOM     18  N   UNL     1       7.918  -1.851  -5.689  0.00  0.00    -0.134 NA
ATOM     19  C   UNL     1       7.186  -2.904  -5.462  0.00  0.00    +0.133 A 
ATOM     20  N   UNL     1       6.012  -2.476  -4.943  0.00  0.00    -0.314 N 
ATOM     21  C   UNL     1       4.873  -3.311  -4.559  0.00  0.00    +0.125 C 
ATOM     22  C   UNL     1       5.376  -4.699  -4.153  0.00  0.00    +0.022 C 
ATOM     23  C   UNL     1       5.430  -5.606  -5.382  0.00  0.00    +0.002 C 
ATOM     24  C   UNL     1       6.401  -5.046  -6.417  0.00  0.00    +0.008 C 
ATOM     25  C   UNL     1       7.558  -4.343  -5.712  0.00  0.00    +0.076 C 
ENDBRANCH  15  16
ENDBRANCH   8  15
TORSDOF 3
