REMARK  Name = ZINC36829998
REMARK  5 active torsions:
REMARK  status: ('A' for Active; 'I' for Inactive)
REMARK    1  A    between atoms: C_1  and  C_2
REMARK    2  A    between atoms: C_7  and  C_8
REMARK    3  A    between atoms: C_8  and  C_10
REMARK    4  A    between atoms: C_8  and  N_17
REMARK    5  A    between atoms: N_17  and  C_18
REMARK                            x       y       z     vdW  Elec       q    Type
REMARK                         _______ _______ _______ _____ _____    ______ ____
ROOT
ATOM      1  C   UNL     1       0.208  -0.061   2.555  0.00  0.00    -0.009 C 
ENDROOT
BRANCH   1   8
ATOM      2  C   UNL     1       0.941   0.834  -0.092  0.00  0.00    +0.044 C 
ATOM      3  C   UNL     1       0.494  -0.589   0.125  0.00  0.00    -0.048 A 
ATOM      4  C   UNL     1       0.439  -1.467  -0.941  0.00  0.00    +0.018 A 
ATOM      5  C   UNL     1       0.029  -2.772  -0.741  0.00  0.00    +0.018 A 
ATOM      6  C   UNL     1      -0.327  -3.199   0.526  0.00  0.00    +0.015 A 
ATOM      7  C   UNL     1      -0.272  -2.321   1.591  0.00  0.00    +0.003 A 
ATOM      8  C   UNL     1       0.143  -1.017   1.392  0.00  0.00    -0.054 A 
ATOM      9 BR   UNL     1      -0.046  -3.974  -2.199  0.00  0.00    -0.050 Br
ENDBRANCH   1   8
BRANCH   1  10
ATOM     10  C   UNL     1      -1.174   0.137   3.120  0.00  0.00    -0.035 A 
ATOM     11  C   UNL     1      -1.628  -0.653   4.160  0.00  0.00    +0.026 A 
ATOM     12  C   UNL     1      -2.877  -0.448   4.645  0.00  0.00    +0.056 A 
ATOM     13  S   UNL     1      -3.455   0.895   3.622  0.00  0.00    -0.074 S 
ATOM     14  C   UNL     1      -1.991   1.098   2.621  0.00  0.00    +0.058 A 
ATOM     15 BR   UNL     1      -1.665   2.330   1.224  0.00  0.00    -0.042 Br
ATOM     16 BR   UNL     1      -3.775  -1.352   6.043  0.00  0.00    -0.043 Br
ENDBRANCH   1  10
BRANCH   1  17
ATOM     17  N   UNL     1       1.088  -0.613   3.594  0.00  0.00    +0.384 N 
ATOM     18  C   UNL     1       2.462  -0.694   3.081  0.00  0.00    -0.099 C 
ATOM     19  H   UNL     1       1.067  -0.014   4.406  0.00  0.00    -0.085 HD
ATOM     20  H   UNL     1       0.769  -1.536   3.849  0.00  0.00    -0.085 HD
ENDBRANCH   1  17
TORSDOF 3
