REMARK  Name = ZINC00720501
REMARK  2 active torsions:
REMARK  status: ('A' for Active; 'I' for Inactive)
REMARK    1  A    between atoms: C_8  and  C_24
REMARK    2  A    between atoms: C_14  and  C_19
REMARK                            x       y       z     vdW  Elec       q    Type
REMARK                         _______ _______ _______ _____ _____    ______ ____
ROOT
ATOM      1  C   UNL     1       2.739   3.619  -1.077  0.00  0.00    +0.002 A 
ATOM      2  C   UNL     1       3.600   3.494  -0.002  0.00  0.00    +0.002 A 
ATOM      3  C   UNL     1       3.239   2.729   1.094  0.00  0.00    +0.025 A 
ATOM      4  C   UNL     1       2.011   2.091   1.100  0.00  0.00    +0.052 A 
ATOM      5  C   UNL     1       1.168   2.173   0.003  0.00  0.00    +0.049 A 
ATOM      6  C   UNL     1       1.523   2.960  -1.083  0.00  0.00    +0.025 A 
ATOM      7  N   UNL     1      -0.018   1.443   0.010  0.00  0.00    -0.331 N 
ATOM      8  C   UNL     1       0.002  -0.004   0.002  0.00  0.00    +0.143 C 
ATOM      9  C   UNL     1       0.614  -0.627   1.235  0.00  0.00    +0.037 C 
ATOM     10  C   UNL     1       1.308   0.023   2.184  0.00  0.00    +0.017 C 
ATOM     11  N   UNL     1       1.555   1.359   2.192  0.00  0.00    -0.316 N 
ATOM     12  C   UNL     1       1.871  -0.729   3.379  0.00  0.00    +0.060 C 
ATOM     13  C   UNL     1       2.233  -2.157   2.975  0.00  0.00    +0.039 C 
ATOM     14  C   UNL     1       0.955  -2.836   2.467  0.00  0.00    +0.088 C 
ATOM     15  C   UNL     1       0.403  -2.022   1.335  0.00  0.00    +0.163 C 
ATOM     16  O   UNL     1      -0.247  -2.581   0.473  0.00  0.00    -0.292 OA
ATOM     17  H   UNL     1      -0.868   1.910   0.017  0.00  0.00    +0.147 HD
ATOM     18  H   UNL     1       1.402   1.838   3.021  0.00  0.00    +0.152 HD
ENDROOT
BRANCH   8  19
ATOM     19  C   UNL     1       0.780  -0.465  -1.203  0.00  0.00    +0.016 A 
ATOM     20  C   UNL     1       0.524  -1.500  -2.040  0.00  0.00    +0.015 A 
ATOM     21  C   UNL     1       1.386  -1.740  -3.094  0.00  0.00    +0.028 A 
ATOM     22  C   UNL     1       2.463  -0.932  -3.259  0.00  0.00    +0.078 A 
ATOM     23  S   UNL     1       2.275   0.215  -1.903  0.00  0.00    -0.080 S 
ATOM     24 CL   UNL     1       3.700  -0.994  -4.475  0.00  0.00    -0.076 Cl
ENDBRANCH   8  19
BRANCH  13  25
ATOM     25  C   UNL     1       2.769  -2.905   4.168  0.00  0.00    -0.006 A 
ATOM     26  C   UNL     1       3.982  -3.485   4.338  0.00  0.00    +0.011 A 
ATOM     27  C   UNL     1       4.259  -4.124   5.532  0.00  0.00    +0.008 A 
ATOM     28  C   UNL     1       3.308  -4.152   6.498  0.00  0.00    +0.045 A 
ATOM     29  S   UNL     1       1.973  -3.251   5.729  0.00  0.00    -0.101 S 
ENDBRANCH  13  25
TORSDOF 2
