REMARK  Name = ZINC08968222
REMARK  7 active torsions:
REMARK  status: ('A' for Active; 'I' for Inactive)
REMARK    1  A    between atoms: C_3  and  S_6
REMARK    2  A    between atoms: S_6  and  C_9
REMARK    3  A    between atoms: C_9  and  C_11
REMARK    4  A    between atoms: C_9  and  C_27
REMARK    5  A    between atoms: C_11  and  N_12
REMARK    6  A    between atoms: N_12  and  S_13
REMARK    7  A    between atoms: S_13  and  C_16
REMARK                            x       y       z     vdW  Elec       q    Type
REMARK                         _______ _______ _______ _____ _____    ______ ____
ROOT
ATOM      1  C   UNL     1      -3.384   6.074   2.490  0.00  0.00    +0.137 C 
ENDROOT
BRANCH   1   2
ATOM      2  N   UNL     1      -4.446   5.541   1.633  0.00  0.00    -0.188 NA
ATOM      3  H   UNL     1      -5.335   5.399   1.994  0.00  0.00    +0.148 HD
BRANCH   2   4
ATOM      4  S   UNL     1      -4.129   5.183   0.048  0.00  0.00    +0.059 S 
ATOM      5  O   UNL     1      -3.465   6.313  -0.499  0.00  0.00    -0.153 OA
ATOM      6  O   UNL     1      -5.335   4.669  -0.501  0.00  0.00    -0.153 OA
BRANCH   4   7
ATOM      7  C   UNL     1      -2.966   3.860   0.035  0.00  0.00    +0.109 A 
ATOM      8  C   UNL     1      -3.413   2.550   0.029  0.00  0.00    +0.031 A 
ATOM      9  C   UNL     1      -2.507   1.507   0.020  0.00  0.00    +0.031 A 
ATOM     10  C   UNL     1      -1.147   1.775   0.017  0.00  0.00    +0.087 A 
ATOM     11  C   UNL     1      -0.696   3.095   0.025  0.00  0.00    +0.159 A 
ATOM     12  C   UNL     1      -1.612   4.135   0.040  0.00  0.00    +0.077 A 
ATOM     13  O   UNL     1       0.659   3.057   0.012  0.00  0.00    -0.408 OA
ATOM     14  C   UNL     1       1.065   1.778   0.001  0.00  0.00    +0.419 A 
ATOM     15  O   UNL     1       2.223   1.408  -0.012  0.00  0.00    -0.223 OA
ATOM     16  N   UNL     1      -0.011   0.966   0.007  0.00  0.00    -0.288 N 
ATOM     17  H   UNL     1       0.002  -0.004   0.002  0.00  0.00    +0.172 HD
ENDBRANCH   4   7
ENDBRANCH   2   4
ENDBRANCH   1   2
BRANCH   1  18
ATOM     18  C   UNL     1      -4.000   6.662   3.761  0.00  0.00    +0.182 C 
BRANCH  18  19
ATOM     19  C   UNL     1      -2.907   7.210   4.642  0.00  0.00    -0.022 A 
ATOM     20  C   UNL     1      -2.078   8.211   4.172  0.00  0.00    +0.008 A 
ATOM     21  C   UNL     1      -1.079   8.718   4.982  0.00  0.00    +0.038 A 
ATOM     22  C   UNL     1      -0.901   8.214   6.259  0.00  0.00    +0.123 A 
ATOM     23  C   UNL     1      -1.729   7.208   6.727  0.00  0.00    +0.038 A 
ATOM     24  C   UNL     1      -2.732   6.707   5.918  0.00  0.00    +0.008 A 
ATOM     25  F   UNL     1       0.079   8.704   7.049  0.00  0.00    -0.205 F 
ENDBRANCH  18  19
BRANCH  18  26
ATOM     26  S   UNL     1      -5.144   7.998   3.315  0.00  0.00    +0.011 S 
ATOM     27  O   UNL     1      -6.075   7.541   2.344  0.00  0.00    -0.168 OA
ATOM     28  O   UNL     1      -5.588   8.672   4.484  0.00  0.00    -0.168 OA
BRANCH  26  31
ATOM     29  C   UNL     1      -3.062  10.291   0.691  0.00  0.00    +0.009 A 
ATOM     30  C   UNL     1      -3.873   9.266   1.141  0.00  0.00    +0.035 A 
ATOM     31  C   UNL     1      -4.151   9.179   2.464  0.00  0.00    +0.126 A 
ATOM     32  S   UNL     1      -3.243  10.568   3.124  0.00  0.00    -0.078 S 
ATOM     33  C   UNL     1      -2.561  11.174   1.589  0.00  0.00    +0.047 A 
ENDBRANCH  26  31
ENDBRANCH  18  26
ENDBRANCH   1  18
TORSDOF 7
