REMARK  Name = ZINC05033468
REMARK  2 active torsions:
REMARK  status: ('A' for Active; 'I' for Inactive)
REMARK    1  A    between atoms: C_1  and  C_2
REMARK    2  A    between atoms: C_2  and  C_14
REMARK                            x       y       z     vdW  Elec       q    Type
REMARK                         _______ _______ _______ _____ _____    ______ ____
ROOT
ATOM      1  C   UNL     1       0.316   6.401   0.588  0.00  0.00    +0.066 C 
ATOM      2  C   UNL     1       1.036   5.901  -0.666  0.00  0.00    +0.190 C 
ATOM      3  C   UNL     1       1.369   7.088  -1.571  0.00  0.00    +0.093 C 
ATOM      4  C   UNL     1       0.112   7.652  -2.178  0.00  0.00    -0.029 A 
ATOM      5  C   UNL     1       0.101   8.947  -2.658  0.00  0.00    +0.005 A 
ATOM      6  C   UNL     1      -1.050   9.470  -3.218  0.00  0.00    +0.015 A 
ATOM      7  C   UNL     1      -2.200   8.703  -3.306  0.00  0.00    +0.019 A 
ATOM      8  C   UNL     1      -2.203   7.407  -2.830  0.00  0.00    +0.030 A 
ATOM      9  C   UNL     1      -1.045   6.877  -2.263  0.00  0.00    +0.063 A 
ATOM     10  C   UNL     1      -1.032   5.490  -1.743  0.00  0.00    +0.340 C 
ATOM     11  O   UNL     1      -2.055   4.843  -1.639  0.00  0.00    -0.245 OA
ATOM     12  O   UNL     1       0.172   4.974  -1.387  0.00  0.00    -0.445 OA
ATOM     13 BR   UNL     1      -3.765   9.431  -4.078  0.00  0.00    -0.050 Br
ENDROOT
BRANCH   2  14
ATOM     14  C   UNL     1       2.308   5.197  -0.270  0.00  0.00    +0.264 C 
ATOM     15  O   UNL     1       3.367   5.787  -0.316  0.00  0.00    -0.271 OA
ATOM     16  N   UNL     1       2.269   3.913   0.137  0.00  0.00    -0.268 N 
ATOM     17  C   UNL     1       0.983   3.228   0.325  0.00  0.00    +0.114 C 
ATOM     18  C   UNL     1       1.052   2.455   1.649  0.00  0.00    +0.024 C 
ATOM     19  C   UNL     1       2.142   1.389   1.542  0.00  0.00    +0.038 C 
ATOM     20  C   UNL     1       3.433   1.999   1.063  0.00  0.00    -0.026 A 
ATOM     21  C   UNL     1       3.455   3.209   0.389  0.00  0.00    +0.040 A 
ATOM     22  C   UNL     1       4.663   3.741  -0.045  0.00  0.00    +0.024 A 
ATOM     23  C   UNL     1       5.843   3.066   0.198  0.00  0.00    +0.002 A 
ATOM     24  C   UNL     1       5.821   1.863   0.877  0.00  0.00    +0.000 A 
ATOM     25  C   UNL     1       4.620   1.328   1.303  0.00  0.00    +0.005 A 
ENDBRANCH   2  14
TORSDOF 1
