REMARK  Name = ZINC63783282
REMARK  5 active torsions:
REMARK  status: ('A' for Active; 'I' for Inactive)
REMARK    1  A    between atoms: N_11  and  C_12
REMARK    2  A    between atoms: C_12  and  C_13
REMARK    3  A    between atoms: N_15  and  C_16
REMARK    4  A    between atoms: C_18  and  C_22
REMARK    5  A    between atoms: C_22  and  C_23
REMARK                            x       y       z     vdW  Elec       q    Type
REMARK                         _______ _______ _______ _____ _____    ______ ____
ROOT
ATOM      1  C   UNL     1       3.006  -0.154   1.393  0.00  0.00    +0.236 C 
ATOM      2  O   UNL     1       2.273  -0.425   2.321  0.00  0.00    -0.274 OA
ATOM      3  N   UNL     1       4.256   0.292   1.629  0.00  0.00    -0.269 N 
ATOM      4  H   UNL     1       4.842   0.508   0.887  0.00  0.00    +0.156 HD
ENDROOT
BRANCH   3   5
ATOM      5  C   UNL     1       4.706   0.442   2.941  0.00  0.00    +0.121 A 
ATOM      6  C   UNL     1       3.997   0.172   4.071  0.00  0.00    +0.068 A 
ATOM      7  C   UNL     1       4.814   0.457   5.168  0.00  0.00    +0.065 A 
ATOM      8  N   UNL     1       5.969   0.881   4.721  0.00  0.00    -0.177 NA
ATOM      9  N   UNL     1       5.929   0.876   3.321  0.00  0.00    -0.264 N 
ATOM     10  H   UNL     1       6.651   1.140   2.728  0.00  0.00    +0.190 HD
BRANCH   7  11
ATOM     11  C   UNL     1       4.431   0.303   6.617  0.00  0.00    +0.061 C 
BRANCH  11  12
ATOM     12  C   UNL     1       5.454  -0.591   7.322  0.00  0.00    -0.005 C 
ATOM     13  C   UNL     1       5.389  -2.002   6.734  0.00  0.00    +0.004 C 
ATOM     14  C   UNL     1       6.412  -2.895   7.439  0.00  0.00    +0.000 C 
ATOM     15  C   UNL     1       6.095  -2.951   8.935  0.00  0.00    +0.000 C 
ATOM     16  C   UNL     1       6.159  -1.540   9.523  0.00  0.00    +0.000 C 
ATOM     17  C   UNL     1       5.137  -0.646   8.818  0.00  0.00    +0.004 C 
ENDBRANCH  11  12
ENDBRANCH   7  11
ENDBRANCH   3   5
BRANCH   1  18
ATOM     18  C   UNL     1       2.519  -0.317  -0.024  0.00  0.00    +0.210 C 
BRANCH  18  29
ATOM     19  C   UNL     1      -0.016   1.332   0.009  0.00  0.00    +0.034 C 
ATOM     20  C   UNL     1       0.002  -0.004   0.002  0.00  0.00    +0.038 C 
ATOM     21  C   UNL     1      -1.178  -0.890   0.002  0.00  0.00    +0.008 A 
ATOM     22  C   UNL     1      -2.550  -0.669   0.009  0.00  0.00    +0.010 A 
ATOM     23  C   UNL     1      -3.418  -1.743   0.008  0.00  0.00    +0.001 A 
ATOM     24  C   UNL     1      -2.930  -3.041  -0.002  0.00  0.00    +0.001 A 
ATOM     25  C   UNL     1      -1.571  -3.280  -0.008  0.00  0.00    +0.014 A 
ATOM     26  C   UNL     1      -0.681  -2.209  -0.007  0.00  0.00    +0.046 A 
ATOM     27  C   UNL     1       0.787  -2.109  -0.013  0.00  0.00    +0.252 C 
ATOM     28  O   UNL     1       1.558  -3.050  -0.021  0.00  0.00    -0.270 OA
ATOM     29  N   UNL     1       1.140  -0.811  -0.013  0.00  0.00    -0.259 N 
ENDBRANCH  18  29
ENDBRANCH   1  18
TORSDOF 5
