REMARK  Name = ZINC20331484
REMARK  12 active torsions:
REMARK  status: ('A' for Active; 'I' for Inactive)
REMARK    1  A    between atoms: C_1  and  C_2
REMARK    2  A    between atoms: C_2  and  N_3
REMARK    3  A    between atoms: N_6  and  C_9
REMARK    4  A    between atoms: C_9  and  C_10
REMARK    5  A    between atoms: C_10  and  N_11
REMARK    6  A    between atoms: C_12  and  C_14
REMARK    7  A    between atoms: C_14  and  C_15
REMARK    8  A    between atoms: C_15  and  C_16
REMARK    9  A    between atoms: C_16  and  C_17
REMARK   10  A    between atoms: C_17  and  N_18
REMARK   11  A    between atoms: C_25  and  O_31
REMARK   12  A    between atoms: O_31  and  C_32
REMARK                            x       y       z     vdW  Elec       q    Type
REMARK                         _______ _______ _______ _____ _____    ______ ____
ROOT
ATOM      1  C   UNL     1      -9.467  -9.959  -0.393  0.00  0.00    +0.127 C 
ENDROOT
BRANCH   1   2
ATOM      2  N   UNL     1     -10.852 -10.434  -0.339  0.00  0.00    -0.287 N 
ATOM      3  C   UNL     1     -11.458 -10.576   0.857  0.00  0.00    +0.279 A 
ATOM      4  O   UNL     1     -10.859 -10.312   1.884  0.00  0.00    -0.265 OA
ATOM      5  C   UNL     1     -12.799 -11.037   0.908  0.00  0.00    +0.129 A 
ATOM      6  C   UNL     1     -13.444 -11.325  -0.281  0.00  0.00    +0.079 A 
ATOM      7  C   UNL     1     -14.793 -11.771   0.067  0.00  0.00    +0.027 A 
ATOM      8  C   UNL     1     -15.893 -12.193  -0.686  0.00  0.00    +0.057 A 
ATOM      9  C   UNL     1     -17.059 -12.559  -0.046  0.00  0.00    +0.121 A 
ATOM     10  C   UNL     1     -17.143 -12.510   1.343  0.00  0.00    +0.047 A 
ATOM     11  C   UNL     1     -16.067 -12.098   2.096  0.00  0.00    +0.030 A 
ATOM     12  C   UNL     1     -14.880 -11.723   1.471  0.00  0.00    +0.049 A 
ATOM     13  N   UNL     1     -13.670 -11.278   1.958  0.00  0.00    -0.349 N 
ATOM     14  H   UNL     1     -13.459 -11.153   2.896  0.00  0.00    +0.166 HD
ATOM     15  N   UNL     1     -12.770 -11.160  -1.478  0.00  0.00    -0.333 N 
ATOM     16  C   UNL     1     -11.500 -10.715  -1.483  0.00  0.00    +0.161 A 
ATOM     17  S   UNL     1     -10.689 -10.510  -2.977  0.00  0.00    -0.013 S 
ATOM     18  H   UNL     1     -13.216 -11.361  -2.315  0.00  0.00    +0.168 HD
BRANCH   9  19
ATOM     19  O   UNL     1     -18.132 -12.969  -0.775  0.00  0.00    -0.495 OA
ATOM     20  C   UNL     1     -19.308 -13.334  -0.050  0.00  0.00    +0.277 C 
ENDBRANCH   9  19
ENDBRANCH   1   2
BRANCH   1  21
ATOM     21  C   UNL     1      -9.455  -8.431  -0.480  0.00  0.00    +0.022 C 
BRANCH  21  22
ATOM     22  C   UNL     1      -8.009  -7.935  -0.537  0.00  0.00    +0.011 C 
BRANCH  22  23
ATOM     23  C   UNL     1      -7.997  -6.407  -0.624  0.00  0.00    +0.096 C 
BRANCH  23  25
ATOM     24  N   UNL     1      -6.316  -4.598  -0.760  0.00  0.00    -0.317 N 
ATOM     25  C   UNL     1      -6.572  -5.919  -0.680  0.00  0.00    +0.213 C 
ATOM     26  O   UNL     1      -5.657  -6.714  -0.652  0.00  0.00    -0.276 OA
ATOM     27  H   UNL     1      -7.048  -3.962  -0.782  0.00  0.00    +0.149 HD
BRANCH  24  28
ATOM     28  C   UNL     1      -4.931  -4.123  -0.814  0.00  0.00    +0.085 C 
BRANCH  28  29
ATOM     29  C   UNL     1      -4.919  -2.596  -0.902  0.00  0.00    -0.060 C 
BRANCH  29  33
ATOM     30  N   UNL     1      -1.376  -0.512   0.012  0.00  0.00    -0.306 NA
ATOM     31  C   UNL     1      -2.073  -0.171  -1.236  0.00  0.00    +0.066 C 
ATOM     32  C   UNL     1      -3.519  -0.665  -1.160  0.00  0.00    -0.063 C 
ATOM     33  N   UNL     1      -3.530  -2.119  -0.956  0.00  0.00    +0.382 N 
ATOM     34  C   UNL     1      -2.852  -2.443   0.306  0.00  0.00    -0.063 C 
ATOM     35  C   UNL     1      -1.400  -1.964   0.243  0.00  0.00    +0.066 C 
ATOM     36  H   UNL     1      -3.050  -2.570  -1.721  0.00  0.00    -0.082 HD
BRANCH  30  38
ATOM     37  C   UNL     1      -0.019   1.526   0.010  0.00  0.00    +0.020 C 
ATOM     38  C   UNL     1       0.002  -0.004   0.002  0.00  0.00    +0.081 C 
ENDBRANCH  30  38
ENDBRANCH  29  33
ENDBRANCH  28  29
ENDBRANCH  24  28
ENDBRANCH  23  25
ENDBRANCH  22  23
ENDBRANCH  21  22
ENDBRANCH   1  21
TORSDOF 10
