REMARK  Name = ZINC09871961
REMARK  7 active torsions:
REMARK  status: ('A' for Active; 'I' for Inactive)
REMARK    1  A    between atoms: C_1  and  C_2
REMARK    2  A    between atoms: N_16  and  C_19
REMARK    3  A    between atoms: C_19  and  C_20
REMARK    4  A    between atoms: C_25  and  O_26
REMARK    5  A    between atoms: O_26  and  C_27
REMARK    6  A    between atoms: C_27  and  C_28
REMARK    7  A    between atoms: C_31  and  C_33
REMARK                            x       y       z     vdW  Elec       q    Type
REMARK                         _______ _______ _______ _____ _____    ______ ____
ROOT
ATOM      1  C   UNL     1      -0.825  -6.567   3.850  0.00  0.00    +0.109 C 
ATOM      2  C   UNL     1      -1.326  -5.981   2.555  0.00  0.00    +0.216 C 
ATOM      3  O   UNL     1      -1.045  -6.511   1.501  0.00  0.00    -0.276 OA
ATOM      4  N   UNL     1      -2.086  -4.868   2.568  0.00  0.00    -0.264 N 
ATOM      5  C   UNL     1      -2.547  -4.329   1.375  0.00  0.00    +0.181 C 
ATOM      6  N   UNL     1      -2.343  -4.764   0.165  0.00  0.00    -0.152 NA
ATOM      7  N   UNL     1      -2.858  -4.139  -0.956  0.00  0.00    -0.161 N 
ATOM      8  C   UNL     1      -3.654  -2.943  -0.680  0.00  0.00    +0.215 C 
ATOM      9  S   UNL     1      -3.560  -2.873   1.141  0.00  0.00    -0.047 S 
ATOM     10  C   UNL     1      -5.069  -3.044  -1.152  0.00  0.00    +0.020 A 
ATOM     11  C   UNL     1      -6.088  -3.945  -0.937  0.00  0.00    +0.029 A 
ATOM     12  C   UNL     1      -7.323  -3.752  -1.533  0.00  0.00    +0.041 A 
ATOM     13  C   UNL     1      -7.530  -2.652  -2.346  0.00  0.00    +0.022 A 
ATOM     14  C   UNL     1      -6.513  -1.747  -2.565  0.00  0.00    +0.025 A 
ATOM     15  C   UNL     1      -5.268  -1.933  -1.970  0.00  0.00    +0.043 A 
ATOM     16  N   UNL     1      -4.100  -1.168  -2.039  0.00  0.00    -0.264 N 
ATOM     17  C   UNL     1      -3.099  -1.703  -1.308  0.00  0.00    +0.261 C 
ATOM     18  O   UNL     1      -1.975  -1.264  -1.183  0.00  0.00    -0.271 OA
ATOM     19 CL   UNL     1      -8.607  -4.888  -1.261  0.00  0.00    -0.084 Cl
ATOM     20  C   UNL     1      -2.642  -4.595  -2.204  0.00  0.00    +0.234 C 
ATOM     21  O   UNL     1      -3.117  -4.008  -3.155  0.00  0.00    -0.274 OA
ATOM     22  C   UNL     1      -1.812  -5.833  -2.421  0.00  0.00    +0.111 C 
ATOM     23  H   UNL     1      -2.311  -4.444   3.411  0.00  0.00    +0.157 HD
ENDROOT
BRANCH  16  24
ATOM     24  C   UNL     1      -3.975   0.066  -2.818  0.00  0.00    +0.152 C 
BRANCH  24  25
ATOM     25  C   UNL     1      -4.359   1.244  -1.959  0.00  0.00    +0.012 A 
ATOM     26  C   UNL     1      -5.619   1.800  -2.073  0.00  0.00    +0.009 A 
ATOM     27  C   UNL     1      -5.971   2.883  -1.289  0.00  0.00    +0.001 A 
ATOM     28  C   UNL     1      -5.065   3.409  -0.386  0.00  0.00    +0.004 A 
ATOM     29  C   UNL     1      -3.806   2.854  -0.266  0.00  0.00    +0.046 A 
ATOM     30  C   UNL     1      -3.451   1.766  -1.051  0.00  0.00    +0.126 A 
BRANCH  30  31
ATOM     31  O   UNL     1      -2.213   1.218  -0.933  0.00  0.00    -0.488 OA
BRANCH  31  32
ATOM     32  C   UNL     1      -1.328   1.812   0.018  0.00  0.00    +0.256 C 
BRANCH  32  33
ATOM     33  C   UNL     1      -0.013   1.076   0.008  0.00  0.00    +0.006 C 
ATOM     34  C   UNL     1       1.113   1.746   0.001  0.00  0.00    +0.007 C 
ENDBRANCH  32  33
ENDBRANCH  31  32
ENDBRANCH  30  31
ENDBRANCH  24  25
ENDBRANCH  16  24
TORSDOF 5
