REMARK  Name = ZINC10431300
REMARK  9 active torsions:
REMARK  status: ('A' for Active; 'I' for Inactive)
REMARK    1  A    between atoms: C_1  and  N_2
REMARK    2  A    between atoms: N_2  and  C_3
REMARK    3  A    between atoms: N_2  and  S_18
REMARK    4  A    between atoms: C_3  and  C_4
REMARK    5  A    between atoms: C_4  and  C_5
REMARK    6  A    between atoms: C_5  and  C_6
REMARK    7  A    between atoms: N_8  and  C_9
REMARK    8  A    between atoms: C_12  and  N_16
REMARK    9  A    between atoms: S_18  and  C_21
REMARK                            x       y       z     vdW  Elec       q    Type
REMARK                         _______ _______ _______ _____ _____    ______ ____
ROOT
ATOM      1  C   UNL     1      -6.532   2.655  -2.807  0.00  0.00    +0.217 C 
ATOM      2  O   UNL     1      -6.697   3.699  -2.212  0.00  0.00    -0.275 OA
ATOM      3  N   UNL     1      -7.581   2.036  -3.384  0.00  0.00    -0.285 N 
ATOM      4  H   UNL     1      -7.440   1.237  -3.917  0.00  0.00    +0.155 HD
ENDROOT
BRANCH   3   5
ATOM      5  C   UNL     1      -8.875   2.546  -3.216  0.00  0.00    +0.036 A 
ATOM      6  C   UNL     1      -9.957   1.679  -3.128  0.00  0.00    +0.045 A 
ATOM      7  C   UNL     1     -11.233   2.182  -2.957  0.00  0.00    +0.065 A 
ATOM      8  C   UNL     1     -11.434   3.555  -2.884  0.00  0.00    +0.062 A 
ATOM      9  C   UNL     1     -10.352   4.421  -2.976  0.00  0.00    +0.065 A 
ATOM     10  C   UNL     1      -9.076   3.918  -3.142  0.00  0.00    +0.045 A 
ATOM     11 CL   UNL     1     -10.604   6.136  -2.884  0.00  0.00    -0.082 Cl
ATOM     12 CL   UNL     1     -12.584   1.098  -2.841  0.00  0.00    -0.082 Cl
BRANCH   8  13
ATOM     13  N   UNL     1     -12.728   4.064  -2.715  0.00  0.00    -0.356 N 
ATOM     14  H   UNL     1     -12.868   5.023  -2.664  0.00  0.00    +0.142 HD
ATOM     15  H   UNL     1     -13.483   3.459  -2.651  0.00  0.00    +0.142 HD
ENDBRANCH   8  13
ENDBRANCH   3   5
BRANCH   1  16
ATOM     16  C   UNL     1      -5.155   2.050  -2.901  0.00  0.00    +0.097 C 
BRANCH  16  17
ATOM     17  C   UNL     1      -4.154   2.944  -2.167  0.00  0.00    +0.026 C 
BRANCH  17  18
ATOM     18  C   UNL     1      -2.756   2.330  -2.263  0.00  0.00    +0.109 C 
BRANCH  18  20
ATOM     19  C   UNL     1      -1.190   4.326  -2.251  0.00  0.00    +0.131 C 
ATOM     20  N   UNL     1      -1.797   3.186  -1.560  0.00  0.00    -0.179 NA
BRANCH  20  21
ATOM     21  S   UNL     1      -1.400   2.865   0.015  0.00  0.00    +0.067 S 
ATOM     22  O   UNL     1      -2.483   2.130   0.566  0.00  0.00    -0.152 OA
ATOM     23  O   UNL     1      -0.946   4.090   0.577  0.00  0.00    -0.152 OA
BRANCH  21  24
ATOM     24  C   UNL     1      -0.013   1.778  -0.009  0.00  0.00    +0.143 A 
ATOM     25  C   UNL     1       1.308   2.080  -0.021  0.00  0.00    +0.036 A 
ATOM     26  C   UNL     1       2.231   1.051  -0.044  0.00  0.00    +0.010 A 
ATOM     27  C   UNL     1       1.787  -0.229  -0.054  0.00  0.00    +0.047 A 
ATOM     28  S   UNL     1       0.016  -0.006  -0.030  0.00  0.00    -0.077 S 
ENDBRANCH  21  24
ENDBRANCH  20  21
ENDBRANCH  18  20
ENDBRANCH  17  18
ENDBRANCH  16  17
ENDBRANCH   1  16
TORSDOF 8
