REMARK  Name = ZINC62261655
REMARK  4 active torsions:
REMARK  status: ('A' for Active; 'I' for Inactive)
REMARK    1  A    between atoms: C_10  and  N_11
REMARK    2  A    between atoms: C_12  and  C_18
REMARK    3  A    between atoms: C_13  and  C_16
REMARK    4  A    between atoms: C_18  and  C_19
REMARK                            x       y       z     vdW  Elec       q    Type
REMARK                         _______ _______ _______ _____ _____    ______ ____
ROOT
ATOM      1  N   UNL     1       4.893   0.092  -0.218  0.00  0.00    -0.215 N 
ATOM      2  C   UNL     1       6.122  -0.415   0.031  0.00  0.00    +0.087 A 
ATOM      3  C   UNL     1       6.968   0.649   0.165  0.00  0.00    +0.185 A 
ATOM      4  N   UNL     1       6.260   1.779   0.000  0.00  0.00    -0.118 NA
ATOM      5  N   UNL     1       5.028   1.488  -0.235  0.00  0.00    -0.059 NA
ENDROOT
BRANCH   1  15
ATOM      6  C   UNL     1       1.269   0.118  -3.734  0.00  0.00    +0.001 A 
ATOM      7  C   UNL     1       2.438   0.855  -3.547  0.00  0.00    +0.001 A 
ATOM      8  C   UNL     1       3.247   0.624  -2.476  0.00  0.00    +0.010 A 
ATOM      9  C   UNL     1       2.902  -0.369  -1.546  0.00  0.00    +0.008 A 
ATOM     10  C   UNL     1       1.715  -1.118  -1.735  0.00  0.00    -0.016 A 
ATOM     11  C   UNL     1       0.904  -0.852  -2.853  0.00  0.00    +0.008 A 
ATOM     12  C   UNL     1       1.368  -2.112  -0.804  0.00  0.00    +0.008 A 
ATOM     13  C   UNL     1       2.172  -2.348   0.269  0.00  0.00    +0.003 A 
ATOM     14  C   UNL     1       3.340  -1.618   0.466  0.00  0.00    +0.028 A 
ATOM     15  C   UNL     1       3.716  -0.635  -0.425  0.00  0.00    +0.075 A 
ENDBRANCH   1  15
BRANCH   3  16
ATOM     16  C   UNL     1       8.372   0.573   0.436  0.00  0.00    +0.123 C 
ATOM     17  N   UNL     1       9.486   0.513   0.652  0.00  0.00    -0.189 NA
ENDBRANCH   3  16
BRANCH   2  18
ATOM     18  C   UNL     1       6.487  -1.873   0.140  0.00  0.00    +0.101 C 
BRANCH  18  19
ATOM     19  C   UNL     1       6.775  -2.423  -1.234  0.00  0.00    -0.004 A 
ATOM     20  C   UNL     1       7.953  -2.477  -1.902  0.00  0.00    +0.011 A 
ATOM     21  C   UNL     1       7.981  -3.033  -3.167  0.00  0.00    +0.008 A 
ATOM     22  C   UNL     1       6.830  -3.508  -3.702  0.00  0.00    +0.045 A 
ATOM     23  S   UNL     1       5.654  -3.179  -2.399  0.00  0.00    -0.101 S 
ENDBRANCH  18  19
ENDBRANCH   2  18
TORSDOF 4
