REMARK  Name = ZINC09630708
REMARK  9 active torsions:
REMARK  status: ('A' for Active; 'I' for Inactive)
REMARK    1  A    between atoms: C_4  and  C_7
REMARK    2  A    between atoms: C_8  and  S_9
REMARK    3  A    between atoms: S_9  and  N_12
REMARK    4  A    between atoms: N_12  and  C_13
REMARK    5  A    between atoms: C_17  and  C_19
REMARK    6  A    between atoms: C_19  and  O_21
REMARK    7  A    between atoms: O_21  and  C_22
REMARK    8  A    between atoms: C_22  and  C_23
REMARK    9  A    between atoms: N_25  and  C_26
REMARK                            x       y       z     vdW  Elec       q    Type
REMARK                         _______ _______ _______ _____ _____    ______ ____
ROOT
ATOM      1  C   UNL     1       1.180   2.367   0.004  0.00  0.00    +0.049 A 
ATOM      2  C   UNL     1       2.205   1.996  -0.860  0.00  0.00    +0.024 A 
ATOM      3  C   UNL     1       3.394   2.700  -0.872  0.00  0.00    +0.003 A 
ATOM      4  C   UNL     1       3.572   3.777  -0.027  0.00  0.00    +0.015 A 
ATOM      5  C   UNL     1       2.550   4.158   0.844  0.00  0.00    +0.061 A 
ATOM      6  C   UNL     1       1.347   3.450   0.853  0.00  0.00    +0.039 A 
ENDROOT
BRANCH   1   7
ATOM      7  N   UNL     1      -0.020   1.652   0.011  0.00  0.00    -0.217 N 
ATOM      8  H   UNL     1      -0.867   2.125   0.018  0.00  0.00    +0.174 HD
BRANCH   7   9
ATOM      9  S   UNL     1       0.002  -0.004   0.002  0.00  0.00    +0.066 S 
ATOM     10  O   UNL     1      -1.353  -0.429   0.040  0.00  0.00    -0.151 OA
ATOM     11  O   UNL     1       0.893  -0.392  -1.034  0.00  0.00    -0.151 OA
BRANCH   9  13
ATOM     12  C   UNL     1       0.016  -1.198   2.405  0.00  0.00    +0.028 C 
ATOM     13  C   UNL     1       0.735  -0.523   1.518  0.00  0.00    +0.157 C 
BRANCH  12  17
ATOM     14  C   UNL     1       1.783  -2.450   6.058  0.00  0.00    +0.000 A 
ATOM     15  C   UNL     1       0.458  -2.747   5.797  0.00  0.00    +0.001 A 
ATOM     16  C   UNL     1      -0.122  -2.343   4.612  0.00  0.00    +0.008 A 
ATOM     17  C   UNL     1       0.631  -1.633   3.676  0.00  0.00    -0.024 A 
ATOM     18  C   UNL     1       1.969  -1.342   3.944  0.00  0.00    +0.008 A 
ATOM     19  C   UNL     1       2.536  -1.746   5.135  0.00  0.00    +0.001 A 
ENDBRANCH  12  17
ENDBRANCH   9  13
ENDBRANCH   7   9
ENDBRANCH   1   7
BRANCH   5  20
ATOM     20  C   UNL     1       2.738   5.310   1.749  0.00  0.00    +0.340 C 
ATOM     21  O   UNL     1       1.847   5.640   2.506  0.00  0.00    -0.245 OA
BRANCH  20  22
ATOM     22  O   UNL     1       3.898   5.995   1.736  0.00  0.00    -0.452 OA
BRANCH  22  23
ATOM     23  C   UNL     1       4.013   7.115   2.652  0.00  0.00    +0.328 C 
BRANCH  23  24
ATOM     24  C   UNL     1       5.368   7.755   2.496  0.00  0.00    +0.251 C 
ATOM     25  O   UNL     1       6.159   7.311   1.691  0.00  0.00    -0.272 OA
ATOM     26  N   UNL     1       5.701   8.822   3.250  0.00  0.00    -0.307 N 
ATOM     27  H   UNL     1       5.068   9.177   3.893  0.00  0.00    +0.149 HD
BRANCH  26  28
ATOM     28  C   UNL     1       7.019   9.443   3.098  0.00  0.00    +0.035 C 
ATOM     29  C   UNL     1       8.107   8.415   3.411  0.00  0.00    +0.029 C 
ATOM     30  C   UNL     1       9.483   9.064   3.253  0.00  0.00    -0.008 C 
ATOM     31  C   UNL     1       9.604  10.245   4.218  0.00  0.00    +0.007 C 
ATOM     32  C   UNL     1       8.516  11.274   3.905  0.00  0.00    -0.008 C 
ATOM     33  C   UNL     1       7.139  10.624   4.064  0.00  0.00    +0.029 C 
ATOM     34  C   UNL     1       8.682  11.771   2.468  0.00  0.00    +0.007 C 
ATOM     35  C   UNL     1       8.561  10.590   1.502  0.00  0.00    -0.008 C 
ATOM     36  C   UNL     1       9.650   9.562   1.815  0.00  0.00    +0.007 C 
ATOM     37  C   UNL     1       7.185   9.941   1.661  0.00  0.00    +0.029 C 
ENDBRANCH  26  28
ENDBRANCH  23  24
ENDBRANCH  22  23
ENDBRANCH  20  22
ENDBRANCH   5  20
TORSDOF 9
