REMARK  Name = ZINC24980283
REMARK  6 active torsions:
REMARK  status: ('A' for Active; 'I' for Inactive)
REMARK    1  A    between atoms: C_9  and  C_11
REMARK    2  A    between atoms: N_12  and  N_13
REMARK    3  A    between atoms: C_14  and  C_16
REMARK    4  A    between atoms: C_16  and  C_18
REMARK    5  A    between atoms: C_16  and  N_30
REMARK    6  A    between atoms: C_18  and  C_19
REMARK                            x       y       z     vdW  Elec       q    Type
REMARK                         _______ _______ _______ _____ _____    ______ ____
ROOT
ATOM      1  N   UNL     1      -4.413  -2.518  -1.977  0.00  0.00    -0.208 N 
ATOM      2  C   UNL     1      -3.168  -2.397  -1.475  0.00  0.00    +0.218 C 
ATOM      3  O   UNL     1      -2.566  -3.382  -1.103  0.00  0.00    -0.276 OA
ATOM      4  H   UNL     1      -4.960  -1.625  -2.315  0.00  0.00    +0.177 HD
ENDROOT
BRANCH   1   6
ATOM      5  C   UNL     1      -6.212  -3.898  -2.553  0.00  0.00    +0.140 C 
ATOM      6  N   UNL     1      -5.012  -3.781  -2.069  0.00  0.00    -0.188 NA
BRANCH   5  15
ATOM      7  C   UNL     1      -8.723  -6.606  -3.260  0.00  0.00    +0.001 A 
ATOM      8  C   UNL     1      -8.073  -7.732  -2.850  0.00  0.00    +0.010 A 
ATOM      9  C   UNL     1      -6.775  -7.644  -2.322  0.00  0.00    +0.001 A 
ATOM     10  C   UNL     1      -6.081  -8.791  -1.892  0.00  0.00    +0.011 A 
ATOM     11  C   UNL     1      -4.821  -8.632  -1.389  0.00  0.00    +0.020 A 
ATOM     12  C   UNL     1      -4.259  -7.360  -1.314  0.00  0.00    +0.111 A 
ATOM     13  N   UNL     1      -4.909  -6.294  -1.716  0.00  0.00    -0.254 NA
ATOM     14  C   UNL     1      -6.142  -6.381  -2.216  0.00  0.00    +0.080 A 
ATOM     15  C   UNL     1      -6.840  -5.224  -2.650  0.00  0.00    +0.020 A 
ATOM     16  C   UNL     1      -8.124  -5.357  -3.160  0.00  0.00    +0.011 A 
ENDBRANCH   5  15
ENDBRANCH   1   6
BRANCH   2  17
ATOM     17  C   UNL     1      -2.525  -1.038  -1.376  0.00  0.00    +0.015 C 
BRANCH  17  18
ATOM     18  N   UNL     1      -1.068  -1.193  -1.268  0.00  0.00    +0.386 N 
ATOM     19  H   UNL     1      -0.598  -0.201  -1.196  0.00  0.00    -0.089 HD
ATOM     20  H   UNL     1      -0.688  -1.714  -2.159  0.00  0.00    -0.089 HD
ATOM     21  H   UNL     1      -0.827  -1.779  -0.369  0.00  0.00    -0.089 HD
ENDBRANCH  17  18
BRANCH  17  22
ATOM     22  C   UNL     1      -3.053  -0.312  -0.137  0.00  0.00    +0.002 C 
BRANCH  22  23
ATOM     23  C   UNL     1      -2.501   1.090  -0.102  0.00  0.00    +0.038 C 
ATOM     24  C   UNL     1      -1.424   1.511   0.570  0.00  0.00    +0.082 C 
ATOM     25  N   UNL     1      -1.206   2.894   0.395  0.00  0.00    -0.288 NA
ATOM     26  C   UNL     1      -2.544   3.421   0.140  0.00  0.00    +0.135 C 
ATOM     27  C   UNL     1      -3.074   2.291  -0.795  0.00  0.00    +0.048 C 
ATOM     28  C   UNL     1      -4.546   2.494  -0.897  0.00  0.00    -0.020 C 
ATOM     29  C   UNL     1      -4.925   3.772  -1.109  0.00  0.00    -0.004 C 
ATOM     30  C   UNL     1      -3.900   4.828  -1.242  0.00  0.00    -0.002 C 
ATOM     31  C   UNL     1      -2.707   4.688  -0.627  0.00  0.00    -0.000 C 
ENDBRANCH  22  23
ENDBRANCH  17  22
ENDBRANCH   2  17
TORSDOF 6
