REMARK  Name = ZINC38787263
REMARK  8 active torsions:
REMARK  status: ('A' for Active; 'I' for Inactive)
REMARK    1  A    between atoms: C_1  and  O_2
REMARK    2  A    between atoms: O_2  and  C_3
REMARK    3  A    between atoms: C_6  and  C_9
REMARK    4  A    between atoms: C_9  and  C_11
REMARK    5  A    between atoms: C_9  and  C_28
REMARK    6  A    between atoms: C_11  and  N_12
REMARK    7  A    between atoms: C_13  and  C_15
REMARK    8  A    between atoms: N_17  and  C_18
REMARK                            x       y       z     vdW  Elec       q    Type
REMARK                         _______ _______ _______ _____ _____    ______ ____
ROOT
ATOM      1  C   UNL     1       2.505  -2.269   4.519  0.00  0.00    +0.042 C 
ENDROOT
BRANCH   1   2
ATOM      2  C   UNL     1       3.454  -2.999   3.567  0.00  0.00    +0.032 C 
ATOM      3  C   UNL     1       4.383  -3.975   4.335  0.00  0.00    +0.147 C 
ATOM      4  N   UNL     1       5.582  -3.187   4.657  0.00  0.00    -0.287 NA
ATOM      5  C   UNL     1       5.651  -2.099   3.976  0.00  0.00    +0.043 C 
ATOM      6  C   UNL     1       4.498  -2.039   2.978  0.00  0.00    +0.065 C 
ATOM      7  C   UNL     1       3.891  -0.681   2.746  0.00  0.00    -0.017 C 
ATOM      8  C   UNL     1       4.671   0.377   3.016  0.00  0.00    -0.004 C 
ATOM      9  C   UNL     1       6.037   0.208   3.500  0.00  0.00    +0.001 C 
ATOM     10  C   UNL     1       6.522  -0.974   3.952  0.00  0.00    +0.023 C 
ENDBRANCH   1   2
BRANCH   1  14
ATOM     11  C   UNL     1       0.053   0.434   2.296  0.00  0.00    +0.120 A 
ATOM     12  C   UNL     1       0.887   0.913   3.296  0.00  0.00    +0.046 A 
ATOM     13  C   UNL     1       1.678   0.038   4.013  0.00  0.00    +0.007 A 
ATOM     14  C   UNL     1       1.640  -1.316   3.735  0.00  0.00    -0.042 A 
ATOM     15  C   UNL     1       0.811  -1.797   2.739  0.00  0.00    +0.007 A 
ATOM     16  C   UNL     1       0.013  -0.926   2.023  0.00  0.00    +0.046 A 
BRANCH  11  18
ATOM     17  C   UNL     1      -0.633   2.679   1.924  0.00  0.00    +0.277 C 
ATOM     18  O   UNL     1      -0.726   1.293   1.589  0.00  0.00    -0.495 OA
ENDBRANCH  11  18
ENDBRANCH   1  14
BRANCH   1  19
ATOM     19  C   UNL     1       1.619  -3.290   5.236  0.00  0.00    +0.113 C 
BRANCH  19  20
ATOM     20  N   UNL     1       2.388  -3.944   6.298  0.00  0.00    -0.307 N 
ATOM     21  C   UNL     1       1.858  -4.985   6.971  0.00  0.00    +0.299 C 
ATOM     22  O   UNL     1       0.743  -5.380   6.697  0.00  0.00    -0.265 OA
ATOM     23  H   UNL     1       3.279  -3.628   6.517  0.00  0.00    +0.149 HD
BRANCH  21  24
ATOM     24  C   UNL     1       2.641  -5.651   8.053  0.00  0.00    +0.303 C 
ATOM     25  O   UNL     1       3.756  -5.256   8.326  0.00  0.00    -0.265 OA
ATOM     26  N   UNL     1       2.111  -6.692   8.726  0.00  0.00    -0.278 N 
ATOM     27  H   UNL     1       1.193  -6.959   8.562  0.00  0.00    +0.155 HD
BRANCH  26  28
ATOM     28  C   UNL     1       2.877  -7.380   9.652  0.00  0.00    +0.034 C 
ATOM     29  C   UNL     1       2.440  -7.504  10.964  0.00  0.00    +0.029 C 
ATOM     30  C   UNL     1       3.322  -8.171  11.822  0.00  0.00    -0.016 C 
ATOM     31  C   UNL     1       3.133  -8.937  12.915  0.00  0.00    +0.025 C 
ATOM     32  C   UNL     1       4.335  -9.597  13.237  0.00  0.00    +0.106 C 
ATOM     33  N   UNL     1       5.322  -9.225  12.468  0.00  0.00    -0.279 NA
ATOM     34  C   UNL     1       4.825  -8.170  11.596  0.00  0.00    +0.158 C 
ATOM     35  C   UNL     1       5.070  -8.384  10.134  0.00  0.00    +0.006 C 
ATOM     36  C   UNL     1       4.150  -7.987   9.250  0.00  0.00    +0.021 C 
ENDBRANCH  26  28
ENDBRANCH  21  24
ENDBRANCH  19  20
ENDBRANCH   1  19
TORSDOF 7
