REMARK  Name = ZINC63886611
REMARK  3 active torsions:
REMARK  status: ('A' for Active; 'I' for Inactive)
REMARK    1  A    between atoms: N_4  and  C_8
REMARK    2  A    between atoms: C_8  and  C_9
REMARK    3  A    between atoms: C_12  and  C_14
REMARK                            x       y       z     vdW  Elec       q    Type
REMARK                         _______ _______ _______ _____ _____    ______ ____
ROOT
ATOM      1  C   UNL     1       4.121  -0.932   1.379  0.00  0.00    +0.068 A 
ATOM      2  C   UNL     1       3.865  -2.107   2.009  0.00  0.00    +0.072 A 
ATOM      3  S   UNL     1       4.625  -1.803   3.595  0.00  0.00    -0.080 S 
ATOM      4  C   UNL     1       5.177  -0.242   3.291  0.00  0.00    +0.082 A 
ATOM      5  N   UNL     1       4.789  -0.022   2.060  0.00  0.00    -0.247 NA
ENDROOT
BRANCH   4   6
ATOM      6  C   UNL     1       5.939   0.678   4.211  0.00  0.00    +0.045 C 
ATOM      7  C   UNL     1       7.243  -0.002   4.677  0.00  0.00    +0.010 C 
ATOM      8  C   UNL     1       7.401   0.450   6.150  0.00  0.00    +0.001 C 
ATOM      9  C   UNL     1       5.942   0.440   6.670  0.00  0.00    +0.001 C 
ATOM     10  C   UNL     1       5.112   0.959   5.478  0.00  0.00    +0.010 C 
ENDBRANCH   4   6
BRANCH   1  11
ATOM     11  C   UNL     1       3.668  -0.681  -0.037  0.00  0.00    +0.180 C 
BRANCH  11  15
ATOM     12  C   UNL     1      -0.016   1.360   0.009  0.00  0.00    +0.007 A 
ATOM     13  C   UNL     1       1.197   2.062   0.002  0.00  0.00    +0.018 A 
ATOM     14  C   UNL     1       2.369   1.385  -0.013  0.00  0.00    +0.089 A 
ATOM     15  N   UNL     1       2.385   0.027  -0.021  0.00  0.00    -0.309 N 
ATOM     16  C   UNL     1       1.237  -0.675  -0.014  0.00  0.00    +0.252 A 
ATOM     17  O   UNL     1       1.268  -1.895  -0.021  0.00  0.00    -0.268 OA
ATOM     18  C   UNL     1       0.002  -0.004   0.002  0.00  0.00    +0.070 A 
ENDBRANCH  11  15
ENDBRANCH   1  11
TORSDOF 3
