REMARK  Name = ZINC49394901
REMARK  3 active torsions:
REMARK  status: ('A' for Active; 'I' for Inactive)
REMARK    1  A    between atoms: C_11  and  N_13
REMARK    2  A    between atoms: N_13  and  C_14
REMARK    3  A    between atoms: C_14  and  C_15
REMARK                            x       y       z     vdW  Elec       q    Type
REMARK                         _______ _______ _______ _____ _____    ______ ____
ROOT
ATOM      1  C   UNL     1       0.032   1.204  -0.221  0.00  0.00    +0.002 A 
ATOM      2  C   UNL     1       1.181   1.967  -0.151  0.00  0.00    +0.005 A 
ATOM      3  C   UNL     1       2.424   1.357  -0.095  0.00  0.00    -0.018 A 
ATOM      4  C   UNL     1       2.515  -0.023  -0.110  0.00  0.00    +0.140 A 
ATOM      5  C   UNL     1       1.355  -0.790  -0.177  0.00  0.00    +0.083 A 
ATOM      6  C   UNL     1       0.119  -0.176  -0.233  0.00  0.00    +0.024 A 
ATOM      7 CL   UNL     1       1.462  -2.523  -0.191  0.00  0.00    -0.080 Cl
ATOM      8  O   UNL     1       3.713  -0.663  -0.067  0.00  0.00    -0.490 OA
ATOM      9  C   UNL     1       4.851   0.082   0.368  0.00  0.00    +0.228 C 
ATOM     10  C   UNL     1       4.888   1.406  -0.405  0.00  0.00    +0.030 C 
ATOM     11  C   UNL     1       3.654   2.224  -0.015  0.00  0.00    -0.034 C 
ENDROOT
BRANCH  11  12
ATOM     12  N   UNL     1       3.511   3.362  -0.933  0.00  0.00    +0.387 N 
ATOM     13  H   UNL     1       3.492   3.026  -1.884  0.00  0.00    -0.085 HD
ATOM     14  H   UNL     1       2.652   3.851  -0.732  0.00  0.00    -0.085 HD
BRANCH  12  15
ATOM     15  C   UNL     1       4.648   4.277  -0.761  0.00  0.00    -0.039 C 
BRANCH  15  16
ATOM     16  C   UNL     1       4.438   5.504  -1.609  0.00  0.00    -0.026 A 
ATOM     17  C   UNL     1       3.825   6.670  -1.288  0.00  0.00    +0.010 A 
ATOM     18  C   UNL     1       3.748   7.671  -2.238  0.00  0.00    +0.023 A 
ATOM     19  C   UNL     1       4.288   7.457  -3.463  0.00  0.00    +0.055 A 
ATOM     20  S   UNL     1       4.939   5.803  -3.297  0.00  0.00    -0.088 S 
ATOM     21 BR   UNL     1       4.345   8.614  -4.958  0.00  0.00    -0.043 Br
ENDBRANCH  15  16
ENDBRANCH  12  15
ENDBRANCH  11  12
TORSDOF 3
