REMARK  Name = ZINC40729205
REMARK  6 active torsions:
REMARK  status: ('A' for Active; 'I' for Inactive)
REMARK    1  A    between atoms: C_1  and  C_2
REMARK    2  A    between atoms: C_9  and  N_12
REMARK    3  A    between atoms: C_14  and  N_32
REMARK    4  A    between atoms: C_15  and  N_19
REMARK    5  A    between atoms: C_22  and  C_25
REMARK    6  A    between atoms: C_25  and  C_26
REMARK                            x       y       z     vdW  Elec       q    Type
REMARK                         _______ _______ _______ _____ _____    ______ ____
ROOT
ATOM      1  N   UNL     1       0.048  -1.962   3.622  0.00  0.00    -0.296 N 
ATOM      2  C   UNL     1      -0.043  -2.642   4.831  0.00  0.00    +0.149 A 
ATOM      3  C   UNL     1      -0.160  -1.941   6.032  0.00  0.00    +0.106 A 
ATOM      4  C   UNL     1      -0.247  -2.674   7.218  0.00  0.00    +0.147 A 
ATOM      5  N   UNL     1      -0.216  -4.003   7.158  0.00  0.00    -0.219 NA
ATOM      6  C   UNL     1      -0.104  -4.626   6.002  0.00  0.00    +0.225 A 
ATOM      7  N   UNL     1      -0.025  -3.973   4.861  0.00  0.00    -0.219 NA
ATOM      8  H   UNL     1       0.117  -0.994   3.614  0.00  0.00    +0.154 HD
ENDROOT
BRANCH   1  17
ATOM      9  C   UNL     1       2.399   0.967   0.314  0.00  0.00    +0.065 C 
ATOM     10  C   UNL     1       1.760  -0.394   0.223  0.00  0.00    +0.039 A 
ATOM     11  C   UNL     1       1.770  -1.069  -0.996  0.00  0.00    +0.023 A 
ATOM     12  C   UNL     1       1.196  -2.304  -1.095  0.00  0.00    +0.012 A 
ATOM     13  C   UNL     1       0.605  -2.858   0.057  0.00  0.00    +0.002 A 
ATOM     14  C   UNL     1      -0.003  -4.123   0.029  0.00  0.00    +0.010 A 
ATOM     15  C   UNL     1      -0.566  -4.632   1.160  0.00  0.00    +0.003 A 
ATOM     16  C   UNL     1      -0.549  -3.915   2.353  0.00  0.00    +0.025 A 
ATOM     17  C   UNL     1       0.038  -2.670   2.421  0.00  0.00    +0.059 A 
ATOM     18  C   UNL     1       0.630  -2.117   1.263  0.00  0.00    +0.092 A 
ATOM     19  N   UNL     1       1.213  -0.915   1.295  0.00  0.00    -0.250 NA
ENDBRANCH   1  17
BRANCH   4  20
ATOM     20  N   UNL     1      -0.364  -2.025   8.441  0.00  0.00    -0.314 N 
ATOM     21  C   UNL     1      -1.680  -1.608   8.944  0.00  0.00    +0.107 C 
ATOM     22  C   UNL     1      -1.871  -2.177  10.354  0.00  0.00    +0.023 C 
ATOM     23  C   UNL     1      -0.697  -1.749  11.236  0.00  0.00    -0.004 C 
ATOM     24  C   UNL     1       0.606  -2.310  10.662  0.00  0.00    +0.023 C 
ATOM     25  C   UNL     1       0.825  -1.748   9.259  0.00  0.00    +0.107 C 
BRANCH  23  26
ATOM     26  C   UNL     1      -0.902  -2.286  12.654  0.00  0.00    +0.038 C 
BRANCH  26  27
ATOM     27  C   UNL     1       0.190  -1.764  13.552  0.00  0.00    -0.047 A 
ATOM     28  C   UNL     1       1.366  -2.475  13.696  0.00  0.00    +0.003 A 
ATOM     29  C   UNL     1       2.367  -1.995  14.520  0.00  0.00    +0.000 A 
ATOM     30  C   UNL     1       2.192  -0.804  15.200  0.00  0.00    +0.000 A 
ATOM     31  C   UNL     1       1.016  -0.093  15.055  0.00  0.00    +0.000 A 
ATOM     32  C   UNL     1       0.016  -0.570  14.228  0.00  0.00    +0.003 A 
ENDBRANCH  26  27
ENDBRANCH  23  26
ENDBRANCH   4  20
BRANCH   3  33
ATOM     33  N   UNL     1      -0.188  -0.537   6.048  0.00  0.00    -0.353 N 
ATOM     34  H   UNL     1      -0.200  -0.043   5.214  0.00  0.00    +0.143 HD
ATOM     35  H   UNL     1      -0.196  -0.062   6.894  0.00  0.00    +0.143 HD
ENDBRANCH   3  33
TORSDOF 5
