REMARK  Name = ZINC62344712
REMARK  4 active torsions:
REMARK  status: ('A' for Active; 'I' for Inactive)
REMARK    1  A    between atoms: C_1  and  C_2
REMARK    2  A    between atoms: C_11  and  C_13
REMARK    3  A    between atoms: C_13  and  C_15
REMARK    4  A    between atoms: C_15  and  N_16
REMARK                            x       y       z     vdW  Elec       q    Type
REMARK                         _______ _______ _______ _____ _____    ______ ____
ROOT
ATOM      1  C   UNL     1      -1.050   1.713  -0.462  0.00  0.00    +0.109 C 
ATOM      2  C   UNL     1      -0.850   0.221  -0.384  0.00  0.00    +0.217 C 
ATOM      3  O   UNL     1       0.272  -0.239  -0.357  0.00  0.00    -0.276 OA
ATOM      4  N   UNL     1      -1.917  -0.601  -0.344  0.00  0.00    -0.271 N 
ATOM      5  C   UNL     1      -3.316  -0.164  -0.376  0.00  0.00    +0.118 C 
ATOM      6  C   UNL     1      -4.144  -1.458  -0.308  0.00  0.00    +0.056 C 
ATOM      7  C   UNL     1      -3.116  -2.565  -0.240  0.00  0.00    -0.024 A 
ATOM      8  C   UNL     1      -1.852  -1.996  -0.271  0.00  0.00    +0.039 A 
ATOM      9  C   UNL     1      -0.733  -2.828  -0.225  0.00  0.00    +0.024 A 
ATOM     10  C   UNL     1      -0.886  -4.197  -0.153  0.00  0.00    +0.007 A 
ATOM     11  C   UNL     1      -2.151  -4.755  -0.128  0.00  0.00    -0.031 A 
ATOM     12  C   UNL     1      -3.265  -3.936  -0.164  0.00  0.00    +0.010 A 
ENDROOT
BRANCH  11  13
ATOM     13  C   UNL     1      -2.315  -6.251  -0.050  0.00  0.00    +0.094 C 
ATOM     14 CL   UNL     1      -1.415  -6.881   1.379  0.00  0.00    -0.119 Cl
BRANCH  13  15
ATOM     15  C   UNL     1      -1.762  -6.891  -1.325  0.00  0.00    -0.055 C 
BRANCH  15  16
ATOM     16  N   UNL     1      -1.986  -8.342  -1.281  0.00  0.00    +0.381 N 
ATOM     17  C   UNL     1      -1.320  -8.974  -2.426  0.00  0.00    -0.079 C 
ATOM     18  C   UNL     1      -1.483 -10.493  -2.342  0.00  0.00    -0.019 C 
ATOM     19  C   UNL     1      -2.973 -10.843  -2.359  0.00  0.00    -0.004 C 
ATOM     20  C   UNL     1      -3.671 -10.120  -1.204  0.00  0.00    -0.019 C 
ATOM     21  C   UNL     1      -3.428  -8.614  -1.331  0.00  0.00    -0.079 C 
ATOM     22  H   UNL     1      -1.604  -8.715  -0.425  0.00  0.00    -0.082 HD
ENDBRANCH  15  16
ENDBRANCH  13  15
ENDBRANCH  11  13
TORSDOF 3
