REMARK  Name = ZINC09728238
REMARK  5 active torsions:
REMARK  status: ('A' for Active; 'I' for Inactive)
REMARK    1  A    between atoms: C_4  and  C_7
REMARK    2  A    between atoms: C_7  and  C_9
REMARK    3  A    between atoms: C_7  and  N_14
REMARK    4  A    between atoms: C_15  and  C_17
REMARK    5  A    between atoms: C_17  and  N_18
REMARK                            x       y       z     vdW  Elec       q    Type
REMARK                         _______ _______ _______ _____ _____    ______ ____
ROOT
ATOM      1  C   UNL     1      -1.239   2.154   0.020  0.00  0.00    +0.213 C 
ENDROOT
BRANCH   1   2
ATOM      2  N   UNL     1      -0.016   1.347   0.009  0.00  0.00    -0.215 N 
ATOM      3  C   UNL     1       0.002  -0.004   0.002  0.00  0.00    +0.251 C 
ATOM      4  O   UNL     1      -0.951  -0.753   0.007  0.00  0.00    -0.272 OA
ATOM      5  C   UNL     1       1.461  -0.380  -0.014  0.00  0.00    +0.138 C 
ATOM      6  C   UNL     1       1.808  -1.212  -1.255  0.00  0.00    +0.045 C 
ATOM      7  C   UNL     1       2.921  -2.143  -0.723  0.00  0.00    +0.038 C 
ATOM      8  C   UNL     1       2.674  -2.246   0.768  0.00  0.00    -0.042 A 
ATOM      9  C   UNL     1       1.830  -1.225   1.175  0.00  0.00    -0.012 A 
ATOM     10  C   UNL     1       1.468  -1.125   2.508  0.00  0.00    +0.006 A 
ATOM     11  C   UNL     1       1.944  -2.037   3.430  0.00  0.00    +0.000 A 
ATOM     12  C   UNL     1       2.785  -3.054   3.023  0.00  0.00    +0.000 A 
ATOM     13  C   UNL     1       3.148  -3.158   1.694  0.00  0.00    +0.004 A 
ATOM     14  N   UNL     1       2.172   0.899  -0.013  0.00  0.00    -0.281 N 
ATOM     15  C   UNL     1       1.222   1.856   0.000  0.00  0.00    +0.310 C 
ATOM     16  O   UNL     1       1.464   3.048   0.004  0.00  0.00    -0.252 OA
ATOM     17  H   UNL     1       3.132   1.031  -0.022  0.00  0.00    +0.152 HD
ENDBRANCH   1   2
BRANCH   1  19
ATOM     18  N   UNL     1      -2.756   3.152   1.700  0.00  0.00    -0.303 N 
ATOM     19  C   UNL     1      -1.651   2.423   1.444  0.00  0.00    +0.232 C 
ATOM     20  O   UNL     1      -0.989   1.984   2.360  0.00  0.00    -0.274 OA
ATOM     21  H   UNL     1      -3.285   3.503   0.967  0.00  0.00    +0.150 HD
BRANCH  18  22
ATOM     22  C   UNL     1      -3.156   3.413   3.084  0.00  0.00    +0.140 C 
BRANCH  22  26
ATOM     23  C   UNL     1      -5.486   6.991   3.241  0.00  0.00    +0.000 A 
ATOM     24  C   UNL     1      -4.558   6.726   4.231  0.00  0.00    +0.000 A 
ATOM     25  C   UNL     1      -3.804   5.569   4.180  0.00  0.00    +0.006 A 
ATOM     26  C   UNL     1      -3.978   4.675   3.140  0.00  0.00    -0.022 A 
ATOM     27  C   UNL     1      -4.903   4.942   2.147  0.00  0.00    +0.006 A 
ATOM     28  C   UNL     1      -5.660   6.097   2.200  0.00  0.00    +0.000 A 
ENDBRANCH  22  26
BRANCH  22  29
ATOM     29  C   UNL     1      -3.976   2.257   3.597  0.00  0.00    +0.014 A 
ATOM     30  C   UNL     1      -3.951   1.668   4.818  0.00  0.00    +0.013 A 
ATOM     31  C   UNL     1      -4.806   0.611   5.069  0.00  0.00    +0.008 A 
ATOM     32  C   UNL     1      -5.636   0.188   4.085  0.00  0.00    +0.045 A 
ATOM     33  S   UNL     1      -5.226   1.303   2.752  0.00  0.00    -0.099 S 
ENDBRANCH  22  29
ENDBRANCH  18  22
ENDBRANCH   1  19
TORSDOF 5
