REMARK  Name = ZINC00547705
REMARK  5 active torsions:
REMARK  status: ('A' for Active; 'I' for Inactive)
REMARK    1  A    between atoms: C_1  and  S_2
REMARK    2  A    between atoms: S_2  and  N_5
REMARK    3  A    between atoms: C_6  and  C_17
REMARK    4  A    between atoms: C_9  and  C_11
REMARK    5  A    between atoms: C_21  and  N_23
REMARK                            x       y       z     vdW  Elec       q    Type
REMARK                         _______ _______ _______ _____ _____    ______ ____
ROOT
ATOM      1  N   UNL     1      -0.595   1.603  -1.241  0.00  0.00    -0.120 N 
ATOM      2  C   UNL     1      -0.013   1.086   0.008  0.00  0.00    +0.153 C 
ATOM      3  C   UNL     1       1.423   1.648  -0.003  0.00  0.00    +0.088 C 
ATOM      4  C   UNL     1       1.494   2.440  -1.289  0.00  0.00    +0.070 C 
ATOM      5  N   UNL     1       0.364   2.367  -1.902  0.00  0.00    -0.167 NA
ENDROOT
BRANCH   4   6
ATOM      6  C   UNL     1       2.676   3.181  -1.767  0.00  0.00    -0.002 A 
ATOM      7  C   UNL     1       3.850   3.193  -1.011  0.00  0.00    +0.010 A 
ATOM      8  C   UNL     1       4.953   3.884  -1.467  0.00  0.00    +0.001 A 
ATOM      9  C   UNL     1       4.895   4.574  -2.665  0.00  0.00    +0.000 A 
ATOM     10  C   UNL     1       3.733   4.571  -3.417  0.00  0.00    +0.001 A 
ATOM     11  C   UNL     1       2.624   3.880  -2.976  0.00  0.00    +0.010 A 
ENDBRANCH   4   6
BRANCH   2  12
ATOM     12  C   UNL     1      -0.774   1.598   1.204  0.00  0.00    -0.021 A 
ATOM     13  C   UNL     1      -1.285   2.882   1.200  0.00  0.00    +0.006 A 
ATOM     14  C   UNL     1      -1.983   3.352   2.296  0.00  0.00    +0.003 A 
ATOM     15  C   UNL     1      -2.171   2.537   3.397  0.00  0.00    +0.033 A 
ATOM     16  C   UNL     1      -1.661   1.252   3.401  0.00  0.00    +0.127 A 
ATOM     17  C   UNL     1      -0.966   0.781   2.302  0.00  0.00    +0.038 A 
BRANCH  16  18
ATOM     18  N   UNL     1      -1.862   0.379   4.579  0.00  0.00    +0.056 N 
ATOM     19  O   UNL     1      -2.478   0.793   5.545  0.00  0.00    -0.126 OA
ATOM     20  O   UNL     1      -1.413  -0.753   4.582  0.00  0.00    -0.126 OA
ENDBRANCH  16  18
ENDBRANCH   2  12
BRANCH   1  22
ATOM     21  C   UNL     1      -3.096   2.751  -1.200  0.00  0.00    +0.220 C 
ATOM     22  S   UNL     1      -2.138   1.321  -1.773  0.00  0.00    +0.057 S 
ATOM     23  O   UNL     1      -2.040   1.334  -3.191  0.00  0.00    -0.154 OA
ATOM     24  O   UNL     1      -2.550   0.148  -1.086  0.00  0.00    -0.154 OA
ENDBRANCH   1  22
TORSDOF 4
