REMARK  Name = ZINC58841166
REMARK  6 active torsions:
REMARK  status: ('A' for Active; 'I' for Inactive)
REMARK    1  A    between atoms: C_1  and  C_2
REMARK    2  A    between atoms: C_2  and  C_3
REMARK    3  A    between atoms: C_10  and  C_11
REMARK    4  A    between atoms: N_13  and  N_14
REMARK    5  A    between atoms: C_15  and  C_17
REMARK    6  A    between atoms: C_18  and  C_26
REMARK                            x       y       z     vdW  Elec       q    Type
REMARK                         _______ _______ _______ _____ _____    ______ ____
ROOT
ATOM      1  C   UNL     1       2.197  -1.056   3.188  0.00  0.00    +0.250 C 
ATOM      2  O   UNL     1       1.909   0.057   2.800  0.00  0.00    -0.272 OA
ATOM      3  N   UNL     1       3.059  -1.211   4.212  0.00  0.00    -0.233 N 
ATOM      4  H   UNL     1       3.288  -2.101   4.522  0.00  0.00    +0.173 HD
ENDROOT
BRANCH   1  12
ATOM      5  C   UNL     1      -0.458  -1.294   3.450  0.00  0.00    +0.216 C 
ATOM      6  O   UNL     1       0.223  -0.536   4.108  0.00  0.00    -0.276 OA
ATOM      7  N   UNL     1       0.129  -2.232   2.681  0.00  0.00    -0.290 N 
ATOM      8  C   UNL     1      -0.680  -3.237   1.978  0.00  0.00    +0.108 C 
ATOM      9  C   UNL     1      -0.313  -3.212   0.490  0.00  0.00    +0.019 C 
ATOM     10  C   UNL     1       1.198  -3.403   0.338  0.00  0.00    +0.004 C 
ATOM     11  C   UNL     1       1.931  -2.255   1.036  0.00  0.00    +0.032 C 
ATOM     12  C   UNL     1       1.590  -2.265   2.524  0.00  0.00    +0.163 C 
BRANCH   5  14
ATOM     13  C   UNL     1      -2.364  -0.050   4.434  0.00  0.00    +0.013 C 
ATOM     14  C   UNL     1      -1.960  -1.186   3.493  0.00  0.00    +0.092 C 
ENDBRANCH   5  14
ENDBRANCH   1  12
BRANCH   3  15
ATOM     15  N   UNL     1       3.623  -0.086   4.829  0.00  0.00    -0.228 N 
ATOM     16  C   UNL     1       4.485  -0.241   5.854  0.00  0.00    +0.296 C 
ATOM     17  O   UNL     1       4.773  -1.357   6.243  0.00  0.00    -0.265 OA
ATOM     18  H   UNL     1       3.393   0.803   4.519  0.00  0.00    +0.173 HD
BRANCH  16  19
ATOM     19  C   UNL     1       5.077   0.938   6.501  0.00  0.00    +0.195 A 
ATOM     20  C   UNL     1       5.957   0.903   7.534  0.00  0.00    +0.008 A 
ATOM     21  C   UNL     1       6.271   2.297   7.846  0.00  0.00    +0.024 A 
ATOM     22  C   UNL     1       7.093   2.923   8.786  0.00  0.00    +0.012 A 
ATOM     23  C   UNL     1       7.167   4.287   8.820  0.00  0.00    +0.001 A 
ATOM     24  C   UNL     1       6.430   5.053   7.927  0.00  0.00    +0.004 A 
ATOM     25  C   UNL     1       5.613   4.455   6.992  0.00  0.00    +0.047 A 
ATOM     26  C   UNL     1       5.522   3.069   6.939  0.00  0.00    +0.136 A 
ATOM     27  O   UNL     1       4.831   2.219   6.154  0.00  0.00    -0.450 OA
ATOM     28  C   UNL     1       6.501  -0.324   8.220  0.00  0.00    +0.048 C 
ENDBRANCH  16  19
ENDBRANCH   3  15
TORSDOF 4
