REMARK  Name = ZINC09288631
REMARK  3 active torsions:
REMARK  status: ('A' for Active; 'I' for Inactive)
REMARK    1  A    between atoms: C_1  and  C_2
REMARK    2  A    between atoms: C_5  and  C_8
REMARK    3  A    between atoms: C_14  and  C_17
REMARK                            x       y       z     vdW  Elec       q    Type
REMARK                         _______ _______ _______ _____ _____    ______ ____
ROOT
ATOM      1  C   UNL     1       2.054   0.601  -0.006  0.00  0.00    +0.186 A 
ATOM      2  N   UNL     1       1.223  -0.423  -0.006  0.00  0.00    -0.126 NA
ATOM      3  N   UNL     1       0.002  -0.004   0.002  0.00  0.00    -0.120 NA
ATOM      4  C   UNL     1      -0.015   1.295   0.009  0.00  0.00    +0.213 A 
ATOM      5  N   UNL     1       1.291   1.733  -0.001  0.00  0.00    -0.186 N 
ATOM      6  N   UNL     1       1.640   3.080  -0.010  0.00  0.00    -0.166 NA
ATOM      7  C   UNL     1       0.828   4.008   0.361  0.00  0.00    +0.080 C 
ATOM      8  C   UNL     1      -0.560   3.799   0.885  0.00  0.00    +0.135 C 
ATOM      9  S   UNL     1      -1.373   2.420   0.035  0.00  0.00    -0.078 S 
ENDROOT
BRANCH   7  10
ATOM     10  C   UNL     1       1.306   5.398   0.262  0.00  0.00    +0.002 A 
ATOM     11  C   UNL     1       0.476   6.454   0.647  0.00  0.00    +0.013 A 
ATOM     12  C   UNL     1       0.926   7.753   0.552  0.00  0.00    +0.050 A 
ATOM     13  C   UNL     1       2.203   8.019   0.073  0.00  0.00    +0.162 A 
ATOM     14  C   UNL     1       3.035   6.972  -0.312  0.00  0.00    +0.163 A 
ATOM     15  C   UNL     1       2.592   5.665  -0.214  0.00  0.00    +0.059 A 
ATOM     16  O   UNL     1       4.290   7.216  -0.779  0.00  0.00    -0.485 OA
ATOM     17  C   UNL     1       4.568   8.553  -1.210  0.00  0.00    +0.270 C 
ATOM     18  C   UNL     1       4.033   9.521  -0.147  0.00  0.00    +0.270 C 
ATOM     19  O   UNL     1       2.623   9.310  -0.017  0.00  0.00    -0.485 OA
ENDBRANCH   7  10
BRANCH   1  24
ATOM     20  C   UNL     1       7.803   0.347  -0.030  0.00  0.00    +0.044 C 
ATOM     21  C   UNL     1       6.297   0.414  -0.023  0.00  0.00    -0.050 A 
ATOM     22  C   UNL     1       5.557  -0.713  -0.333  0.00  0.00    +0.004 A 
ATOM     23  C   UNL     1       4.178  -0.659  -0.329  0.00  0.00    +0.012 A 
ATOM     24  C   UNL     1       3.531   0.536  -0.012  0.00  0.00    +0.021 A 
ATOM     25  C   UNL     1       4.284   1.671   0.295  0.00  0.00    +0.012 A 
ATOM     26  C   UNL     1       5.662   1.601   0.292  0.00  0.00    +0.004 A 
ENDBRANCH   1  24
TORSDOF 2
