REMARK  Name = ZINC13657880
REMARK  5 active torsions:
REMARK  status: ('A' for Active; 'I' for Inactive)
REMARK    1  A    between atoms: C_1  and  C_2
REMARK    2  A    between atoms: C_5  and  S_8
REMARK    3  A    between atoms: S_8  and  N_11
REMARK    4  A    between atoms: N_11  and  N_12
REMARK    5  A    between atoms: N_14  and  C_15
REMARK                            x       y       z     vdW  Elec       q    Type
REMARK                         _______ _______ _______ _____ _____    ______ ____
ROOT
ATOM      1  N   UNL     1       2.373  -5.178   1.604  0.00  0.00    -0.272 N 
ATOM      2  C   UNL     1       3.697  -5.294   1.284  0.00  0.00    +0.161 C 
ATOM      3  N   UNL     1       4.640  -4.640   2.028  0.00  0.00    -0.294 N 
ATOM      4  S   UNL     1       4.159  -6.228  -0.008  0.00  0.00    -0.014 SA
ATOM      5  H   UNL     1       4.399  -3.842   2.525  0.00  0.00    +0.154 HD
ATOM      6  H   UNL     1       2.103  -4.632   2.359  0.00  0.00    +0.188 HD
ENDROOT
BRANCH   3   7
ATOM      7  C   UNL     1       5.953  -5.122   2.073  0.00  0.00    +0.035 A 
ATOM      8  C   UNL     1       7.018  -4.234   2.159  0.00  0.00    +0.023 A 
ATOM      9  C   UNL     1       8.313  -4.712   2.204  0.00  0.00    +0.005 A 
ATOM     10  C   UNL     1       8.551  -6.073   2.163  0.00  0.00    +0.038 A 
ATOM     11  C   UNL     1       7.493  -6.962   2.077  0.00  0.00    +0.125 A 
ATOM     12  C   UNL     1       6.193  -6.489   2.038  0.00  0.00    +0.061 A 
ATOM     13  F   UNL     1       7.729  -8.292   2.037  0.00  0.00    -0.205 F 
ENDBRANCH   3   7
BRANCH   1  14
ATOM     14  N   UNL     1       1.407  -5.847   0.842  0.00  0.00    -0.158 N 
ATOM     15  H   UNL     1       1.677  -6.393   0.087  0.00  0.00    +0.194 HD
BRANCH  14  16
ATOM     16  S   UNL     1      -0.197  -5.707   1.230  0.00  0.00    +0.085 S 
ATOM     17  O   UNL     1      -0.316  -6.064   2.600  0.00  0.00    -0.149 OA
ATOM     18  O   UNL     1      -0.923  -6.370   0.204  0.00  0.00    -0.149 OA
BRANCH  16  23
ATOM     19  C   UNL     1      -1.623   0.143   0.846  0.00  0.00    +0.044 C 
ATOM     20  C   UNL     1      -1.267  -1.318   0.942  0.00  0.00    -0.050 A 
ATOM     21  C   UNL     1      -1.394  -2.134  -0.167  0.00  0.00    +0.005 A 
ATOM     22  C   UNL     1      -1.067  -3.475  -0.079  0.00  0.00    +0.029 A 
ATOM     23  C   UNL     1      -0.612  -3.998   1.117  0.00  0.00    +0.110 A 
ATOM     24  C   UNL     1      -0.484  -3.181   2.225  0.00  0.00    +0.029 A 
ATOM     25  C   UNL     1      -0.807  -1.840   2.136  0.00  0.00    +0.005 A 
ENDBRANCH  16  23
ENDBRANCH  14  16
ENDBRANCH   1  14
TORSDOF 4
