REMARK  Name = ZINC61653276
REMARK  9 active torsions:
REMARK  status: ('A' for Active; 'I' for Inactive)
REMARK    1  A    between atoms: C_1  and  N_2
REMARK    2  A    between atoms: N_2  and  C_3
REMARK    3  A    between atoms: N_2  and  C_4
REMARK    4  A    between atoms: C_4  and  C_5
REMARK    5  A    between atoms: N_10  and  S_11
REMARK    6  A    between atoms: S_11  and  C_14
REMARK    7  A    between atoms: C_17  and  C_20
REMARK    8  A    between atoms: C_20  and  C_21
REMARK    9  A    between atoms: C_21  and  N_22
REMARK                            x       y       z     vdW  Elec       q    Type
REMARK                         _______ _______ _______ _____ _____    ______ ____
ROOT
ATOM      1  S   UNL     1      -2.615  -0.208   0.833  0.00  0.00    +0.061 S 
ATOM      2  O   UNL     1      -3.991  -0.160   1.183  0.00  0.00    -0.153 OA
ATOM      3  O   UNL     1      -1.899   0.940   0.399  0.00  0.00    -0.153 OA
ENDROOT
BRANCH   1   4
ATOM      4  C   UNL     1      -2.462  -1.410  -0.447  0.00  0.00    +0.106 A 
ATOM      5  C   UNL     1      -1.443  -1.306  -1.374  0.00  0.00    +0.029 A 
ATOM      6  C   UNL     1      -1.323  -2.249  -2.378  0.00  0.00    +0.005 A 
ATOM      7  C   UNL     1      -2.223  -3.296  -2.454  0.00  0.00    -0.049 A 
ATOM      8  C   UNL     1      -3.242  -3.400  -1.525  0.00  0.00    +0.005 A 
ATOM      9  C   UNL     1      -3.359  -2.459  -0.519  0.00  0.00    +0.029 A 
BRANCH   7  10
ATOM     10  C   UNL     1      -2.093  -4.324  -3.548  0.00  0.00    +0.015 C 
BRANCH  10  11
ATOM     11  C   UNL     1      -1.195  -5.467  -3.071  0.00  0.00    -0.082 C 
BRANCH  11  12
ATOM     12  N   UNL     1      -1.069  -6.468  -4.138  0.00  0.00    +0.378 N 
ATOM     13  H   UNL     1      -1.982  -6.831  -4.369  0.00  0.00    -0.090 HD
ATOM     14  H   UNL     1      -0.661  -6.040  -4.955  0.00  0.00    -0.090 HD
ATOM     15  H   UNL     1      -0.477  -7.222  -3.823  0.00  0.00    -0.090 HD
ENDBRANCH  11  12
ENDBRANCH  10  11
ENDBRANCH   7  10
ENDBRANCH   1   4
BRANCH   1  20
ATOM     16  C   UNL     1      -0.413  -0.501   2.509  0.00  0.00    +0.063 C 
ATOM     17  C   UNL     1      -0.106  -1.239   3.829  0.00  0.00    +0.020 C 
ATOM     18  C   UNL     1      -1.515  -1.453   4.443  0.00  0.00    +0.019 C 
ATOM     19  C   UNL     1      -2.372  -1.702   3.177  0.00  0.00    +0.110 C 
ATOM     20  N   UNL     1      -1.810  -0.795   2.155  0.00  0.00    -0.175 NA
BRANCH  16  21
ATOM     21  C   UNL     1       0.520  -1.001   1.405  0.00  0.00    -0.059 C 
BRANCH  21  23
ATOM     22  C   UNL     1       2.430  -1.114   2.851  0.00  0.00    -0.097 C 
ATOM     23  N   UNL     1       1.877  -0.490   1.642  0.00  0.00    +0.377 N 
ATOM     24  C   UNL     1       2.729  -0.812   0.490  0.00  0.00    -0.097 C 
ATOM     25  H   UNL     1       1.843   0.511   1.765  0.00  0.00    -0.083 HD
ENDBRANCH  21  23
ENDBRANCH  16  21
ENDBRANCH   1  20
TORSDOF 7
