REMARK  Name = ZINC00431098
REMARK  4 active torsions:
REMARK  status: ('A' for Active; 'I' for Inactive)
REMARK    1  A    between atoms: C_1  and  C_2
REMARK    2  A    between atoms: C_5  and  C_8
REMARK    3  A    between atoms: C_13  and  C_15
REMARK    4  A    between atoms: C_16  and  C_17
REMARK                            x       y       z     vdW  Elec       q    Type
REMARK                         _______ _______ _______ _____ _____    ______ ____
ROOT
ATOM      1  C   UNL     1       1.677   3.083   0.002  0.00  0.00    +0.043 C 
ATOM      2  C   UNL     1       1.278   1.788  -0.251  0.00  0.00    +0.152 C 
ATOM      3  C   UNL     1       2.136   0.643  -0.615  0.00  0.00    +0.364 C 
ATOM      4  O   UNL     1       3.344   0.642  -0.755  0.00  0.00    -0.243 OA
ATOM      5  O   UNL     1       1.293  -0.402  -0.759  0.00  0.00    -0.403 OA
ATOM      6  C   UNL     1       0.036   0.021  -0.516  0.00  0.00    +0.225 C 
ATOM      7  N   UNL     1       0.009   1.296  -0.218  0.00  0.00    -0.206 NA
ENDROOT
BRANCH   1  12
ATOM      8  C   UNL     1       7.269   4.340   0.387  0.00  0.00    +0.044 C 
ATOM      9  C   UNL     1       5.802   4.011   0.286  0.00  0.00    -0.050 A 
ATOM     10  C   UNL     1       4.933   4.912  -0.306  0.00  0.00    +0.004 A 
ATOM     11  C   UNL     1       3.590   4.618  -0.403  0.00  0.00    +0.008 A 
ATOM     12  C   UNL     1       3.105   3.404   0.101  0.00  0.00    -0.023 A 
ATOM     13  C   UNL     1       3.990   2.501   0.703  0.00  0.00    +0.008 A 
ATOM     14  C   UNL     1       5.331   2.808   0.786  0.00  0.00    +0.004 A 
ENDBRANCH   1  12
BRANCH   6  15
ATOM     15  C   UNL     1      -1.147  -0.836  -0.576  0.00  0.00    +0.068 C 
ATOM     16  C   UNL     1      -1.019  -2.141  -0.893  0.00  0.00    +0.013 C 
BRANCH  16  17
ATOM     17  C   UNL     1      -2.210  -3.004  -0.954  0.00  0.00    -0.025 A 
ATOM     18  C   UNL     1      -3.475  -2.475  -0.678  0.00  0.00    +0.009 A 
ATOM     19  C   UNL     1      -4.587  -3.288  -0.743  0.00  0.00    +0.020 A 
ATOM     20  C   UNL     1      -4.451  -4.628  -1.069  0.00  0.00    +0.041 A 
ATOM     21  C   UNL     1      -3.200  -5.159  -1.337  0.00  0.00    +0.020 A 
ATOM     22  C   UNL     1      -2.081  -4.357  -1.282  0.00  0.00    +0.009 A 
ATOM     23 CL   UNL     1      -5.856  -5.645  -1.141  0.00  0.00    -0.084 Cl
ENDBRANCH  16  17
ENDBRANCH   6  15
TORSDOF 3
