REMARK  Name = ZINC67460904
REMARK  10 active torsions:
REMARK  status: ('A' for Active; 'I' for Inactive)
REMARK    1  A    between atoms: C_1  and  C_2
REMARK    2  A    between atoms: C_2  and  C_3
REMARK    3  A    between atoms: C_3  and  C_5
REMARK    4  A    between atoms: C_3  and  N_6
REMARK    5  A    between atoms: C_7  and  C_9
REMARK    6  A    between atoms: C_9  and  C_10
REMARK    7  A    between atoms: C_10  and  N_11
REMARK    8  A    between atoms: C_17  and  C_20
REMARK    9  A    between atoms: C_20  and  C_22
REMARK   10  A    between atoms: C_20  and  O_29
REMARK                            x       y       z     vdW  Elec       q    Type
REMARK                         _______ _______ _______ _____ _____    ______ ____
ROOT
ATOM      1  N   UNL     1      -8.391   0.654  -2.481  0.00  0.00    -0.299 N 
ATOM      2  C   UNL     1      -7.666   0.901  -3.590  0.00  0.00    +0.302 C 
ATOM      3  O   UNL     1      -6.452   0.892  -3.537  0.00  0.00    -0.253 OA
ATOM      4  N   UNL     1      -8.288   1.156  -4.758  0.00  0.00    -0.286 N 
ATOM      5  C   UNL     1      -7.516   1.312  -5.999  0.00  0.00    +0.109 C 
ATOM      6  C   UNL     1      -8.079   0.353  -7.053  0.00  0.00    +0.025 C 
ATOM      7  C   UNL     1      -9.581   0.601  -7.212  0.00  0.00    +0.025 C 
ATOM      8  C   UNL     1     -10.289   0.327  -5.883  0.00  0.00    +0.025 C 
ATOM      9  C   UNL     1      -9.751   1.279  -4.816  0.00  0.00    +0.109 C 
ATOM     10  H   UNL     1      -9.357   0.733  -2.505  0.00  0.00    +0.150 HD
ENDROOT
BRANCH   1  11
ATOM     11  C   UNL     1      -7.719   0.267  -1.238  0.00  0.00    +0.115 C 
BRANCH  11  12
ATOM     12  C   UNL     1      -8.762   0.048  -0.141  0.00  0.00    +0.114 C 
BRANCH  12  14
ATOM     13  N   UNL     1      -8.796  -0.596   2.247  0.00  0.00    -0.313 N 
ATOM     14  C   UNL     1      -8.071  -0.350   1.138  0.00  0.00    +0.215 C 
ATOM     15  O   UNL     1      -6.863  -0.449   1.169  0.00  0.00    -0.276 OA
ATOM     16  H   UNL     1      -9.762  -0.517   2.223  0.00  0.00    +0.149 HD
BRANCH  13  17
ATOM     17  C   UNL     1      -8.124  -0.983   3.490  0.00  0.00    +0.070 C 
ATOM     18  C   UNL     1      -7.675   0.273   4.240  0.00  0.00    +0.028 C 
BRANCH  17  20
ATOM     19  C   UNL     1      -9.443  -3.098   3.669  0.00  0.00    +0.005 C 
ATOM     20  C   UNL     1      -9.091  -1.782   4.366  0.00  0.00    +0.018 C 
ENDBRANCH  17  20
ENDBRANCH  13  17
ENDBRANCH  12  14
ENDBRANCH  11  12
ENDBRANCH   1  11
BRANCH   7  21
ATOM     21  C   UNL     1     -10.140  -0.330  -8.289  0.00  0.00    +0.148 C 
BRANCH  21  22
ATOM     22  C   UNL     1     -11.619  -0.087  -8.446  0.00  0.00    -0.019 A 
ATOM     23  C   UNL     1     -12.069   0.921  -9.278  0.00  0.00    +0.007 A 
ATOM     24  C   UNL     1     -13.425   1.145  -9.423  0.00  0.00    +0.020 A 
ATOM     25  C   UNL     1     -14.333   0.361  -8.733  0.00  0.00    +0.041 A 
ATOM     26  C   UNL     1     -13.882  -0.647  -7.899  0.00  0.00    +0.020 A 
ATOM     27  C   UNL     1     -12.526  -0.874  -7.761  0.00  0.00    +0.007 A 
ATOM     28 CL   UNL     1     -16.036   0.642  -8.913  0.00  0.00    -0.084 Cl
ENDBRANCH  21  22
BRANCH  21  29
ATOM     29  O   UNL     1      -9.481  -0.073  -9.530  0.00  0.00    -0.387 OA
ATOM     30  H   UNL     1      -9.588   0.832  -9.853  0.00  0.00    +0.210 HD
ENDBRANCH  21  29
ENDBRANCH   7  21
TORSDOF 8
