REMARK  Name = ZINC21263601
REMARK  13 active torsions:
REMARK  status: ('A' for Active; 'I' for Inactive)
REMARK    1  A    between atoms: C_1  and  C_2
REMARK    2  A    between atoms: C_2  and  C_31
REMARK    3  A    between atoms: C_4  and  N_10
REMARK    4  A    between atoms: C_6  and  C_8
REMARK    5  A    between atoms: C_6  and  C_9
REMARK    6  A    between atoms: N_10  and  C_11
REMARK    7  A    between atoms: C_11  and  N_13
REMARK    8  A    between atoms: N_13  and  C_14
REMARK    9  A    between atoms: N_13  and  C_23
REMARK   10  A    between atoms: C_14  and  C_15
REMARK   11  A    between atoms: C_18  and  O_21
REMARK   12  A    between atoms: O_21  and  C_22
REMARK   13  A    between atoms: C_23  and  C_24
REMARK                            x       y       z     vdW  Elec       q    Type
REMARK                         _______ _______ _______ _____ _____    ______ ____
ROOT
ATOM      1  N   UNL     1       1.218  -2.668  -1.405  0.00  0.00    -0.308 N 
ENDROOT
BRANCH   1   2
ATOM      2  C   UNL     1       0.047  -2.903  -2.030  0.00  0.00    +0.133 C 
ATOM      3  S   UNL     1      -1.431  -2.639  -1.207  0.00  0.00    -0.019 S 
BRANCH   2   4
ATOM      4  N   UNL     1       0.040  -3.346  -3.303  0.00  0.00    -0.324 N 
ATOM      5  H   UNL     1       0.990  -3.516  -3.831  0.00  0.00    +0.148 HD
BRANCH   4   9
ATOM      6  C   UNL     1      -3.280  -2.558  -6.085  0.00  0.00    -0.010 C 
ATOM      7  C   UNL     1      -2.341  -3.761  -6.229  0.00  0.00    -0.072 C 
ATOM      8  C   UNL     1      -1.033  -3.479  -5.494  0.00  0.00    +0.009 C 
ATOM      9  C   UNL     1      -1.235  -3.602  -3.984  0.00  0.00    +0.069 C 
ATOM     10  C   UNL     1      -1.697  -5.025  -3.670  0.00  0.00    +0.009 C 
ATOM     11  C   UNL     1      -3.011  -5.328  -4.385  0.00  0.00    -0.072 C 
ATOM     12  N   UNL     1      -2.983  -4.982  -5.791  0.00  0.00    +0.386 N 
ATOM     13  C   UNL     1      -4.162  -4.618  -3.663  0.00  0.00    -0.010 C 
ATOM     14  C   UNL     1      -3.265  -6.848  -4.267  0.00  0.00    -0.010 C 
ATOM     15  C   UNL     1      -2.008  -3.903  -7.731  0.00  0.00    -0.010 C 
ATOM     16  H   UNL     1      -4.045  -4.961  -6.077  0.00  0.00    -0.084 HD
ATOM     17  H   UNL     1      -2.493  -5.845  -6.264  0.00  0.00    -0.084 HD
ENDBRANCH   4   9
ENDBRANCH   2   4
ENDBRANCH   1   2
BRANCH   1  18
ATOM     18  C   UNL     1       1.226  -2.187  -0.021  0.00  0.00    +0.141 C 
BRANCH  18  19
ATOM     19  C   UNL     1       1.208  -0.680  -0.013  0.00  0.00    -0.030 A 
ATOM     20  C   UNL     1       0.002  -0.004   0.002  0.00  0.00    +0.009 A 
ATOM     21  C   UNL     1      -0.017   1.377   0.010  0.00  0.00    +0.046 A 
ATOM     22  C   UNL     1       1.176   2.086   0.002  0.00  0.00    +0.120 A 
ATOM     23  C   UNL     1       2.385   1.405  -0.013  0.00  0.00    +0.046 A 
ATOM     24  C   UNL     1       2.398   0.024  -0.021  0.00  0.00    +0.009 A 
BRANCH  22  25
ATOM     25  O   UNL     1       1.160   3.445   0.009  0.00  0.00    -0.495 OA
ATOM     26  C   UNL     1       2.426   4.108   0.001  0.00  0.00    +0.277 C 
ENDBRANCH  22  25
ENDBRANCH  18  19
ENDBRANCH   1  18
BRANCH   1  27
ATOM     27  C   UNL     1       2.482  -2.894  -2.109  0.00  0.00    +0.111 C 
BRANCH  27  28
ATOM     28  C   UNL     1       2.943  -4.335  -1.880  0.00  0.00    +0.010 C 
ATOM     29  C   UNL     1       4.322  -4.543  -2.519  0.00  0.00    +0.009 C 
ATOM     30  C   UNL     1       4.833  -5.931  -2.130  0.00  0.00    +0.027 C 
ATOM     31  C   UNL     1       3.773  -6.965  -2.377  0.00  0.00    -0.031 C 
ATOM     32  C   UNL     1       2.519  -6.691  -2.548  0.00  0.00    -0.031 C 
ATOM     33  C   UNL     1       1.952  -5.302  -2.531  0.00  0.00    +0.032 C 
ENDBRANCH  27  28
ENDBRANCH   1  27
TORSDOF 8
