REMARK  Name = ZINC01438315
REMARK  5 active torsions:
REMARK  status: ('A' for Active; 'I' for Inactive)
REMARK    1  A    between atoms: C_1  and  C_2
REMARK    2  A    between atoms: C_8  and  N_10
REMARK    3  A    between atoms: C_11  and  C_13
REMARK    4  A    between atoms: C_13  and  S_14
REMARK    5  A    between atoms: S_14  and  C_15
REMARK                            x       y       z     vdW  Elec       q    Type
REMARK                         _______ _______ _______ _____ _____    ______ ____
ROOT
ATOM      1  C   UNL     1       1.023  -2.564   3.147  0.00  0.00    +0.172 C 
ENDROOT
BRANCH   1   3
ATOM      2  N   UNL     1       0.031  -0.392   2.498  0.00  0.00    -0.312 N 
ATOM      3  C   UNL     1       1.002  -1.057   3.155  0.00  0.00    +0.224 C 
ATOM      4  O   UNL     1       1.860  -0.442   3.752  0.00  0.00    -0.275 OA
ATOM      5  H   UNL     1      -0.655  -0.884   2.020  0.00  0.00    +0.149 HD
BRANCH   2  12
ATOM      6  C   UNL     1      -0.013   1.086   0.008  0.00  0.00    +0.009 C 
ATOM      7  C   UNL     1      -0.729   1.579   1.267  0.00  0.00    +0.006 C 
ATOM      8  C   UNL     1      -2.164   1.050   1.278  0.00  0.00    +0.005 C 
ATOM      9  C   UNL     1      -2.880   1.543   2.537  0.00  0.00    +0.000 C 
ATOM     10  C   UNL     1      -2.140   1.036   3.776  0.00  0.00    +0.002 C 
ATOM     11  C   UNL     1      -0.705   1.566   3.765  0.00  0.00    +0.022 C 
ATOM     12  C   UNL     1       0.011   1.072   2.506  0.00  0.00    +0.076 C 
ENDBRANCH   2  12
ENDBRANCH   1   3
BRANCH   1  13
ATOM     13  S   UNL     1       2.438  -3.153   4.109  0.00  0.00    -0.089 S 
BRANCH  13  14
ATOM     14  C   UNL     1       2.223  -4.893   3.935  0.00  0.00    +0.136 A 
ATOM     15  N   UNL     1       1.284  -5.547   3.288  0.00  0.00    -0.233 NA
ATOM     16  C   UNL     1       1.246  -6.897   3.235  0.00  0.00    +0.081 A 
ATOM     17  C   UNL     1       0.301  -7.717   2.576  0.00  0.00    +0.049 A 
ATOM     18  C   UNL     1       0.404  -9.084   2.627  0.00  0.00    +0.043 A 
ATOM     19  C   UNL     1       1.431  -9.708   3.322  0.00  0.00    +0.021 A 
ATOM     20  C   UNL     1       2.372  -8.935   3.978  0.00  0.00    +0.018 A 
ATOM     21  C   UNL     1       2.276  -7.567   3.932  0.00  0.00    +0.040 A 
ATOM     22  S   UNL     1       3.221  -6.218   4.600  0.00  0.00    -0.061 S 
ATOM     23 CL   UNL     1      -0.776 -10.055   1.803  0.00  0.00    -0.083 Cl
ENDBRANCH  13  14
ENDBRANCH   1  13
TORSDOF 4
