REMARK  Name = ZINC01509549
REMARK  4 active torsions:
REMARK  status: ('A' for Active; 'I' for Inactive)
REMARK    1  A    between atoms: C_3  and  N_17
REMARK    2  A    between atoms: C_6  and  C_7
REMARK    3  A    between atoms: C_7  and  O_9
REMARK    4  A    between atoms: O_9  and  C_10
REMARK                            x       y       z     vdW  Elec       q    Type
REMARK                         _______ _______ _______ _____ _____    ______ ____
ROOT
ATOM      1  C   UNL     1       2.438  -2.632  -0.140  0.00  0.00    +0.344 C 
ATOM      2  O   UNL     1       3.449  -1.958  -0.143  0.00  0.00    -0.245 OA
ENDROOT
BRANCH   1   8
ATOM      3  C   UNL     1       1.369  -4.879  -0.256  0.00  0.00    +0.017 A 
ATOM      4  C   UNL     1       1.461  -6.249  -0.381  0.00  0.00    +0.033 A 
ATOM      5  C   UNL     1       2.699  -6.855  -0.503  0.00  0.00    +0.126 A 
ATOM      6  C   UNL     1       3.853  -6.091  -0.507  0.00  0.00    +0.033 A 
ATOM      7  C   UNL     1       3.775  -4.718  -0.390  0.00  0.00    +0.017 A 
ATOM      8  C   UNL     1       2.529  -4.101  -0.266  0.00  0.00    +0.060 A 
BRANCH   5   9
ATOM      9  N   UNL     1       2.791  -8.327  -0.629  0.00  0.00    +0.056 N 
ATOM     10  O   UNL     1       3.879  -8.863  -0.737  0.00  0.00    -0.126 OA
ATOM     11  O   UNL     1       1.777  -9.002  -0.626  0.00  0.00    -0.126 OA
ENDBRANCH   5   9
ENDBRANCH   1   8
BRANCH   1  12
ATOM     12  O   UNL     1       1.234  -2.039  -0.020  0.00  0.00    -0.422 OA
BRANCH  12  13
ATOM     13  C   UNL     1       1.212  -0.680  -0.029  0.00  0.00    +0.132 A 
ATOM     14  C   UNL     1       1.512   0.012  -1.194  0.00  0.00    +0.047 A 
ATOM     15  C   UNL     1       1.488   1.393  -1.201  0.00  0.00    +0.018 A 
ATOM     16  C   UNL     1       1.165   2.086  -0.048  0.00  0.00    +0.014 A 
ATOM     17  C   UNL     1       0.865   1.398   1.114  0.00  0.00    +0.018 A 
ATOM     18  C   UNL     1       0.888   0.017   1.125  0.00  0.00    +0.047 A 
ATOM     19  I   UNL     1       1.131   4.181  -0.062  0.00  0.00    -0.044 I 
ENDBRANCH  12  13
ENDBRANCH   1  12
TORSDOF 4
