REMARK  Name = ZINC48797121
REMARK  8 active torsions:
REMARK  status: ('A' for Active; 'I' for Inactive)
REMARK    1  A    between atoms: C_1  and  C_2
REMARK    2  A    between atoms: C_3  and  C_8
REMARK    3  A    between atoms: N_6  and  C_7
REMARK    4  A    between atoms: C_8  and  C_10
REMARK    5  A    between atoms: C_8  and  N_11
REMARK    6  A    between atoms: N_11  and  C_12
REMARK    7  A    between atoms: C_12  and  C_13
REMARK    8  A    between atoms: C_18  and  O_19
REMARK                            x       y       z     vdW  Elec       q    Type
REMARK                         _______ _______ _______ _____ _____    ______ ____
ROOT
ATOM      1  N   UNL     1      -0.581  -1.375  -3.381  0.00  0.00    +0.386 N 
ATOM      2  H   UNL     1       0.022  -2.184  -3.371  0.00  0.00    -0.085 HD
ATOM      3  H   UNL     1      -1.492  -1.630  -3.032  0.00  0.00    -0.085 HD
ENDROOT
BRANCH   1   4
ATOM      4  C   UNL     1      -0.006  -0.327  -2.527  0.00  0.00    -0.040 C 
ATOM      5  C   UNL     1       1.425  -0.028  -2.980  0.00  0.00    -0.009 C 
BRANCH   4   8
ATOM      6  C   UNL     1      -0.018   1.503   0.010  0.00  0.00    +0.065 C 
ATOM      7  C   UNL     1       0.002  -0.004   0.002  0.00  0.00    +0.037 A 
ATOM      8  C   UNL     1       0.008  -0.796  -1.095  0.00  0.00    -0.021 A 
ATOM      9  C   UNL     1       0.028  -2.127  -0.666  0.00  0.00    +0.136 A 
ATOM     10  N   UNL     1       0.035  -2.134   0.643  0.00  0.00    -0.179 NA
ATOM     11  N   UNL     1       0.024  -0.805   1.088  0.00  0.00    -0.271 N 
ATOM     12  C   UNL     1       0.031  -0.364   2.485  0.00  0.00    +0.172 C 
ENDBRANCH   4   8
ENDBRANCH   1   4
BRANCH   1  13
ATOM     13  C   UNL     1      -0.705  -0.874  -4.756  0.00  0.00    -0.042 C 
BRANCH  13  14
ATOM     14  C   UNL     1      -1.294  -1.949  -5.631  0.00  0.00    -0.022 A 
ATOM     15  C   UNL     1      -0.471  -2.716  -6.435  0.00  0.00    +0.005 A 
ATOM     16  C   UNL     1      -1.011  -3.703  -7.238  0.00  0.00    +0.002 A 
ATOM     17  C   UNL     1      -2.375  -3.926  -7.240  0.00  0.00    +0.019 A 
ATOM     18  C   UNL     1      -3.203  -3.163  -6.439  0.00  0.00    +0.059 A 
ATOM     19  C   UNL     1      -2.662  -2.175  -5.627  0.00  0.00    +0.132 A 
ATOM     20 BR   UNL     1      -5.069  -3.469  -6.442  0.00  0.00    -0.047 Br
BRANCH  19  21
ATOM     21  O   UNL     1      -3.473  -1.426  -4.834  0.00  0.00    -0.505 OA
ATOM     22  H   UNL     1      -3.807  -0.624  -5.258  0.00  0.00    +0.292 HD
ENDBRANCH  19  21
ENDBRANCH  13  14
ENDBRANCH   1  13
TORSDOF 5
