REMARK  Name = ZINC10928209
REMARK  6 active torsions:
REMARK  status: ('A' for Active; 'I' for Inactive)
REMARK    1  A    between atoms: C_1  and  N_2
REMARK    2  A    between atoms: N_5  and  C_14
REMARK    3  A    between atoms: C_14  and  C_15
REMARK    4  A    between atoms: N_17  and  C_18
REMARK    5  A    between atoms: C_21  and  S_24
REMARK    6  A    between atoms: S_24  and  C_25
REMARK                            x       y       z     vdW  Elec       q    Type
REMARK                         _______ _______ _______ _____ _____    ______ ____
ROOT
ATOM      1  C   UNL     1       6.562   7.140   2.295  0.00  0.00    +0.134 C 
ATOM      2  N   UNL     1       5.566   6.838   1.264  0.00  0.00    -0.274 N 
ATOM      3  C   UNL     1       4.356   6.276   1.451  0.00  0.00    +0.312 C 
ATOM      4  O   UNL     1       3.928   5.940   2.538  0.00  0.00    -0.252 OA
ATOM      5  N   UNL     1       3.680   6.127   0.305  0.00  0.00    -0.215 N 
ATOM      6  C   UNL     1       4.382   6.589  -0.750  0.00  0.00    +0.247 C 
ATOM      7  O   UNL     1       4.039   6.598  -1.913  0.00  0.00    -0.273 OA
ATOM      8  C   UNL     1       5.687   7.094  -0.177  0.00  0.00    +0.115 C 
ATOM      9  C   UNL     1       5.842   8.587  -0.444  0.00  0.00    +0.035 C 
ATOM     10  C   UNL     1       7.154   9.084   0.167  0.00  0.00    +0.003 C 
ATOM     11  C   UNL     1       8.325   8.314  -0.447  0.00  0.00    +0.000 C 
ATOM     12  C   UNL     1       8.168   6.822  -0.149  0.00  0.00    +0.003 C 
ATOM     13  C   UNL     1       6.860   6.315  -0.762  0.00  0.00    +0.035 C 
ENDROOT
BRANCH   5  14
ATOM     14  C   UNL     1       2.341   5.540   0.210  0.00  0.00    +0.214 C 
BRANCH  14  15
ATOM     15  C   UNL     1       2.458   4.053  -0.002  0.00  0.00    +0.235 C 
ATOM     16  O   UNL     1       3.553   3.534  -0.068  0.00  0.00    -0.274 OA
ATOM     17  N   UNL     1       1.347   3.299  -0.119  0.00  0.00    -0.284 N 
ATOM     18  H   UNL     1       0.474   3.722  -0.143  0.00  0.00    +0.155 HD
BRANCH  17  19
ATOM     19  C   UNL     1       1.452   1.904  -0.206  0.00  0.00    +0.033 A 
ATOM     20  C   UNL     1       2.467   1.241   0.472  0.00  0.00    +0.024 A 
ATOM     21  C   UNL     1       2.570  -0.133   0.387  0.00  0.00    +0.016 A 
ATOM     22  C   UNL     1       1.660  -0.852  -0.377  0.00  0.00    +0.008 A 
ATOM     23  C   UNL     1       0.645  -0.188  -1.055  0.00  0.00    +0.016 A 
ATOM     24  C   UNL     1       0.542   1.186  -0.969  0.00  0.00    +0.024 A 
BRANCH  22  25
ATOM     25  S   UNL     1       1.792  -2.606  -0.486  0.00  0.00    -0.129 S 
ATOM     26  C   UNL     1       0.416  -3.083  -1.567  0.00  0.00    +0.090 C 
ENDBRANCH  22  25
ENDBRANCH  17  19
ENDBRANCH  14  15
ENDBRANCH   5  14
TORSDOF 4
