REMARK  Name = ZINC39722415
REMARK  8 active torsions:
REMARK  status: ('A' for Active; 'I' for Inactive)
REMARK    1  A    between atoms: C_1  and  C_2
REMARK    2  A    between atoms: C_2  and  O_3
REMARK    3  A    between atoms: O_3  and  C_4
REMARK    4  A    between atoms: C_7  and  N_10
REMARK    5  A    between atoms: C_18  and  S_20
REMARK    6  A    between atoms: S_20  and  C_21
REMARK    7  A    between atoms: C_21  and  C_22
REMARK    8  A    between atoms: C_30  and  C_34
REMARK                            x       y       z     vdW  Elec       q    Type
REMARK                         _______ _______ _______ _____ _____    ______ ____
ROOT
ATOM      1  N   UNL     1      -1.988  -5.988  -0.011  0.00  0.00    -0.270 N 
ATOM      2  C   UNL     1      -0.969  -6.945  -0.114  0.00  0.00    +0.057 A 
ATOM      3  C   UNL     1       0.407  -6.789  -0.231  0.00  0.00    +0.025 A 
ATOM      4  C   UNL     1       1.226  -7.897  -0.319  0.00  0.00    +0.002 A 
ATOM      5  C   UNL     1       0.681  -9.168  -0.291  0.00  0.00    +0.002 A 
ATOM      6  C   UNL     1      -0.686  -9.333  -0.175  0.00  0.00    +0.025 A 
ATOM      7  C   UNL     1      -1.518  -8.224  -0.085  0.00  0.00    +0.051 A 
ATOM      8  N   UNL     1      -2.912  -8.139   0.037  0.00  0.00    -0.316 N 
ATOM      9  C   UNL     1      -3.260  -6.714   0.095  0.00  0.00    +0.224 C 
ATOM     10  H   UNL     1      -3.531  -8.884   0.080  0.00  0.00    +0.149 HD
ENDROOT
BRANCH   1  14
ATOM     11  C   UNL     1      -1.500  -1.849   0.009  0.00  0.00    +0.121 A 
ATOM     12  C   UNL     1      -2.160  -2.464  -1.045  0.00  0.00    +0.047 A 
ATOM     13  C   UNL     1      -2.323  -3.835  -1.052  0.00  0.00    +0.027 A 
ATOM     14  C   UNL     1      -1.824  -4.599  -0.005  0.00  0.00    +0.037 A 
ATOM     15  C   UNL     1      -1.162  -3.982   1.049  0.00  0.00    +0.027 A 
ATOM     16  C   UNL     1      -0.996  -2.611   1.052  0.00  0.00    +0.047 A 
BRANCH  11  17
ATOM     17  O   UNL     1      -1.340  -0.498   0.015  0.00  0.00    -0.492 OA
BRANCH  17  19
ATOM     18  C   UNL     1      -1.608   1.718  -0.910  0.00  0.00    +0.048 C 
ATOM     19  C   UNL     1      -1.883   0.224  -1.092  0.00  0.00    +0.225 C 
ENDBRANCH  17  19
ENDBRANCH  11  17
ENDBRANCH   1  14
BRANCH   9  20
ATOM     20  S   UNL     1      -4.072  -6.328   1.670  0.00  0.00    -0.111 S 
BRANCH  20  21
ATOM     21  C   UNL     1      -2.879  -6.871   2.924  0.00  0.00    +0.146 C 
BRANCH  21  22
ATOM     22  C   UNL     1      -3.437  -6.603   4.298  0.00  0.00    +0.120 A 
ATOM     23  N   UNL     1      -2.682  -6.939   5.377  0.00  0.00    -0.310 N 
ATOM     24  H   UNL     1      -1.808  -7.339   5.246  0.00  0.00    +0.170 HD
ATOM     25  C   UNL     1      -3.138  -6.718   6.632  0.00  0.00    +0.259 A 
ATOM     26  O   UNL     1      -2.472  -7.014   7.607  0.00  0.00    -0.267 OA
ATOM     27  C   UNL     1      -4.471  -6.107   6.772  0.00  0.00    +0.065 A 
ATOM     28  C   UNL     1      -5.028  -5.840   8.021  0.00  0.00    +0.016 A 
ATOM     29  C   UNL     1      -6.267  -5.271   8.105  0.00  0.00    +0.016 A 
ATOM     30  C   UNL     1      -6.986  -4.953   6.945  0.00  0.00    +0.065 A 
ATOM     31  C   UNL     1      -6.447  -5.213   5.689  0.00  0.00    +0.043 A 
ATOM     32  C   UNL     1      -5.181  -5.793   5.593  0.00  0.00    +0.079 A 
ATOM     33  N   UNL     1      -4.612  -6.059   4.390  0.00  0.00    -0.233 NA
BRANCH  30  34
ATOM     34  C   UNL     1      -8.325  -4.339   7.057  0.00  0.00    +0.387 C 
ATOM     35  O   UNL     1      -8.803  -4.110   8.159  0.00  0.00    -0.241 OA
ATOM     36  O   UNL     1      -8.956  -4.060   6.047  0.00  0.00    -0.241 OA
ENDBRANCH  30  34
ENDBRANCH  21  22
ENDBRANCH  20  21
ENDBRANCH   9  20
TORSDOF 7
