REMARK  Name = ZINC40366947
REMARK  4 active torsions:
REMARK  status: ('A' for Active; 'I' for Inactive)
REMARK    1  A    between atoms: C_5  and  S_7
REMARK    2  A    between atoms: S_7  and  N_10
REMARK    3  A    between atoms: N_10  and  C_11
REMARK    4  A    between atoms: C_11  and  C_19
REMARK                            x       y       z     vdW  Elec       q    Type
REMARK                         _______ _______ _______ _____ _____    ______ ____
ROOT
ATOM      1  N   UNL     1       1.982  -2.808  -1.454  0.00  0.00    -0.170 NA
ATOM      2  H   UNL     1       1.500  -3.298  -2.139  0.00  0.00    +0.150 HD
ENDROOT
BRANCH   1   3
ATOM      3  C   UNL     1       3.420  -2.486  -1.643  0.00  0.00    +0.126 C 
ATOM      4  C   UNL     1       4.185  -3.272  -0.576  0.00  0.00    +0.039 C 
ATOM      5  C   UNL     1       5.142  -4.308  -1.178  0.00  0.00    +0.003 C 
ATOM      6  C   UNL     1       6.582  -3.773  -1.007  0.00  0.00    +0.000 C 
ATOM      7  C   UNL     1       6.812  -2.614  -1.966  0.00  0.00    +0.000 C 
ATOM      8  C   UNL     1       6.266  -2.938  -3.349  0.00  0.00    +0.000 C 
ATOM      9  C   UNL     1       5.005  -2.125  -3.623  0.00  0.00    +0.003 C 
ATOM     10  C   UNL     1       3.775  -2.823  -3.072  0.00  0.00    +0.039 C 
BRANCH   3  11
ATOM     11  C   UNL     1       3.559  -1.043  -1.367  0.00  0.00    +0.086 C 
ATOM     12  N   UNL     1       3.666   0.068  -1.155  0.00  0.00    -0.195 NA
ENDBRANCH   3  11
ENDBRANCH   1   3
BRANCH   1  13
ATOM     13  S   UNL     1       1.201  -2.332  -0.073  0.00  0.00    +0.061 S 
ATOM     14  O   UNL     1      -0.150  -2.750  -0.206  0.00  0.00    -0.153 OA
ATOM     15  O   UNL     1       1.561  -0.975   0.149  0.00  0.00    -0.153 OA
BRANCH  13  20
ATOM     16  C   UNL     1       3.112  -3.341   3.314  0.00  0.00    +0.002 A 
ATOM     17  C   UNL     1       2.962  -4.715   3.350  0.00  0.00    +0.001 A 
ATOM     18  C   UNL     1       2.274  -5.361   2.341  0.00  0.00    +0.017 A 
ATOM     19  C   UNL     1       1.736  -4.634   1.295  0.00  0.00    +0.044 A 
ATOM     20  C   UNL     1       1.886  -3.259   1.260  0.00  0.00    +0.119 A 
ATOM     21  C   UNL     1       2.575  -2.613   2.269  0.00  0.00    +0.029 A 
ATOM     22 BR   UNL     1       0.794  -5.518  -0.086  0.00  0.00    -0.048 Br
ENDBRANCH  13  20
ENDBRANCH   1  13
TORSDOF 4
