REMARK  Name = ZINC39664075
REMARK  9 active torsions:
REMARK  status: ('A' for Active; 'I' for Inactive)
REMARK    1  A    between atoms: C_1  and  C_2
REMARK    2  A    between atoms: C_2  and  C_3
REMARK    3  A    between atoms: C_7  and  C_16
REMARK    4  A    between atoms: N_18  and  C_19
REMARK    5  A    between atoms: C_19  and  C_20
REMARK    6  A    between atoms: C_20  and  C_22
REMARK    7  A    between atoms: C_20  and  N_30
REMARK    8  A    between atoms: C_25  and  O_28
REMARK    9  A    between atoms: O_28  and  C_29
REMARK                            x       y       z     vdW  Elec       q    Type
REMARK                         _______ _______ _______ _____ _____    ______ ____
ROOT
ATOM      1  C   UNL     1      -0.056  -5.542  -1.278  0.00  0.00    +0.218 C 
ATOM      2  O   UNL     1       0.579  -6.312  -1.966  0.00  0.00    -0.275 OA
ATOM      3  N   UNL     1      -0.391  -5.883  -0.017  0.00  0.00    -0.316 N 
ATOM      4  H   UNL     1      -0.899  -5.268   0.533  0.00  0.00    +0.149 HD
ENDROOT
BRANCH   1   9
ATOM      5  C   UNL     1       0.046  -1.900  -4.577  0.00  0.00    +0.215 C 
ATOM      6  O   UNL     1      -0.724  -1.475  -5.411  0.00  0.00    -0.276 OA
ATOM      7  N   UNL     1      -0.241  -3.036  -3.910  0.00  0.00    -0.300 N 
ATOM      8  C   UNL     1       0.565  -3.702  -2.861  0.00  0.00    +0.121 C 
ATOM      9  C   UNL     1      -0.472  -4.204  -1.831  0.00  0.00    +0.100 C 
ATOM     10  C   UNL     1      -1.782  -4.334  -2.626  0.00  0.00    -0.004 C 
ATOM     11  C   UNL     1      -1.439  -3.897  -4.057  0.00  0.00    +0.115 C 
ATOM     12  C   UNL     1      -2.849  -3.413  -2.041  0.00  0.00    -0.010 C 
ATOM     13  C   UNL     1      -4.158  -3.602  -2.812  0.00  0.00    -0.082 C 
ATOM     14  N   UNL     1      -4.587  -5.003  -2.716  0.00  0.00    +0.379 N 
ATOM     15  C   UNL     1      -3.599  -5.874  -3.363  0.00  0.00    -0.082 C 
ATOM     16  C   UNL     1      -2.265  -5.781  -2.616  0.00  0.00    -0.010 C 
ATOM     17  H   UNL     1      -4.675  -5.260  -1.744  0.00  0.00    -0.086 HD
ATOM     18  H   UNL     1      -5.480  -5.112  -3.172  0.00  0.00    -0.086 HD
BRANCH   5  20
ATOM     19  C   UNL     1       1.407   0.086  -5.171  0.00  0.00    +0.013 C 
ATOM     20  C   UNL     1       1.325  -1.159  -4.285  0.00  0.00    +0.092 C 
ENDBRANCH   5  20
ENDBRANCH   1   9
BRANCH   3  21
ATOM     21  C   UNL     1       0.013  -7.185   0.521  0.00  0.00    +0.093 C 
BRANCH  21  22
ATOM     22  C   UNL     1      -0.603  -7.376   1.908  0.00  0.00    -0.020 C 
BRANCH  22  23
ATOM     23  C   UNL     1      -2.103  -7.453   1.786  0.00  0.00    -0.059 A 
ATOM     24  C   UNL     1      -2.704  -8.636   1.398  0.00  0.00    +0.005 A 
ATOM     25  C   UNL     1      -4.079  -8.709   1.285  0.00  0.00    +0.046 A 
ATOM     26  C   UNL     1      -4.856  -7.594   1.560  0.00  0.00    +0.120 A 
ATOM     27  C   UNL     1      -4.251  -6.407   1.948  0.00  0.00    +0.046 A 
ATOM     28  C   UNL     1      -2.876  -6.341   2.066  0.00  0.00    +0.005 A 
BRANCH  26  29
ATOM     29  O   UNL     1      -6.209  -7.662   1.448  0.00  0.00    -0.495 OA
ATOM     30  C   UNL     1      -6.946  -6.475   1.747  0.00  0.00    +0.277 C 
ENDBRANCH  26  29
ENDBRANCH  22  23
BRANCH  22  31
ATOM     31  N   UNL     1      -0.096  -8.621   2.502  0.00  0.00    +0.385 N 
ATOM     32  C   UNL     1       1.374  -8.534   2.696  0.00  0.00    -0.078 C 
ATOM     33  C   UNL     1       1.651  -9.597   3.788  0.00  0.00    -0.020 C 
ATOM     34  C   UNL     1       0.423  -9.465   4.718  0.00  0.00    -0.020 C 
ATOM     35  C   UNL     1      -0.670  -8.814   3.851  0.00  0.00    -0.078 C 
ATOM     36  H   UNL     1      -0.324  -9.406   1.911  0.00  0.00    -0.081 HD
ENDBRANCH  22  31
ENDBRANCH  21  22
ENDBRANCH   3  21
TORSDOF 7
