REMARK  Name = ZINC59311751
REMARK  8 active torsions:
REMARK  status: ('A' for Active; 'I' for Inactive)
REMARK    1  A    between atoms: C_1  and  C_2
REMARK    2  A    between atoms: C_2  and  C_3
REMARK    3  A    between atoms: C_3  and  C_4
REMARK    4  A    between atoms: N_5  and  N_6
REMARK    5  A    between atoms: C_9  and  S_12
REMARK    6  A    between atoms: S_12  and  C_13
REMARK    7  A    between atoms: C_13  and  C_14
REMARK    8  A    between atoms: N_16  and  C_17
REMARK                            x       y       z     vdW  Elec       q    Type
REMARK                         _______ _______ _______ _____ _____    ______ ____
ROOT
ATOM      1  S   UNL     1       6.958  -4.852   1.730  0.00  0.00    -0.075 S 
ENDROOT
BRANCH   1   5
ATOM      2  N   UNL     1       1.892  -4.042   1.371  0.00  0.00    -0.206 N 
ATOM      3  C   UNL     1       3.096  -4.718   1.450  0.00  0.00    +0.232 A 
ATOM      4  N   UNL     1       4.288  -4.168   1.544  0.00  0.00    -0.186 NA
ATOM      5  C   UNL     1       5.222  -5.123   1.601  0.00  0.00    +0.211 A 
ATOM      6  N   UNL     1       4.636  -6.295   1.544  0.00  0.00    -0.144 NA
ATOM      7  N   UNL     1       3.255  -6.059   1.452  0.00  0.00    -0.245 N 
ATOM      8  H   UNL     1       1.060  -4.538   1.309  0.00  0.00    +0.177 HD
ATOM      9  H   UNL     1       2.553  -6.726   1.399  0.00  0.00    +0.192 HD
BRANCH   2  11
ATOM     10  C   UNL     1       0.759  -2.015   1.305  0.00  0.00    +0.103 C 
ATOM     11  N   UNL     1       1.873  -2.641   1.379  0.00  0.00    -0.192 NA
BRANCH  10  12
ATOM     12  C   UNL     1       0.739  -0.508   1.314  0.00  0.00    +0.048 C 
BRANCH  12  14
ATOM     13  C   UNL     1      -0.031   1.529   0.089  0.00  0.00    +0.004 C 
ATOM     14  C   UNL     1      -0.010  -0.001   0.080  0.00  0.00    +0.002 C 
ENDBRANCH  12  14
ENDBRANCH  10  12
ENDBRANCH   2  11
ENDBRANCH   1   5
BRANCH   1  15
ATOM     15  C   UNL     1       7.662  -6.524   1.762  0.00  0.00    +0.173 C 
BRANCH  15  16
ATOM     16  C   UNL     1       9.163  -6.434   1.872  0.00  0.00    +0.228 C 
ATOM     17  O   UNL     1       9.704  -5.350   1.923  0.00  0.00    -0.275 OA
ATOM     18  N   UNL     1       9.903  -7.560   1.913  0.00  0.00    -0.284 N 
ATOM     19  H   UNL     1       9.468  -8.426   1.937  0.00  0.00    +0.155 HD
BRANCH  18  20
ATOM     20  C   UNL     1      11.301  -7.478   1.920  0.00  0.00    +0.048 A 
ATOM     21  C   UNL     1      11.933  -6.430   2.575  0.00  0.00    +0.025 A 
ATOM     22  C   UNL     1      13.312  -6.352   2.581  0.00  0.00    +0.017 A 
ATOM     23  C   UNL     1      14.064  -7.316   1.934  0.00  0.00    +0.019 A 
ATOM     24  C   UNL     1      13.437  -8.362   1.279  0.00  0.00    +0.032 A 
ATOM     25  C   UNL     1      12.058  -8.449   1.276  0.00  0.00    +0.040 A 
ATOM     26 BR   UNL     1      11.202  -9.883   0.388  0.00  0.00    -0.048 Br
ATOM     27 BR   UNL     1      15.951  -7.205   1.944  0.00  0.00    -0.050 Br
ENDBRANCH  18  20
ENDBRANCH  15  16
ENDBRANCH   1  15
TORSDOF 7
