REMARK  Name = ZINC38649684
REMARK  10 active torsions:
REMARK  status: ('A' for Active; 'I' for Inactive)
REMARK    1  A    between atoms: C_1  and  C_2
REMARK    2  A    between atoms: C_2  and  C_3
REMARK    3  A    between atoms: C_2  and  C_4
REMARK    4  A    between atoms: C_7  and  C_10
REMARK    5  A    between atoms: C_15  and  O_24
REMARK    6  A    between atoms: C_19  and  N_23
REMARK    7  A    between atoms: C_20  and  C_21
REMARK    8  A    between atoms: O_24  and  C_25
REMARK    9  A    between atoms: C_25  and  C_27
REMARK   10  A    between atoms: C_29  and  N_34
REMARK                            x       y       z     vdW  Elec       q    Type
REMARK                         _______ _______ _______ _____ _____    ______ ____
ROOT
ATOM      1  C   UNL     1      -5.450  -1.960   0.080  0.00  0.00    +0.098 C 
ATOM      2  C   UNL     1      -6.168  -1.470  -1.150  0.00  0.00    +0.008 A 
ATOM      3  C   UNL     1      -6.697  -0.192  -1.165  0.00  0.00    +0.012 A 
ATOM      4  C   UNL     1      -7.358   0.274  -2.284  0.00  0.00    +0.047 A 
ATOM      5  C   UNL     1      -7.495  -0.541  -3.399  0.00  0.00    +0.135 A 
ATOM      6  C   UNL     1      -6.966  -1.821  -3.387  0.00  0.00    +0.093 A 
ATOM      7  C   UNL     1      -6.300  -2.289  -2.261  0.00  0.00    +0.138 A 
ATOM      8  O   UNL     1      -5.789  -3.544  -2.265  0.00  0.00    -0.441 OA
ATOM      9  C   UNL     1      -5.497  -4.153  -1.103  0.00  0.00    +0.199 C 
ATOM     10  C   UNL     1      -5.324  -3.458   0.042  0.00  0.00    +0.098 C 
ENDROOT
BRANCH   1  14
ATOM     11  C   UNL     1      -1.554  -0.217   0.237  0.00  0.00    -0.045 A 
ATOM     12  C   UNL     1      -2.456   0.014   1.258  0.00  0.00    +0.004 A 
ATOM     13  C   UNL     1      -3.717  -0.550   1.208  0.00  0.00    +0.005 A 
ATOM     14  C   UNL     1      -4.076  -1.345   0.135  0.00  0.00    -0.035 A 
ATOM     15  C   UNL     1      -3.174  -1.575  -0.887  0.00  0.00    +0.005 A 
ATOM     16  C   UNL     1      -1.915  -1.007  -0.839  0.00  0.00    +0.004 A 
BRANCH  11  18
ATOM     17  C   UNL     1      -0.304   1.922   0.344  0.00  0.00    +0.012 C 
ATOM     18  C   UNL     1      -0.179   0.398   0.292  0.00  0.00    +0.013 C 
ATOM     19  C   UNL     1       0.551  -0.097   1.542  0.00  0.00    +0.012 C 
ENDBRANCH  11  18
ENDBRANCH   1  14
BRANCH   9  20
ATOM     20  N   UNL     1      -5.370  -5.519  -1.081  0.00  0.00    -0.328 N 
ATOM     21  H   UNL     1      -5.491  -6.031  -1.896  0.00  0.00    +0.145 HD
ATOM     22  H   UNL     1      -5.159  -5.973  -0.250  0.00  0.00    +0.145 HD
ENDBRANCH   9  20
BRANCH  10  23
ATOM     23  C   UNL     1      -5.013  -4.166   1.247  0.00  0.00    +0.101 C 
ATOM     24  N   UNL     1      -4.766  -4.728   2.203  0.00  0.00    -0.191 NA
ENDBRANCH  10  23
BRANCH   5  25
ATOM     25  O   UNL     1      -8.146  -0.084  -4.500  0.00  0.00    -0.422 OA
BRANCH  25  26
ATOM     26  C   UNL     1      -7.559   0.889  -5.224  0.00  0.00    +0.346 C 
ATOM     27  O   UNL     1      -6.435   1.258  -4.948  0.00  0.00    -0.244 OA
BRANCH  26  28
ATOM     28  C   UNL     1      -8.282   1.506  -6.354  0.00  0.00    +0.080 A 
ATOM     29  C   UNL     1      -9.576   1.089  -6.671  0.00  0.00    +0.049 A 
ATOM     30  C   UNL     1     -10.245   1.670  -7.728  0.00  0.00    +0.127 A 
ATOM     31  C   UNL     1      -9.638   2.665  -8.474  0.00  0.00    +0.034 A 
ATOM     32  C   UNL     1      -8.357   3.084  -8.167  0.00  0.00    +0.023 A 
ATOM     33  C   UNL     1      -7.676   2.516  -7.107  0.00  0.00    +0.055 A 
ATOM     34 CL   UNL     1      -6.071   3.049  -6.717  0.00  0.00    -0.083 Cl
BRANCH  30  35
ATOM     35  N   UNL     1     -11.617   1.228  -8.065  0.00  0.00    +0.056 N 
ATOM     36  O   UNL     1     -12.149   0.359  -7.415  0.00  0.00    -0.126 OA
ATOM     37  O   UNL     1     -12.206   1.736  -8.991  0.00  0.00    -0.126 OA
ENDBRANCH  30  35
ENDBRANCH  26  28
ENDBRANCH  25  26
ENDBRANCH   5  25
TORSDOF 8
