REMARK  Name = ZINC33040277
REMARK  10 active torsions:
REMARK  status: ('A' for Active; 'I' for Inactive)
REMARK    1  A    between atoms: C_1  and  C_2
REMARK    2  A    between atoms: C_2  and  C_3
REMARK    3  A    between atoms: C_3  and  C_5
REMARK    4  A    between atoms: C_3  and  C_6
REMARK    5  A    between atoms: C_11  and  N_12
REMARK    6  A    between atoms: C_13  and  C_15
REMARK    7  A    between atoms: C_15  and  C_17
REMARK    8  A    between atoms: C_15  and  N_18
REMARK    9  A    between atoms: N_21  and  S_24
REMARK   10  A    between atoms: S_24  and  C_27
REMARK                            x       y       z     vdW  Elec       q    Type
REMARK                         _______ _______ _______ _____ _____    ______ ____
ROOT
ATOM      1  N   UNL     1      -2.621   7.851   0.204  0.00  0.00    +0.389 N 
ATOM      2  C   UNL     1      -3.482   7.307  -0.855  0.00  0.00    -0.060 C 
ATOM      3  C   UNL     1      -4.941   7.674  -0.561  0.00  0.00    +0.091 C 
ATOM      4  N   UNL     1      -5.028   9.131  -0.376  0.00  0.00    -0.180 NA
ATOM      5  C   UNL     1      -4.099   9.768   0.570  0.00  0.00    +0.091 C 
ATOM      6  C   UNL     1      -2.674   9.319   0.232  0.00  0.00    -0.060 C 
ATOM      7  H   UNL     1      -3.003   7.484   1.168  0.00  0.00    -0.081 HD
ENDROOT
BRANCH   4   8
ATOM      8  S   UNL     1      -6.141  10.029  -1.210  0.00  0.00    +0.061 S 
ATOM      9  O   UNL     1      -7.193   9.142  -1.566  0.00  0.00    -0.153 OA
ATOM     10  O   UNL     1      -6.363  11.208  -0.450  0.00  0.00    -0.153 OA
BRANCH   8  11
ATOM     11  C   UNL     1      -5.379  10.536  -2.715  0.00  0.00    +0.108 A 
ATOM     12  C   UNL     1      -4.686  11.731  -2.771  0.00  0.00    +0.029 A 
ATOM     13  C   UNL     1      -4.083  12.128  -3.950  0.00  0.00    +0.005 A 
ATOM     14  C   UNL     1      -4.182  11.336  -5.078  0.00  0.00    +0.038 A 
ATOM     15  C   UNL     1      -4.880  10.141  -5.025  0.00  0.00    +0.125 A 
ATOM     16  C   UNL     1      -5.479   9.742  -3.842  0.00  0.00    +0.066 A 
ATOM     17  F   UNL     1      -4.978   9.366  -6.127  0.00  0.00    -0.205 F 
ENDBRANCH   8  11
ENDBRANCH   4   8
BRANCH   1  18
ATOM     18  C   UNL     1      -1.239   7.377   0.053  0.00  0.00    +0.017 C 
ATOM     19  C   UNL     1      -0.697   7.810  -1.311  0.00  0.00    -0.004 C 
BRANCH  18  21
ATOM     20  N   UNL     1      -0.040   5.213   0.041  0.00  0.00    -0.287 N 
ATOM     21  C   UNL     1      -1.210   5.873   0.151  0.00  0.00    +0.203 C 
ATOM     22  O   UNL     1      -2.239   5.257   0.329  0.00  0.00    -0.277 OA
ATOM     23  H   UNL     1       0.904   5.774  -0.029  0.00  0.00    +0.155 HD
BRANCH  20  29
ATOM     24  C   UNL     1       1.028   3.119   0.594  0.00  0.00    -0.023 A 
ATOM     25  C   UNL     1       1.039   1.738   0.567  0.00  0.00    +0.006 A 
ATOM     26  C   UNL     1       0.004   1.048  -0.036  0.00  0.00    +0.000 A 
ATOM     27  C   UNL     1      -1.044   1.738  -0.619  0.00  0.00    +0.002 A 
ATOM     28  C   UNL     1      -1.064   3.119  -0.590  0.00  0.00    +0.023 A 
ATOM     29  C   UNL     1      -0.025   3.814   0.015  0.00  0.00    +0.037 A 
BRANCH  24  30
ATOM     30  C   UNL     1       2.157   3.870   1.251  0.00  0.00    +0.017 C 
ATOM     31  C   UNL     1       2.168   3.566   2.750  0.00  0.00    +0.012 C 
BRANCH  30  33
ATOM     32  C   UNL     1       4.621   4.283   1.210  0.00  0.00    +0.004 C 
ATOM     33  C   UNL     1       3.487   3.433   0.633  0.00  0.00    +0.004 C 
ENDBRANCH  30  33
ENDBRANCH  24  30
ENDBRANCH  20  29
ENDBRANCH  18  21
ENDBRANCH   1  18
TORSDOF 7
