REMARK  Name = ZINC14050389
REMARK  8 active torsions:
REMARK  status: ('A' for Active; 'I' for Inactive)
REMARK    1  A    between atoms: C_1  and  C_2
REMARK    2  A    between atoms: C_5  and  C_8
REMARK    3  A    between atoms: C_8  and  N_9
REMARK    4  A    between atoms: N_12  and  C_13
REMARK    5  A    between atoms: C_13  and  C_14
REMARK    6  A    between atoms: N_16  and  C_17
REMARK    7  A    between atoms: C_17  and  C_19
REMARK    8  A    between atoms: C_17  and  C_20
REMARK                            x       y       z     vdW  Elec       q    Type
REMARK                         _______ _______ _______ _____ _____    ______ ____
ROOT
ATOM      1  C   UNL     1       4.764  -8.152  -0.069  0.00  0.00    +0.230 C 
ATOM      2  O   UNL     1       5.514  -7.199  -0.068  0.00  0.00    -0.274 OA
ATOM      3  N   UNL     1       5.265  -9.403  -0.078  0.00  0.00    -0.311 N 
ATOM      4  H   UNL     1       4.665 -10.166  -0.079  0.00  0.00    +0.149 HD
ENDROOT
BRANCH   3   5
ATOM      5  C   UNL     1       6.715  -9.612  -0.087  0.00  0.00    +0.076 C 
ATOM      6  C   UNL     1       7.245  -9.569   1.347  0.00  0.00    +0.028 C 
BRANCH   5   7
ATOM      7  C   UNL     1       7.030 -10.976  -0.706  0.00  0.00    -0.010 C 
ATOM      8  C   UNL     1       6.361 -12.077   0.119  0.00  0.00    +0.012 C 
ATOM      9  C   UNL     1       6.676 -13.440  -0.500  0.00  0.00    -0.010 C 
ATOM     10  C   UNL     1       8.190 -13.659  -0.509  0.00  0.00    +0.007 C 
ATOM     11  C   UNL     1       8.859 -12.557  -1.335  0.00  0.00    -0.010 C 
ATOM     12  C   UNL     1       8.544 -11.194  -0.716  0.00  0.00    +0.012 C 
ATOM     13  C   UNL     1       8.328 -12.601  -2.769  0.00  0.00    +0.007 C 
ATOM     14  C   UNL     1       6.814 -12.383  -2.759  0.00  0.00    -0.010 C 
ATOM     15  C   UNL     1       6.145 -13.484  -1.934  0.00  0.00    +0.007 C 
ATOM     16  C   UNL     1       6.499 -11.020  -2.140  0.00  0.00    +0.012 C 
ENDBRANCH   5   7
ENDBRANCH   3   5
BRANCH   1  17
ATOM     17  C   UNL     1       3.273  -7.937  -0.059  0.00  0.00    +0.201 C 
BRANCH  17  21
ATOM     18  N   UNL     1       1.447  -4.746  -0.032  0.00  0.00    -0.295 N 
ATOM     19  C   UNL     1       1.710  -6.067  -0.040  0.00  0.00    +0.300 C 
ATOM     20  O   UNL     1       0.796  -6.870  -0.040  0.00  0.00    -0.253 OA
ATOM     21  N   UNL     1       2.986  -6.500  -0.050  0.00  0.00    -0.291 N 
ATOM     22  H   UNL     1       2.176  -4.106  -0.032  0.00  0.00    +0.151 HD
ATOM     23  H   UNL     1       3.716  -5.861  -0.050  0.00  0.00    +0.151 HD
BRANCH  18  24
ATOM     24  C   UNL     1       0.059  -4.275  -0.021  0.00  0.00    +0.141 C 
BRANCH  24  29
ATOM     25  C   UNL     1      -0.018   1.503   0.010  0.00  0.00    +0.044 C 
ATOM     26  C   UNL     1       0.002  -0.004   0.002  0.00  0.00    -0.050 A 
ATOM     27  C   UNL     1       0.006  -0.689  -1.199  0.00  0.00    +0.003 A 
ATOM     28  C   UNL     1       0.025  -2.071  -1.206  0.00  0.00    +0.005 A 
ATOM     29  C   UNL     1       0.040  -2.768  -0.013  0.00  0.00    -0.030 A 
ATOM     30  C   UNL     1       0.037  -2.084   1.188  0.00  0.00    +0.005 A 
ATOM     31  C   UNL     1       0.023  -0.702   1.195  0.00  0.00    +0.003 A 
ENDBRANCH  24  29
ENDBRANCH  18  24
ENDBRANCH  17  21
ENDBRANCH   1  17
TORSDOF 6
