REMARK  Name = ZINC64869445
REMARK  8 active torsions:
REMARK  status: ('A' for Active; 'I' for Inactive)
REMARK    1  A    between atoms: C_1  and  C_2
REMARK    2  A    between atoms: C_2  and  O_3
REMARK    3  A    between atoms: O_3  and  C_4
REMARK    4  A    between atoms: C_4  and  C_6
REMARK    5  A    between atoms: C_6  and  C_7
REMARK    6  A    between atoms: N_11  and  C_19
REMARK    7  A    between atoms: C_19  and  C_20
REMARK    8  A    between atoms: N_22  and  C_23
REMARK                            x       y       z     vdW  Elec       q    Type
REMARK                         _______ _______ _______ _____ _____    ______ ____
ROOT
ATOM      1  C   UNL     1       1.374  -3.826  -2.603  0.00  0.00    +0.024 C 
ATOM      2  C   UNL     1       0.415  -4.459  -3.307  0.00  0.00    +0.087 C 
ATOM      3  C   UNL     1       0.139  -5.843  -3.405  0.00  0.00    +0.246 C 
ATOM      4  O   UNL     1      -0.799  -6.143  -4.120  0.00  0.00    -0.270 OA
ATOM      5  N   UNL     1       0.775  -6.875  -2.814  0.00  0.00    -0.257 N 
ATOM      6  C   UNL     1       1.879  -6.830  -1.945  0.00  0.00    +0.058 A 
ATOM      7  C   UNL     1       2.262  -8.096  -1.534  0.00  0.00    +0.025 A 
ATOM      8  C   UNL     1       3.335  -8.246  -0.673  0.00  0.00    +0.002 A 
ATOM      9  C   UNL     1       4.026  -7.136  -0.223  0.00  0.00    +0.002 A 
ATOM     10  C   UNL     1       3.648  -5.868  -0.630  0.00  0.00    +0.025 A 
ATOM     11  C   UNL     1       2.576  -5.711  -1.491  0.00  0.00    +0.053 A 
ATOM     12  N   UNL     1       2.345  -4.360  -1.797  0.00  0.00    -0.316 N 
ATOM     13  H   UNL     1       2.946  -3.723  -1.381  0.00  0.00    +0.152 HD
ENDROOT
BRANCH   1  14
ATOM     14  C   UNL     1       1.384  -2.325  -2.725  0.00  0.00    +0.171 C 
BRANCH  14  15
ATOM     15  C   UNL     1       0.615  -1.722  -1.577  0.00  0.00    +0.313 C 
ATOM     16  O   UNL     1       0.110  -2.439  -0.747  0.00  0.00    -0.250 OA
BRANCH  15  17
ATOM     17  O   UNL     1       0.491  -0.390  -1.479  0.00  0.00    -0.465 OA
BRANCH  17  19
ATOM     18  C   UNL     1      -0.285   1.641  -0.422  0.00  0.00    +0.048 C 
ATOM     19  C   UNL     1      -0.252   0.112  -0.366  0.00  0.00    +0.229 C 
ENDBRANCH  17  19
ENDBRANCH  15  17
ENDBRANCH  14  15
ENDBRANCH   1  14
BRANCH   5  20
ATOM     20  C   UNL     1       0.249  -8.209  -3.114  0.00  0.00    +0.210 C 
BRANCH  20  21
ATOM     21  C   UNL     1      -0.677  -8.644  -2.008  0.00  0.00    +0.235 C 
ATOM     22  O   UNL     1      -0.877  -7.913  -1.062  0.00  0.00    -0.274 OA
ATOM     23  N   UNL     1      -1.282  -9.847  -2.070  0.00  0.00    -0.283 N 
ATOM     24  H   UNL     1      -1.079 -10.455  -2.798  0.00  0.00    +0.155 HD
BRANCH  23  25
ATOM     25  C   UNL     1      -2.204 -10.219  -1.084  0.00  0.00    +0.047 A 
ATOM     26  C   UNL     1      -2.116  -9.674   0.190  0.00  0.00    +0.024 A 
ATOM     27  C   UNL     1      -3.027 -10.043   1.161  0.00  0.00    +0.002 A 
ATOM     28  C   UNL     1      -4.026 -10.953   0.865  0.00  0.00    +0.001 A 
ATOM     29  C   UNL     1      -4.116 -11.497  -0.403  0.00  0.00    +0.017 A 
ATOM     30  C   UNL     1      -3.211 -11.128  -1.381  0.00  0.00    +0.039 A 
ATOM     31 BR   UNL     1      -3.339 -11.867  -3.116  0.00  0.00    -0.048 Br
ENDBRANCH  23  25
ENDBRANCH  20  21
ENDBRANCH   5  20
TORSDOF 7
