REMARK  Name = ZINC47146951
REMARK  6 active torsions:
REMARK  status: ('A' for Active; 'I' for Inactive)
REMARK    1  A    between atoms: C_1  and  C_2
REMARK    2  A    between atoms: C_7  and  C_8
REMARK    3  A    between atoms: C_8  and  O_9
REMARK    4  A    between atoms: O_9  and  C_10
REMARK    5  A    between atoms: C_15  and  C_16
REMARK    6  A    between atoms: N_32  and  C_35
REMARK                            x       y       z     vdW  Elec       q    Type
REMARK                         _______ _______ _______ _____ _____    ______ ____
ROOT
ATOM      1  C   UNL     1       0.094  -2.720   5.737  0.00  0.00    +0.075 C 
ATOM      2  C   UNL     1       1.361  -3.243   6.290  0.00  0.00    +0.033 A 
ATOM      3  C   UNL     1       1.591  -4.371   6.989  0.00  0.00    +0.088 A 
ATOM      4  N   UNL     1       2.903  -4.601   7.323  0.00  0.00    -0.311 N 
ATOM      5  H   UNL     1       3.148  -5.407   7.802  0.00  0.00    +0.170 HD
ATOM      6  C   UNL     1       3.848  -3.704   6.984  0.00  0.00    +0.289 A 
ATOM      7  O   UNL     1       5.045  -3.745   7.208  0.00  0.00    -0.260 OA
ATOM      8  S   UNL     1       2.978  -2.512   6.178  0.00  0.00    -0.030 S 
ATOM      9  S   UNL     1       0.241  -5.429   7.447  0.00  0.00    -0.093 S 
ATOM     10  C   UNL     1      -1.141  -4.821   6.493  0.00  0.00    +0.152 C 
ATOM     11  C   UNL     1      -1.188  -3.296   6.332  0.00  0.00    +0.110 C 
ATOM     12  C   UNL     1      -2.180  -3.253   5.147  0.00  0.00    +0.232 C 
ATOM     13  O   UNL     1      -2.980  -2.375   4.904  0.00  0.00    -0.274 OA
ATOM     14  N   UNL     1      -1.983  -4.383   4.436  0.00  0.00    -0.209 N 
ATOM     15  C   UNL     1      -1.236  -5.305   5.077  0.00  0.00    +0.240 C 
ATOM     16  O   UNL     1      -0.756  -6.315   4.612  0.00  0.00    -0.274 OA
ENDROOT
BRANCH   1  22
ATOM     17  C   UNL     1       0.053  -0.377   4.844  0.00  0.00    +0.125 A 
ATOM     18  C   UNL     1       0.031   0.997   5.035  0.00  0.00    +0.046 A 
ATOM     19  C   UNL     1       0.035   1.516   6.315  0.00  0.00    +0.004 A 
ATOM     20  C   UNL     1       0.062   0.667   7.406  0.00  0.00    +0.001 A 
ATOM     21  C   UNL     1       0.086  -0.703   7.218  0.00  0.00    +0.008 A 
ATOM     22  C   UNL     1       0.075  -1.226   5.940  0.00  0.00    +0.003 A 
BRANCH  17  23
ATOM     23  O   UNL     1       0.048  -0.889   3.585  0.00  0.00    -0.487 OA
BRANCH  23  24
ATOM     24  C   UNL     1       0.025   0.045   2.504  0.00  0.00    +0.264 C 
BRANCH  24  31
ATOM     25  C   UNL     1      -0.018   1.503   0.010  0.00  0.00    +0.044 C 
ATOM     26  C   UNL     1       0.002  -0.004   0.002  0.00  0.00    -0.044 A 
ATOM     27  C   UNL     1       0.006  -0.689  -1.199  0.00  0.00    +0.004 A 
ATOM     28  C   UNL     1       0.025  -2.071  -1.207  0.00  0.00    +0.000 A 
ATOM     29  C   UNL     1       0.040  -2.768  -0.013  0.00  0.00    +0.000 A 
ATOM     30  C   UNL     1       0.037  -2.084   1.188  0.00  0.00    +0.007 A 
ATOM     31  C   UNL     1       0.023  -0.702   1.195  0.00  0.00    -0.007 A 
ENDBRANCH  24  31
ENDBRANCH  23  24
ENDBRANCH  17  23
ENDBRANCH   1  22
BRANCH  14  32
ATOM     32  C   UNL     1      -2.494  -4.574   3.145  0.00  0.00    +0.044 A 
ATOM     33  C   UNL     1      -3.238  -3.572   2.536  0.00  0.00    +0.024 A 
ATOM     34  C   UNL     1      -3.740  -3.763   1.263  0.00  0.00    +0.002 A 
ATOM     35  C   UNL     1      -3.502  -4.951   0.596  0.00  0.00    +0.000 A 
ATOM     36  C   UNL     1      -2.762  -5.950   1.200  0.00  0.00    +0.002 A 
ATOM     37  C   UNL     1      -2.252  -5.763   2.470  0.00  0.00    +0.024 A 
ENDBRANCH  14  32
TORSDOF 5
