REMARK  Name = ZINC03671904
REMARK  7 active torsions:
REMARK  status: ('A' for Active; 'I' for Inactive)
REMARK    1  A    between atoms: C_1  and  C_2
REMARK    2  A    between atoms: C_2  and  C_30
REMARK    3  A    between atoms: C_6  and  C_17
REMARK    4  A    between atoms: C_11  and  O_15
REMARK    5  A    between atoms: C_24  and  S_26
REMARK    6  A    between atoms: S_26  and  C_27
REMARK    7  A    between atoms: C_27  and  C_28
REMARK                            x       y       z     vdW  Elec       q    Type
REMARK                         _______ _______ _______ _____ _____    ______ ____
ROOT
ATOM      1  C   UNL     1       5.778   3.915  -2.667  0.00  0.00    +0.031 C 
ATOM      2  C   UNL     1       4.870   5.052  -2.196  0.00  0.00    +0.034 C 
ATOM      3  C   UNL     1       5.173   5.390  -0.729  0.00  0.00    +0.098 C 
ATOM      4  C   UNL     1       4.920   4.141   0.118  0.00  0.00    +0.207 C 
ATOM      5  C   UNL     1       4.973   4.519   1.605  0.00  0.00    +0.086 C 
ATOM      6  C   UNL     1       4.613   3.279   2.427  0.00  0.00    +0.058 C 
ATOM      7  C   UNL     1       5.406   2.094   1.934  0.00  0.00    +0.004 A 
ATOM      8  C   UNL     1       5.511   0.979   2.750  0.00  0.00    +0.031 A 
ATOM      9  C   UNL     1       6.221  -0.128   2.330  0.00  0.00    +0.083 A 
ATOM     10  C   UNL     1       6.836  -0.126   1.085  0.00  0.00    +0.139 A 
ATOM     11  C   UNL     1       6.735   0.988   0.270  0.00  0.00    +0.093 A 
ATOM     12  C   UNL     1       6.019   2.102   0.693  0.00  0.00    +0.131 A 
ATOM     13  O   UNL     1       5.944   3.177  -0.135  0.00  0.00    -0.464 OA
ATOM     14 CL   UNL     1       6.345  -1.522   3.358  0.00  0.00    -0.080 Cl
ATOM     15  N   UNL     1       3.613   3.571  -0.189  0.00  0.00    -0.218 NA
ATOM     16  C   UNL     1       2.972   3.796  -1.290  0.00  0.00    +0.154 C 
ATOM     17  N   UNL     1       3.462   4.630  -2.268  0.00  0.00    -0.319 N 
ATOM     18  C   UNL     1       5.088   6.288  -3.072  0.00  0.00    +0.031 C 
ATOM     19  H   UNL     1       2.891   4.934  -2.991  0.00  0.00    +0.148 HD
ENDROOT
BRANCH   6  20
ATOM     20  C   UNL     1       4.935   3.529   3.878  0.00  0.00    -0.040 A 
ATOM     21  C   UNL     1       6.234   3.807   4.260  0.00  0.00    +0.004 A 
ATOM     22  C   UNL     1       6.528   4.041   5.590  0.00  0.00    +0.000 A 
ATOM     23  C   UNL     1       5.525   3.987   6.540  0.00  0.00    +0.000 A 
ATOM     24  C   UNL     1       4.227   3.703   6.158  0.00  0.00    +0.000 A 
ATOM     25  C   UNL     1       3.932   3.474   4.827  0.00  0.00    +0.004 A 
ENDBRANCH   6  20
BRANCH  10  26
ATOM     26  O   UNL     1       7.535  -1.214   0.668  0.00  0.00    -0.505 OA
ATOM     27  H   UNL     1       7.004  -1.861   0.184  0.00  0.00    +0.292 HD
ENDBRANCH  10  26
BRANCH  16  28
ATOM     28  S   UNL     1       1.414   3.014  -1.542  0.00  0.00    -0.087 S 
BRANCH  28  29
ATOM     29  C   UNL     1       1.279   2.077   0.001  0.00  0.00    +0.103 C 
BRANCH  29  30
ATOM     30  C   UNL     1      -0.016   1.306   0.009  0.00  0.00    -0.023 C 
ATOM     31  C   UNL     1       0.002  -0.004   0.002  0.00  0.00    +0.005 C 
ENDBRANCH  29  30
ENDBRANCH  28  29
ENDBRANCH  16  28
TORSDOF 5
