REMARK  Name = ZINC37131977
REMARK  4 active torsions:
REMARK  status: ('A' for Active; 'I' for Inactive)
REMARK    1  A    between atoms: C_3  and  O_20
REMARK    2  A    between atoms: C_6  and  N_7
REMARK    3  A    between atoms: N_7  and  C_8
REMARK    4  A    between atoms: C_8  and  C_9
REMARK                            x       y       z     vdW  Elec       q    Type
REMARK                         _______ _______ _______ _____ _____    ______ ____
ROOT
ATOM      1  C   UNL     1      -1.180  -2.185   0.002  0.00  0.00    +0.137 C 
ENDROOT
BRANCH   1   2
ATOM      2  C   UNL     1      -2.593  -2.708   0.013  0.00  0.00    -0.026 A 
ATOM      3  C   UNL     1      -3.230  -2.948   1.216  0.00  0.00    +0.054 A 
ATOM      4  C   UNL     1      -4.531  -3.428   1.230  0.00  0.00    +0.163 A 
ATOM      5  C   UNL     1      -5.194  -3.665   0.031  0.00  0.00    +0.176 A 
ATOM      6  C   UNL     1      -4.548  -3.423  -1.173  0.00  0.00    +0.063 A 
ATOM      7  C   UNL     1      -3.252  -2.940  -1.179  0.00  0.00    +0.024 A 
ATOM      8 BR   UNL     1      -5.443  -3.748  -2.806  0.00  0.00    -0.046 Br
ATOM      9  O   UNL     1      -6.473  -4.129   0.022  0.00  0.00    -0.484 OA
ATOM     10  C   UNL     1      -6.955  -4.711   1.238  0.00  0.00    +0.270 C 
ATOM     11  C   UNL     1      -6.570  -3.785   2.400  0.00  0.00    +0.270 C 
ATOM     12  O   UNL     1      -5.144  -3.663   2.422  0.00  0.00    -0.485 OA
ENDBRANCH   1   2
BRANCH   1  13
ATOM     13  N   UNL     1      -1.200  -0.721   0.010  0.00  0.00    -0.340 N 
ATOM     14  H   UNL     1      -2.047  -0.247   0.021  0.00  0.00    +0.146 HD
BRANCH  13  20
ATOM     15  C   UNL     1      -0.017   1.384   0.010  0.00  0.00    +0.026 A 
ATOM     16  C   UNL     1       1.170   2.091   0.002  0.00  0.00    +0.047 A 
ATOM     17  C   UNL     1       2.380   1.414  -0.013  0.00  0.00    +0.117 A 
ATOM     18  C   UNL     1       2.400   0.027  -0.021  0.00  0.00    +0.047 A 
ATOM     19  C   UNL     1       1.214  -0.681  -0.013  0.00  0.00    +0.026 A 
ATOM     20  C   UNL     1       0.002  -0.004   0.002  0.00  0.00    +0.028 A 
BRANCH  17  21
ATOM     21  O   UNL     1       3.549   2.110  -0.021  0.00  0.00    -0.507 OA
ATOM     22  H   UNL     1       3.895   2.307   0.860  0.00  0.00    +0.292 HD
ENDBRANCH  17  21
ENDBRANCH  13  20
ENDBRANCH   1  13
TORSDOF 4
