REMARK  Name = ZINC39488189
REMARK  9 active torsions:
REMARK  status: ('A' for Active; 'I' for Inactive)
REMARK    1  A    between atoms: C_1  and  C_2
REMARK    2  A    between atoms: C_2  and  C_31
REMARK    3  A    between atoms: N_4  and  S_22
REMARK    4  A    between atoms: N_7  and  C_8
REMARK    5  A    between atoms: C_8  and  C_9
REMARK    6  A    between atoms: C_9  and  C_16
REMARK    7  A    between atoms: N_12  and  O_15
REMARK    8  A    between atoms: S_22  and  C_25
REMARK    9  A    between atoms: C_36  and  O_37
REMARK                            x       y       z     vdW  Elec       q    Type
REMARK                         _______ _______ _______ _____ _____    ______ ____
ROOT
ATOM      1  C   UNL     1      -0.399   1.052   0.076  0.00  0.00    +0.039 C 
ATOM      2  C   UNL     1      -0.257  -0.439   0.389  0.00  0.00    +0.082 C 
ATOM      3  C   UNL     1      -1.565  -0.993   0.987  0.00  0.00    +0.166 C 
ATOM      4  N   UNL     1      -1.171  -1.458   2.326  0.00  0.00    -0.153 N 
ATOM      5  C   UNL     1       0.136  -1.227   2.505  0.00  0.00    +0.325 C 
ATOM      6  O   UNL     1       0.726  -1.514   3.529  0.00  0.00    -0.251 OA
ATOM      7  N   UNL     1       0.735  -0.650   1.454  0.00  0.00    -0.273 N 
ENDROOT
BRANCH   2   8
ATOM      8  C   UNL     1       0.127  -1.204  -0.851  0.00  0.00    +0.019 A 
ATOM      9  C   UNL     1       1.298  -1.938  -0.875  0.00  0.00    +0.009 A 
ATOM     10  C   UNL     1       1.651  -2.640  -2.013  0.00  0.00    +0.001 A 
ATOM     11  C   UNL     1       0.834  -2.610  -3.128  0.00  0.00    +0.004 A 
ATOM     12  C   UNL     1      -0.337  -1.878  -3.108  0.00  0.00    +0.046 A 
ATOM     13  C   UNL     1      -0.697  -1.177  -1.966  0.00  0.00    +0.122 A 
BRANCH  13  14
ATOM     14  O   UNL     1      -1.851  -0.461  -1.942  0.00  0.00    -0.506 OA
ATOM     15  H   UNL     1      -1.753   0.455  -2.238  0.00  0.00    +0.292 HD
ENDBRANCH  13  14
ENDBRANCH   2   8
BRANCH   4  16
ATOM     16  S   UNL     1      -2.183  -2.155   3.436  0.00  0.00    +0.078 S 
ATOM     17  O   UNL     1      -1.597  -1.939   4.712  0.00  0.00    -0.150 OA
ATOM     18  O   UNL     1      -3.498  -1.719   3.117  0.00  0.00    -0.150 OA
BRANCH  16  19
ATOM     19  C   UNL     1      -2.147  -3.894   3.153  0.00  0.00    +0.109 A 
ATOM     20  C   UNL     1      -3.042  -4.470   2.271  0.00  0.00    +0.029 A 
ATOM     21  C   UNL     1      -3.014  -5.834   2.049  0.00  0.00    +0.002 A 
ATOM     22  C   UNL     1      -2.090  -6.622   2.708  0.00  0.00    +0.000 A 
ATOM     23  C   UNL     1      -1.194  -6.046   3.590  0.00  0.00    +0.002 A 
ATOM     24  C   UNL     1      -1.219  -4.682   3.808  0.00  0.00    +0.029 A 
ENDBRANCH  16  19
ENDBRANCH   4  16
BRANCH   7  25
ATOM     25  C   UNL     1       2.152  -0.288   1.379  0.00  0.00    +0.117 C 
BRANCH  25  26
ATOM     26  C   UNL     1       2.415   0.933   2.263  0.00  0.00    -0.008 C 
ATOM     27  C   UNL     1       3.915   1.237   2.284  0.00  0.00    +0.026 C 
ATOM     28  C   UNL     1       4.663   0.050   2.895  0.00  0.00    +0.115 C 
ATOM     29  N   UNL     1       4.175  -0.188   4.260  0.00  0.00    -0.191 NA
ATOM     30  C   UNL     1       2.746  -0.528   4.261  0.00  0.00    +0.115 C 
ATOM     31  C   UNL     1       1.941   0.642   3.690  0.00  0.00    +0.026 C 
BRANCH  26  32
ATOM     32  C   UNL     1       1.655   2.139   1.708  0.00  0.00    -0.003 C 
ATOM     33  C   UNL     1       2.285   2.574   0.384  0.00  0.00    +0.004 C 
ATOM     34  C   UNL     1       1.525   3.780  -0.171  0.00  0.00    +0.000 C 
ATOM     35  C   UNL     1       1.598   4.934   0.831  0.00  0.00    +0.000 C 
ATOM     36  C   UNL     1       0.968   4.500   2.156  0.00  0.00    +0.000 C 
ATOM     37  C   UNL     1       1.728   3.293   2.711  0.00  0.00    +0.004 C 
ENDBRANCH  26  32
BRANCH  29  38
ATOM     38  O   UNL     1       4.961  -1.226   4.925  0.00  0.00    -0.312 OA
ATOM     39  H   UNL     1       4.676  -1.418   5.829  0.00  0.00    +0.237 HD
ENDBRANCH  29  38
ENDBRANCH  25  26
ENDBRANCH   7  25
TORSDOF 8
