REMARK  Name = ZINC02753530
REMARK  10 active torsions:
REMARK  status: ('A' for Active; 'I' for Inactive)
REMARK    1  A    between atoms: C_1  and  C_2
REMARK    2  A    between atoms: C_2  and  C_3
REMARK    3  A    between atoms: C_3  and  C_4
REMARK    4  A    between atoms: C_11  and  N_16
REMARK    5  A    between atoms: C_12  and  C_13
REMARK    6  A    between atoms: C_17  and  C_19
REMARK    7  A    between atoms: C_21  and  C_29
REMARK    8  A    between atoms: C_33  and  O_35
REMARK    9  A    between atoms: O_35  and  C_36
REMARK   10  A    between atoms: C_36  and  C_37
REMARK                            x       y       z     vdW  Elec       q    Type
REMARK                         _______ _______ _______ _____ _____    ______ ____
ROOT
ATOM      1  N   UNL     1      -3.798   7.438  -0.026  0.00  0.00    -0.275 N 
ATOM      2  C   UNL     1      -2.634   8.110   0.070  0.00  0.00    +0.249 C 
ATOM      3  O   UNL     1      -2.638   9.322   0.169  0.00  0.00    -0.270 OA
ATOM      4  H   UNL     1      -3.794   6.341  -0.115  0.00  0.00    +0.156 HD
ENDROOT
BRANCH   2   5
ATOM      5  C   UNL     1      -1.352   7.374   0.055  0.00  0.00    +0.048 A 
ATOM      6  C   UNL     1      -1.315   5.987   0.061  0.00  0.00    +0.042 A 
ATOM      7  C   UNL     1      -0.076   5.330   0.045  0.00  0.00    +0.073 A 
ATOM      8  N   UNL     1       1.067   5.985   0.030  0.00  0.00    -0.247 NA
ATOM      9  C   UNL     1       1.125   7.317   0.018  0.00  0.00    +0.072 A 
ATOM     10  C   UNL     1      -0.070   8.079   0.032  0.00  0.00    +0.013 A 
ATOM     11  C   UNL     1      -0.004   9.477   0.024  0.00  0.00    +0.011 A 
ATOM     12  C   UNL     1       1.212  10.094   0.002  0.00  0.00    +0.001 A 
ATOM     13  C   UNL     1       2.389   9.350  -0.012  0.00  0.00    +0.002 A 
ATOM     14  C   UNL     1       2.361   7.989  -0.004  0.00  0.00    +0.028 A 
BRANCH   7  15
ATOM     15  C   UNL     1      -0.051   3.848   0.052  0.00  0.00    +0.004 A 
ATOM     16  C   UNL     1      -1.246   3.128   0.074  0.00  0.00    +0.010 A 
ATOM     17  C   UNL     1      -1.220   1.749   0.076  0.00  0.00    +0.004 A 
ATOM     18  C   UNL     1      -0.012   1.076   0.067  0.00  0.00    +0.045 A 
ATOM     19  C   UNL     1       1.182   1.784   0.044  0.00  0.00    +0.121 A 
ATOM     20  C   UNL     1       1.165   3.169   0.037  0.00  0.00    +0.055 A 
BRANCH  19  21
ATOM     21  O   UNL     1       2.366   1.118   0.030  0.00  0.00    -0.492 OA
BRANCH  21  22
ATOM     22  C   UNL     1       2.308  -0.309   0.038  0.00  0.00    +0.225 C 
ATOM     23  C   UNL     1       3.729  -0.878   0.020  0.00  0.00    +0.048 C 
ENDBRANCH  21  22
ENDBRANCH  19  21
ENDBRANCH   7  15
ENDBRANCH   2   5
BRANCH   1  30
ATOM     24  C   UNL     1      -9.362  10.551   0.416  0.00  0.00    -0.006 C 
ATOM     25  C   UNL     1      -9.681   9.390  -0.530  0.00  0.00    +0.008 C 
ATOM     26  C   UNL     1      -8.856   8.162  -0.144  0.00  0.00    +0.037 C 
ATOM     27  C   UNL     1      -7.388   8.564  -0.059  0.00  0.00    -0.023 A 
ATOM     28  C   UNL     1      -7.028   9.860   0.060  0.00  0.00    -0.004 A 
ATOM     29  S   UNL     1      -5.259   9.834   0.127  0.00  0.00    -0.077 S 
ATOM     30  C   UNL     1      -4.999   8.127  -0.011  0.00  0.00    +0.085 A 
ATOM     31  C   UNL     1      -6.287   7.617  -0.098  0.00  0.00    +0.068 A 
ATOM     32  C   UNL     1      -7.938  11.048   0.127  0.00  0.00    +0.046 C 
BRANCH  31  33
ATOM     33  C   UNL     1      -6.528   6.176  -0.225  0.00  0.00    +0.244 C 
ATOM     34  O   UNL     1      -6.665   5.492   0.772  0.00  0.00    -0.270 OA
ATOM     35  N   UNL     1      -6.598   5.609  -1.446  0.00  0.00    -0.325 N 
ATOM     36  H   UNL     1      -6.778   4.529  -1.541  0.00  0.00    +0.145 HD
ATOM     37  H   UNL     1      -6.474   6.228  -2.347  0.00  0.00    +0.145 HD
ENDBRANCH  31  33
BRANCH  24  38
ATOM     38  C   UNL     1     -10.359  11.689   0.187  0.00  0.00    +0.003 C 
BRANCH  38  40
ATOM     39  C   UNL     1     -11.113  13.932   0.987  0.00  0.00    +0.004 C 
ATOM     40  C   UNL     1     -10.116  12.794   1.216  0.00  0.00    -0.003 C 
ENDBRANCH  38  40
ENDBRANCH  24  38
ENDBRANCH   1  30
TORSDOF 8
