REMARK  Name = ZINC06443659
REMARK  9 active torsions:
REMARK  status: ('A' for Active; 'I' for Inactive)
REMARK    1  A    between atoms: C_1  and  C_2
REMARK    2  A    between atoms: C_12  and  C_14
REMARK    3  A    between atoms: C_14  and  C_16
REMARK    4  A    between atoms: C_14  and  N_70
REMARK    5  A    between atoms: N_20  and  C_21
REMARK    6  A    between atoms: C_27  and  C_28
REMARK    7  A    between atoms: C_27  and  N_70
REMARK    8  A    between atoms: C_34  and  C_35
REMARK    9  A    between atoms: C_34  and  N_70
REMARK                            x       y       z     vdW  Elec       q    Type
REMARK                         _______ _______ _______ _____ _____    ______ ____
ROOT
ATOM      1  C   UNL     1       0.538  -2.944   4.642  0.00  0.00    +0.040 C 
ENDROOT
BRANCH   1  13
ATOM      2  C   UNL     1       2.702   0.247  -0.682  0.00  0.00    +0.046 C 
ATOM      3  C   UNL     1       2.132  -1.137  -0.515  0.00  0.00    -0.026 A 
ATOM      4  C   UNL     1       1.990  -1.964  -1.609  0.00  0.00    +0.005 A 
ATOM      5  C   UNL     1       1.471  -3.243  -1.468  0.00  0.00    +0.001 A 
ATOM      6  C   UNL     1       1.080  -3.704  -0.242  0.00  0.00    +0.010 A 
ATOM      7  C   UNL     1       1.209  -2.881   0.881  0.00  0.00    -0.001 A 
ATOM      8  C   UNL     1       1.741  -1.585   0.743  0.00  0.00    +0.052 A 
ATOM      9  N   UNL     1       1.867  -0.777   1.853  0.00  0.00    -0.322 N 
ATOM     10  H   UNL     1       2.233   0.115   1.756  0.00  0.00    +0.169 HD
ATOM     11  C   UNL     1       1.488  -1.210   3.069  0.00  0.00    +0.251 A 
ATOM     12  O   UNL     1       1.613  -0.469   4.029  0.00  0.00    -0.268 OA
ATOM     13  C   UNL     1       0.949  -2.500   3.261  0.00  0.00    +0.011 A 
ATOM     14  C   UNL     1       0.800  -3.342   2.209  0.00  0.00    +0.017 A 
ENDBRANCH   1  13
BRANCH   1  15
ATOM     15  C   UNL     1       1.755  -3.025   5.527  0.00  0.00    +0.143 A 
ATOM     16  N   UNL     1       2.251  -2.062   6.265  0.00  0.00    -0.115 NA
ATOM     17  N   UNL     1       3.289  -2.522   6.874  0.00  0.00    -0.023 NA
ATOM     18  N   UNL     1       3.472  -3.751   6.538  0.00  0.00    -0.044 NA
ATOM     19  N   UNL     1       2.547  -4.098   5.708  0.00  0.00    -0.227 N 
BRANCH  19  20
ATOM     20  C   UNL     1       2.388  -5.412   5.082  0.00  0.00    +0.111 C 
ATOM     21  C   UNL     1       2.348  -6.492   6.166  0.00  0.00    +0.027 C 
ATOM     22  C   UNL     1       2.182  -7.865   5.511  0.00  0.00    +0.002 C 
ATOM     23  C   UNL     1       3.361  -8.129   4.573  0.00  0.00    +0.000 C 
ATOM     24  C   UNL     1       3.401  -7.049   3.489  0.00  0.00    +0.002 C 
ATOM     25  C   UNL     1       3.567  -5.676   4.143  0.00  0.00    +0.027 C 
ENDBRANCH  19  20
ENDBRANCH   1  15
BRANCH   1  26
ATOM     26  N   UNL     1      -0.400  -1.950   5.206  0.00  0.00    +0.397 N 
ATOM     27  H   UNL     1       0.074  -1.042   5.267  0.00  0.00    -0.079 HD
BRANCH  26  28
ATOM     28  C   UNL     1      -0.821  -2.365   6.560  0.00  0.00    -0.041 C 
BRANCH  28  29
ATOM     29  C   UNL     1      -1.448  -3.735   6.523  0.00  0.00    -0.064 A 
ATOM     30  C   UNL     1      -2.801  -3.869   6.273  0.00  0.00    +0.002 A 
ATOM     31  C   UNL     1      -3.376  -5.125   6.233  0.00  0.00    +0.000 A 
ATOM     32  C   UNL     1      -2.599  -6.248   6.454  0.00  0.00    +0.000 A 
ATOM     33  C   UNL     1      -1.247  -6.114   6.709  0.00  0.00    +0.000 A 
ATOM     34  C   UNL     1      -0.671  -4.857   6.743  0.00  0.00    +0.002 A 
ENDBRANCH  28  29
ENDBRANCH  26  28
BRANCH  26  35
ATOM     35  C   UNL     1      -1.582  -1.817   4.328  0.00  0.00    -0.001 C 
BRANCH  35  36
ATOM     36  C   UNL     1      -2.353  -0.589   4.738  0.00  0.00    +0.089 A 
ATOM     37  C   UNL     1      -2.208   0.642   4.216  0.00  0.00    +0.042 A 
ATOM     38  C   UNL     1      -3.123   1.484   4.890  0.00  0.00    +0.041 A 
ATOM     39  C   UNL     1      -3.773   0.716   5.783  0.00  0.00    +0.195 A 
ATOM     40  O   UNL     1      -3.307  -0.539   5.683  0.00  0.00    -0.470 OA
ENDBRANCH  35  36
ENDBRANCH  26  35
ENDBRANCH   1  26
TORSDOF 8
