REMARK  Name = ZINC57682026
REMARK  5 active torsions:
REMARK  status: ('A' for Active; 'I' for Inactive)
REMARK    1  A    between atoms: C_1  and  N_2
REMARK    2  A    between atoms: N_2  and  C_3
REMARK    3  A    between atoms: C_6  and  N_9
REMARK    4  A    between atoms: C_12  and  C_14
REMARK    5  A    between atoms: C_14  and  C_15
REMARK                            x       y       z     vdW  Elec       q    Type
REMARK                         _______ _______ _______ _____ _____    ______ ____
ROOT
ATOM      1  C   UNL     1      -0.073   1.459  -0.019  0.00  0.00    +0.138 C 
ATOM      2  N   UNL     1       0.002  -0.004   0.002  0.00  0.00    -0.274 N 
ATOM      3  C   UNL     1       0.043  -0.693  -1.155  0.00  0.00    +0.224 C 
ATOM      4  O   UNL     1       0.009  -1.905  -1.141  0.00  0.00    -0.275 OA
ENDROOT
BRANCH   2   5
ATOM      5  C   UNL     1       0.031  -0.686   1.224  0.00  0.00    +0.036 A 
ATOM      6  C   UNL     1       1.127  -0.557   2.067  0.00  0.00    +0.026 A 
ATOM      7  C   UNL     1       1.153  -1.231   3.272  0.00  0.00    +0.034 A 
ATOM      8  C   UNL     1       0.089  -2.034   3.639  0.00  0.00    +0.126 A 
ATOM      9  C   UNL     1      -1.004  -2.165   2.802  0.00  0.00    +0.034 A 
ATOM     10  C   UNL     1      -1.038  -1.489   1.598  0.00  0.00    +0.026 A 
BRANCH   8  11
ATOM     11  N   UNL     1       0.120  -2.755   4.931  0.00  0.00    +0.056 N 
ATOM     12  O   UNL     1       1.075  -2.642   5.664  0.00  0.00    -0.126 OA
ATOM     13  O   UNL     1      -0.809  -3.458   5.254  0.00  0.00    -0.126 OA
ENDBRANCH   8  11
ENDBRANCH   2   5
BRANCH   3  14
ATOM     14  C   UNL     1       0.132   0.043  -2.468  0.00  0.00    +0.131 C 
BRANCH  14  15
ATOM     15  C   UNL     1       0.164  -0.952  -3.600  0.00  0.00    -0.039 A 
ATOM     16  C   UNL     1       1.373  -1.445  -4.053  0.00  0.00    +0.005 A 
ATOM     17  C   UNL     1       1.403  -2.357  -5.091  0.00  0.00    +0.015 A 
ATOM     18  C   UNL     1       0.222  -2.776  -5.676  0.00  0.00    +0.018 A 
ATOM     19  C   UNL     1      -0.988  -2.283  -5.223  0.00  0.00    +0.015 A 
ATOM     20  C   UNL     1      -1.017  -1.375  -4.181  0.00  0.00    +0.005 A 
ATOM     21 BR   UNL     1       0.262  -4.024  -7.097  0.00  0.00    -0.050 Br
ENDBRANCH  14  15
ENDBRANCH   3  14
TORSDOF 4
