REMARK  Name = ZINC05741282
REMARK  4 active torsions:
REMARK  status: ('A' for Active; 'I' for Inactive)
REMARK    1  A    between atoms: C_10  and  N_11
REMARK    2  A    between atoms: N_11  and  C_12
REMARK    3  A    between atoms: C_13  and  C_14
REMARK    4  A    between atoms: C_13  and  C_16
REMARK                            x       y       z     vdW  Elec       q    Type
REMARK                         _______ _______ _______ _____ _____    ______ ____
ROOT
ATOM      1  C   UNL     1       6.057  -0.568  -0.093  0.00  0.00    +0.096 C 
ATOM      2  C   UNL     1       7.229   0.128  -0.170  0.00  0.00    +0.127 C 
ENDROOT
BRANCH   2   3
ATOM      3  C   UNL     1       7.213   1.600  -0.164  0.00  0.00    +0.240 A 
ATOM      4  N   UNL     1       6.148   2.340   0.036  0.00  0.00    -0.208 NA
ATOM      5  C   UNL     1       6.509   3.649  -0.028  0.00  0.00    +0.111 A 
ATOM      6  C   UNL     1       5.806   4.849   0.104  0.00  0.00    +0.051 A 
ATOM      7  C   UNL     1       6.474   6.048  -0.018  0.00  0.00    +0.043 A 
ATOM      8  C   UNL     1       7.838   6.069  -0.272  0.00  0.00    +0.024 A 
ATOM      9  C   UNL     1       8.544   4.891  -0.406  0.00  0.00    +0.050 A 
ATOM     10  C   UNL     1       7.888   3.676  -0.285  0.00  0.00    +0.156 A 
ATOM     11  O   UNL     1       8.290   2.386  -0.357  0.00  0.00    -0.435 OA
ATOM     12 CL   UNL     1       5.604   7.541   0.146  0.00  0.00    -0.083 Cl
ENDBRANCH   2   3
BRANCH   1  13
ATOM     13  N   UNL     1       4.867   0.094  -0.147  0.00  0.00    -0.319 N 
ATOM     14  H   UNL     1       4.851   1.063  -0.174  0.00  0.00    +0.152 HD
BRANCH  13  24
ATOM     15  C   UNL     1      -0.019   1.344  -0.323  0.00  0.00    +0.001 A 
ATOM     16  C   UNL     1       1.164   2.079  -0.308  0.00  0.00    +0.001 A 
ATOM     17  C   UNL     1       2.374   1.458  -0.256  0.00  0.00    +0.010 A 
ATOM     18  C   UNL     1       2.435   0.056  -0.216  0.00  0.00    +0.003 A 
ATOM     19  C   UNL     1       1.232  -0.693  -0.231  0.00  0.00    -0.016 A 
ATOM     20  C   UNL     1       0.001  -0.016  -0.285  0.00  0.00    +0.008 A 
ATOM     21  C   UNL     1       1.291  -2.096  -0.190  0.00  0.00    +0.008 A 
ATOM     22  C   UNL     1       2.497  -2.725  -0.136  0.00  0.00    +0.002 A 
ATOM     23  C   UNL     1       3.685  -2.001  -0.121  0.00  0.00    +0.024 A 
ATOM     24  C   UNL     1       3.671  -0.623  -0.161  0.00  0.00    +0.039 A 
ENDBRANCH  13  24
ENDBRANCH   1  13
BRANCH   2  25
ATOM     25  C   UNL     1       8.474  -0.574  -0.257  0.00  0.00    +0.106 C 
ATOM     26  N   UNL     1       9.462  -1.131  -0.326  0.00  0.00    -0.191 NA
ENDBRANCH   2  25
TORSDOF 4
