REMARK  Name = ZINC61322183
REMARK  5 active torsions:
REMARK  status: ('A' for Active; 'I' for Inactive)
REMARK    1  A    between atoms: C_1  and  C_2
REMARK    2  A    between atoms: C_5  and  C_8
REMARK    3  A    between atoms: C_8  and  N_9
REMARK    4  A    between atoms: C_17  and  C_18
REMARK    5  A    between atoms: C_18  and  C_20
REMARK                            x       y       z     vdW  Elec       q    Type
REMARK                         _______ _______ _______ _____ _____    ______ ____
ROOT
ATOM      1  N   UNL     1      -1.069  -4.684  -0.864  0.00  0.00    -0.320 N 
ATOM      2  C   UNL     1      -2.335  -4.971  -0.392  0.00  0.00    +0.069 A 
ATOM      3  C   UNL     1      -2.938  -4.902   0.857  0.00  0.00    +0.029 A 
ATOM      4  C   UNL     1      -4.257  -5.271   1.003  0.00  0.00    +0.017 A 
ATOM      5  C   UNL     1      -4.990  -5.712  -0.092  0.00  0.00    +0.020 A 
ATOM      6  C   UNL     1      -4.409  -5.786  -1.338  0.00  0.00    +0.045 A 
ATOM      7  C   UNL     1      -3.071  -5.416  -1.502  0.00  0.00    +0.090 A 
ATOM      8  N   UNL     1      -2.236  -5.378  -2.572  0.00  0.00    -0.231 NA
ATOM      9  C   UNL     1      -1.067  -4.945  -2.199  0.00  0.00    +0.129 A 
ATOM     10 BR   UNL     1      -6.799  -6.214   0.131  0.00  0.00    -0.050 Br
ENDROOT
BRANCH   9  11
ATOM     11  C   UNL     1       0.118  -4.763  -3.112  0.00  0.00    +0.143 C 
ATOM     12  C   UNL     1      -0.084  -3.511  -3.967  0.00  0.00    +0.033 C 
ATOM     13 CL   UNL     1       0.278  -6.204  -4.184  0.00  0.00    -0.114 Cl
ENDBRANCH   9  11
BRANCH   1  14
ATOM     14  C   UNL     1       0.059  -4.184  -0.075  0.00  0.00    +0.180 C 
BRANCH  14  19
ATOM     15  C   UNL     1      -0.018   1.503   0.010  0.00  0.00    +0.067 C 
ATOM     16  C   UNL     1       0.002  -0.004   0.002  0.00  0.00    +0.056 A 
ATOM     17  C   UNL     1       0.006  -0.689  -1.200  0.00  0.00    +0.134 A 
ATOM     18  N   UNL     1       0.024  -2.010  -1.207  0.00  0.00    -0.255 NA
ATOM     19  C   UNL     1       0.039  -2.677  -0.067  0.00  0.00    +0.079 A 
ATOM     20  C   UNL     1       0.035  -1.992   1.135  0.00  0.00    +0.136 A 
ATOM     21  N   UNL     1       0.022  -0.671   1.143  0.00  0.00    -0.257 NA
ENDBRANCH  14  19
ENDBRANCH   1  14
TORSDOF 3
