REMARK  Name = ZINC20881587
REMARK  5 active torsions:
REMARK  status: ('A' for Active; 'I' for Inactive)
REMARK    1  A    between atoms: C_1  and  O_2
REMARK    2  A    between atoms: O_2  and  C_3
REMARK    3  A    between atoms: C_6  and  C_9
REMARK    4  A    between atoms: C_14  and  C_24
REMARK    5  A    between atoms: C_29  and  O_30
REMARK                            x       y       z     vdW  Elec       q    Type
REMARK                         _______ _______ _______ _____ _____    ______ ____
ROOT
ATOM      1  C   UNL     1      -2.277   1.450   0.840  0.00  0.00    +0.032 C 
ATOM      2  C   UNL     1      -1.205   2.201   0.052  0.00  0.00    +0.059 C 
ATOM      3  C   UNL     1       0.081   1.392   0.027  0.00  0.00    +0.017 C 
ATOM      4  C   UNL     1       0.041   0.048   0.025  0.00  0.00    +0.037 C 
ATOM      5  C   UNL     1       1.236  -0.873  -0.007  0.00  0.00    +0.139 C 
ATOM      6  N   UNL     1       2.493  -0.218  -0.301  0.00  0.00    -0.331 N 
ATOM      7  C   UNL     1       3.034   0.723   0.574  0.00  0.00    +0.049 A 
ATOM      8  C   UNL     1       4.231   0.495   1.234  0.00  0.00    +0.025 A 
ATOM      9  C   UNL     1       4.704   1.438   2.129  0.00  0.00    +0.002 A 
ATOM     10  C   UNL     1       3.989   2.598   2.368  0.00  0.00    +0.002 A 
ATOM     11  C   UNL     1       2.802   2.837   1.696  0.00  0.00    +0.025 A 
ATOM     12  C   UNL     1       2.339   1.904   0.784  0.00  0.00    +0.052 A 
ATOM     13  N   UNL     1       1.219   2.131  -0.006  0.00  0.00    -0.316 N 
ATOM     14  C   UNL     1      -1.202  -0.627   0.068  0.00  0.00    +0.163 C 
ATOM     15  O   UNL     1      -1.209  -1.842   0.041  0.00  0.00    -0.292 OA
ATOM     16  C   UNL     1      -2.509   0.103   0.145  0.00  0.00    +0.088 C 
ATOM     17  H   UNL     1       3.036  -0.460  -1.226  0.00  0.00    +0.147 HD
ATOM     18  H   UNL     1       1.301   2.983  -0.698  0.00  0.00    +0.152 HD
ENDROOT
BRANCH   1  22
ATOM     19  C   UNL     1      -5.906   3.707   0.870  0.00  0.00    +0.120 A 
ATOM     20  C   UNL     1      -5.293   3.360   2.065  0.00  0.00    +0.046 A 
ATOM     21  C   UNL     1      -4.120   2.630   2.053  0.00  0.00    +0.007 A 
ATOM     22  C   UNL     1      -3.557   2.246   0.850  0.00  0.00    -0.043 A 
ATOM     23  C   UNL     1      -4.162   2.595  -0.343  0.00  0.00    +0.007 A 
ATOM     24  C   UNL     1      -5.338   3.320  -0.336  0.00  0.00    +0.046 A 
BRANCH  19  26
ATOM     25  C   UNL     1      -7.634   4.746  -0.389  0.00  0.00    +0.277 C 
ATOM     26  O   UNL     1      -7.060   4.425   0.879  0.00  0.00    -0.495 OA
ENDBRANCH  19  26
ENDBRANCH   1  22
BRANCH   5  27
ATOM     27  C   UNL     1       1.353  -1.550   1.335  0.00  0.00    +0.019 A 
ATOM     28  C   UNL     1       0.689  -1.033   2.430  0.00  0.00    +0.009 A 
ATOM     29  C   UNL     1       0.795  -1.653   3.661  0.00  0.00    +0.001 A 
ATOM     30  C   UNL     1       1.566  -2.793   3.799  0.00  0.00    +0.004 A 
ATOM     31  C   UNL     1       2.232  -3.314   2.706  0.00  0.00    +0.046 A 
ATOM     32  C   UNL     1       2.123  -2.696   1.469  0.00  0.00    +0.122 A 
BRANCH  32  33
ATOM     33  O   UNL     1       2.773  -3.210   0.392  0.00  0.00    -0.506 OA
ATOM     34  H   UNL     1       3.383  -4.118   0.499  0.00  0.00    +0.292 HD
ENDBRANCH  32  33
ENDBRANCH   5  27
TORSDOF 4
