REMARK  Name = ZINC09209669
REMARK  8 active torsions:
REMARK  status: ('A' for Active; 'I' for Inactive)
REMARK    1  A    between atoms: C_1  and  O_2
REMARK    2  A    between atoms: O_2  and  C_3
REMARK    3  A    between atoms: C_6  and  C_11
REMARK    4  A    between atoms: C_8  and  O_9
REMARK    5  A    between atoms: O_9  and  C_10
REMARK    6  A    between atoms: C_16  and  O_40
REMARK    7  A    between atoms: C_24  and  C_29
REMARK    8  A    between atoms: C_38  and  O_39
REMARK                            x       y       z     vdW  Elec       q    Type
REMARK                         _______ _______ _______ _____ _____    ______ ____
ROOT
ATOM      1  C   UNL     1      -4.987  -2.627   0.035  0.00  0.00    +0.091 C 
ATOM      2  C   UNL     1      -5.746  -2.236   1.276  0.00  0.00    +0.007 A 
ATOM      3  C   UNL     1      -5.411  -2.810   2.489  0.00  0.00    +0.012 A 
ATOM      4  C   UNL     1      -6.098  -2.463   3.635  0.00  0.00    +0.046 A 
ATOM      5  C   UNL     1      -7.129  -1.535   3.571  0.00  0.00    +0.120 A 
ATOM      6  C   UNL     1      -7.466  -0.959   2.358  0.00  0.00    +0.092 A 
ATOM      7  C   UNL     1      -6.774  -1.309   1.205  0.00  0.00    +0.138 A 
ATOM      8  O   UNL     1      -7.117  -0.738   0.026  0.00  0.00    -0.437 OA
ATOM      9  C   UNL     1      -6.777  -1.326  -1.144  0.00  0.00    +0.230 A 
ATOM     10  C   UNL     1      -5.760  -2.236  -1.187  0.00  0.00    +0.070 A 
ATOM     11  C   UNL     1      -5.469  -2.794  -2.443  0.00  0.00    +0.167 A 
ATOM     12  N   UNL     1      -4.581  -3.671  -2.845  0.00  0.00    -0.206 NA
ATOM     13  C   UNL     1      -4.715  -3.870  -4.163  0.00  0.00    +0.186 A 
ATOM     14  N   UNL     1      -5.701  -3.116  -4.626  0.00  0.00    -0.143 NA
ATOM     15  N   UNL     1      -6.210  -2.408  -3.547  0.00  0.00    -0.201 N 
ATOM     16  C   UNL     1      -7.210  -1.500  -3.431  0.00  0.00    +0.229 A 
ATOM     17  N   UNL     1      -7.457  -1.000  -2.255  0.00  0.00    -0.201 NA
ENDROOT
BRANCH  13  18
ATOM     18  C   UNL     1      -3.888  -4.793  -4.977  0.00  0.00    +0.063 A 
ATOM     19  C   UNL     1      -2.873  -5.544  -4.364  0.00  0.00    +0.016 A 
ATOM     20  C   UNL     1      -2.101  -6.396  -5.087  0.00  0.00    +0.009 A 
ATOM     21  C   UNL     1      -2.311  -6.537  -6.471  0.00  0.00    -0.014 A 
ATOM     22  C   UNL     1      -1.524  -7.413  -7.237  0.00  0.00    +0.008 A 
ATOM     23  C   UNL     1      -1.752  -7.529  -8.575  0.00  0.00    +0.001 A 
ATOM     24  C   UNL     1      -2.755  -6.790  -9.198  0.00  0.00    +0.001 A 
ATOM     25  C   UNL     1      -3.537  -5.932  -8.488  0.00  0.00    +0.012 A 
ATOM     26  C   UNL     1      -3.332  -5.787  -7.106  0.00  0.00    +0.024 A 
ATOM     27  C   UNL     1      -4.127  -4.912  -6.339  0.00  0.00    +0.135 A 
BRANCH  27  28
ATOM     28  O   UNL     1      -5.113  -4.188  -6.928  0.00  0.00    -0.505 OA
ATOM     29  H   UNL     1      -4.825  -3.325  -7.256  0.00  0.00    +0.292 HD
ENDBRANCH  27  28
ENDBRANCH  13  18
BRANCH   1  33
ATOM     30  C   UNL     1      -1.201  -0.638   0.010  0.00  0.00    +0.162 A 
ATOM     31  C   UNL     1      -2.374   0.099   0.019  0.00  0.00    +0.050 A 
ATOM     32  C   UNL     1      -3.596  -0.546   0.027  0.00  0.00    +0.008 A 
ATOM     33  C   UNL     1      -3.652  -1.928   0.026  0.00  0.00    -0.032 A 
ATOM     34  C   UNL     1      -2.485  -2.669   0.017  0.00  0.00    +0.054 A 
ATOM     35  C   UNL     1      -1.257  -2.028   0.003  0.00  0.00    +0.162 A 
BRANCH  30  37
ATOM     36  C   UNL     1      -0.017   1.425   0.010  0.00  0.00    +0.277 C 
ATOM     37  O   UNL     1       0.002  -0.004   0.002  0.00  0.00    -0.491 OA
ENDBRANCH  30  37
BRANCH  35  38
ATOM     38  O   UNL     1      -0.108  -2.756  -0.012  0.00  0.00    -0.491 OA
ATOM     39  C   UNL     1      -0.242  -4.179  -0.018  0.00  0.00    +0.277 C 
ENDBRANCH  35  38
ENDBRANCH   1  33
BRANCH   5  40
ATOM     40  O   UNL     1      -7.806  -1.193   4.699  0.00  0.00    -0.507 OA
ATOM     41  H   UNL     1      -7.425  -0.442   5.174  0.00  0.00    +0.292 HD
ENDBRANCH   5  40
TORSDOF 6
