REMARK  Name = ZINC09068383
REMARK  4 active torsions:
REMARK  status: ('A' for Active; 'I' for Inactive)
REMARK    1  A    between atoms: C_4  and  N_7
REMARK    2  A    between atoms: C_9  and  C_14
REMARK    3  A    between atoms: C_14  and  N_15
REMARK    4  A    between atoms: C_16  and  C_18
REMARK                            x       y       z     vdW  Elec       q    Type
REMARK                         _______ _______ _______ _____ _____    ______ ____
ROOT
ATOM      1  N   UNL     1      -0.018   1.461   0.010  0.00  0.00    -0.311 N 
ATOM      2  C   UNL     1      -1.194   2.119   0.019  0.00  0.00    +0.225 C 
ATOM      3  O   UNL     1      -2.236   1.498   0.021  0.00  0.00    -0.275 OA
ATOM      4  H   UNL     1       0.816   1.957   0.005  0.00  0.00    +0.149 HD
ENDROOT
BRANCH   2   5
ATOM      5  C   UNL     1      -1.214   3.626   0.028  0.00  0.00    +0.142 C 
ATOM      6  C   UNL     1      -0.483   4.125   1.244  0.00  0.00    +0.011 A 
ATOM      7  C   UNL     1       0.901   4.125   1.251  0.00  0.00    +0.008 A 
ATOM      8  C   UNL     1       1.591   4.579   2.358  0.00  0.00    +0.001 A 
ATOM      9  C   UNL     1       0.900   5.036   3.465  0.00  0.00    +0.004 A 
ATOM     10  C   UNL     1      -0.481   5.038   3.464  0.00  0.00    +0.046 A 
ATOM     11  C   UNL     1      -1.178   4.583   2.351  0.00  0.00    +0.133 A 
ATOM     12  O   UNL     1      -2.533   4.596   2.368  0.00  0.00    -0.455 OA
ATOM     13  C   UNL     1      -3.227   4.563   1.205  0.00  0.00    +0.133 A 
ATOM     14  C   UNL     1      -2.641   4.103   0.037  0.00  0.00    +0.011 A 
ATOM     15  C   UNL     1      -3.373   4.078  -1.137  0.00  0.00    +0.008 A 
ATOM     16  C   UNL     1      -4.684   4.514  -1.150  0.00  0.00    +0.001 A 
ATOM     17  C   UNL     1      -5.271   4.974   0.014  0.00  0.00    +0.004 A 
ATOM     18  C   UNL     1      -4.547   5.000   1.189  0.00  0.00    +0.046 A 
ENDBRANCH   2   5
BRANCH   1  19
ATOM     19  C   UNL     1       0.002  -0.004   0.002  0.00  0.00    +0.150 C 
BRANCH  19  22
ATOM     20  N   UNL     1       2.184  -2.356  -1.285  0.00  0.00    -0.234 N 
ATOM     21  C   UNL     1       1.500  -2.034  -0.023  0.00  0.00    +0.163 C 
ATOM     22  C   UNL     1       1.451  -0.494  -0.015  0.00  0.00    +0.213 C 
ATOM     23  O   UNL     1       2.105  -0.114  -1.260  0.00  0.00    -0.444 OA
ATOM     24  C   UNL     1       2.488  -1.214  -1.917  0.00  0.00    +0.408 C 
ATOM     25  O   UNL     1       3.059  -1.181  -2.989  0.00  0.00    -0.226 OA
BRANCH  20  29
ATOM     26  C   UNL     1       3.035  -6.192  -2.671  0.00  0.00    +0.000 A 
ATOM     27  C   UNL     1       3.404  -5.090  -3.421  0.00  0.00    +0.002 A 
ATOM     28  C   UNL     1       3.123  -3.817  -2.964  0.00  0.00    +0.023 A 
ATOM     29  C   UNL     1       2.470  -3.645  -1.751  0.00  0.00    +0.040 A 
ATOM     30  C   UNL     1       2.106  -4.753  -0.998  0.00  0.00    +0.023 A 
ATOM     31  C   UNL     1       2.385  -6.023  -1.462  0.00  0.00    +0.002 A 
ENDBRANCH  20  29
ENDBRANCH  19  22
ENDBRANCH   1  19
TORSDOF 4
