REMARK  Name = ZINC09870209
REMARK  7 active torsions:
REMARK  status: ('A' for Active; 'I' for Inactive)
REMARK    1  A    between atoms: C_4  and  C_7
REMARK    2  A    between atoms: C_7  and  C_30
REMARK    3  A    between atoms: N_10  and  N_14
REMARK    4  A    between atoms: C_15  and  C_17
REMARK    5  A    between atoms: C_17  and  C_18
REMARK    6  A    between atoms: C_18  and  C_19
REMARK    7  A    between atoms: C_19  and  C_20
REMARK                            x       y       z     vdW  Elec       q    Type
REMARK                         _______ _______ _______ _____ _____    ______ ____
ROOT
ATOM      1  C   UNL     1       4.368   0.284   0.574  0.00  0.00    +0.165 C 
ATOM      2  C   UNL     1       3.373   0.341   1.717  0.00  0.00    +0.272 C 
ATOM      3  O   UNL     1       3.545  -0.037   2.856  0.00  0.00    -0.270 OA
ATOM      4  N   UNL     1       2.259   0.897   1.202  0.00  0.00    -0.137 N 
ATOM      5  C   UNL     1       2.412   1.203  -0.091  0.00  0.00    +0.327 C 
ATOM      6  O   UNL     1       1.546   1.719  -0.770  0.00  0.00    -0.251 OA
ATOM      7  N   UNL     1       3.632   0.877  -0.555  0.00  0.00    -0.276 N 
ATOM      8  H   UNL     1       3.962   1.008  -1.458  0.00  0.00    +0.152 HD
ENDROOT
BRANCH   1  12
ATOM      9  C   UNL     1       5.449  -3.757  -0.292  0.00  0.00    +0.000 A 
ATOM     10  C   UNL     1       5.478  -3.298   1.011  0.00  0.00    +0.000 A 
ATOM     11  C   UNL     1       5.128  -1.990   1.292  0.00  0.00    +0.006 A 
ATOM     12  C   UNL     1       4.749  -1.141   0.269  0.00  0.00    -0.011 A 
ATOM     13  C   UNL     1       4.715  -1.602  -1.035  0.00  0.00    +0.006 A 
ATOM     14  C   UNL     1       5.070  -2.908  -1.315  0.00  0.00    +0.000 A 
ENDBRANCH   1  12
BRANCH   1  15
ATOM     15  C   UNL     1       5.592   1.101   0.897  0.00  0.00    -0.011 A 
ATOM     16  C   UNL     1       6.280   0.880   2.075  0.00  0.00    +0.006 A 
ATOM     17  C   UNL     1       7.406   1.627   2.369  0.00  0.00    +0.000 A 
ATOM     18  C   UNL     1       7.838   2.601   1.489  0.00  0.00    +0.000 A 
ATOM     19  C   UNL     1       7.147   2.826   0.313  0.00  0.00    +0.000 A 
ATOM     20  C   UNL     1       6.024   2.076   0.017  0.00  0.00    +0.006 A 
ENDBRANCH   1  15
BRANCH   4  21
ATOM     21  N   UNL     1       1.087   1.132   1.933  0.00  0.00    -0.224 N 
ATOM     22  C   UNL     1       0.010   0.341   1.752  0.00  0.00    +0.230 C 
ATOM     23  O   UNL     1       0.056  -0.573   0.957  0.00  0.00    -0.274 OA
ATOM     24  H   UNL     1       1.050   1.863   2.570  0.00  0.00    +0.174 HD
BRANCH  22  25
ATOM     25  C   UNL     1      -1.252   0.597   2.534  0.00  0.00    +0.097 C 
BRANCH  25  26
ATOM     26  C   UNL     1      -2.314  -0.430   2.138  0.00  0.00    +0.014 C 
BRANCH  26  27
ATOM     27  C   UNL     1      -3.596  -0.170   2.932  0.00  0.00    +0.038 C 
BRANCH  27  28
ATOM     28  C   UNL     1      -4.643  -1.182   2.541  0.00  0.00    -0.022 A 
ATOM     29  C   UNL     1      -5.608  -1.019   1.623  0.00  0.00    +0.087 A 
ATOM     30  N   UNL     1      -6.369  -2.154   1.539  0.00  0.00    -0.360 N 
ATOM     31  H   UNL     1      -7.125  -2.275   0.944  0.00  0.00    +0.165 HD
ATOM     32  C   UNL     1      -5.904  -3.095   2.430  0.00  0.00    +0.047 A 
ATOM     33  C   UNL     1      -4.803  -2.528   3.097  0.00  0.00    +0.003 A 
ATOM     34  C   UNL     1      -4.123  -3.264   4.069  0.00  0.00    +0.010 A 
ATOM     35  C   UNL     1      -4.531  -4.534   4.368  0.00  0.00    +0.001 A 
ATOM     36  C   UNL     1      -5.617  -5.097   3.713  0.00  0.00    +0.002 A 
ATOM     37  C   UNL     1      -6.303  -4.389   2.750  0.00  0.00    +0.026 A 
ENDBRANCH  27  28
ENDBRANCH  26  27
ENDBRANCH  25  26
ENDBRANCH  22  25
ENDBRANCH   4  21
TORSDOF 7
