REMARK  Name = ZINC40701942
REMARK  8 active torsions:
REMARK  status: ('A' for Active; 'I' for Inactive)
REMARK    1  A    between atoms: C_1  and  C_2
REMARK    2  A    between atoms: C_2  and  N_3
REMARK    3  A    between atoms: N_3  and  C_4
REMARK    4  A    between atoms: C_15  and  N_39
REMARK    5  A    between atoms: C_16  and  N_20
REMARK    6  A    between atoms: N_23  and  C_26
REMARK    7  A    between atoms: C_26  and  C_27
REMARK    8  A    between atoms: C_26  and  C_33
REMARK                            x       y       z     vdW  Elec       q    Type
REMARK                         _______ _______ _______ _____ _____    ______ ____
ROOT
ATOM      1  N   UNL     1       0.352  -3.389  -2.868  0.00  0.00    -0.285 N 
ATOM      2  C   UNL     1      -0.296  -2.199  -3.183  0.00  0.00    +0.129 A 
ATOM      3  C   UNL     1      -1.689  -2.118  -3.141  0.00  0.00    +0.104 A 
ATOM      4  C   UNL     1      -2.288  -0.899  -3.466  0.00  0.00    +0.147 A 
ATOM      5  N   UNL     1      -1.514   0.130  -3.801  0.00  0.00    -0.221 NA
ATOM      6  C   UNL     1      -0.203   0.011  -3.829  0.00  0.00    +0.200 A 
ATOM      7  N   UNL     1       0.403  -1.119  -3.524  0.00  0.00    -0.332 N 
ATOM      8  H   UNL     1       1.371  -1.165  -3.552  0.00  0.00    +0.168 HD
ENDROOT
BRANCH   1   9
ATOM      9  C   UNL     1       0.739  -4.261  -3.884  0.00  0.00    +0.043 A 
ATOM     10  C   UNL     1      -0.121  -5.246  -4.321  0.00  0.00    +0.024 A 
ATOM     11  C   UNL     1       0.256  -6.122  -5.334  0.00  0.00    +0.002 A 
ATOM     12  C   UNL     1       1.481  -6.032  -5.921  0.00  0.00    +0.008 A 
ATOM     13  C   UNL     1       2.388  -5.042  -5.506  0.00  0.00    -0.016 A 
ATOM     14  C   UNL     1       2.014  -4.141  -4.479  0.00  0.00    +0.003 A 
ATOM     15  C   UNL     1       2.918  -3.149  -4.068  0.00  0.00    +0.010 A 
ATOM     16  C   UNL     1       4.140  -3.063  -4.664  0.00  0.00    +0.001 A 
ATOM     17  C   UNL     1       4.507  -3.945  -5.678  0.00  0.00    +0.001 A 
ATOM     18  C   UNL     1       3.660  -4.926  -6.093  0.00  0.00    +0.008 A 
ENDBRANCH   1   9
BRANCH   4  19
ATOM     19  N   UNL     1      -3.671  -0.764  -3.441  0.00  0.00    -0.311 N 
ATOM     20  C   UNL     1      -4.373  -0.415  -2.196  0.00  0.00    +0.122 C 
ATOM     21  C   UNL     1      -5.298   0.774  -2.476  0.00  0.00    +0.104 C 
ATOM     22  N   UNL     1      -6.172   0.453  -3.613  0.00  0.00    -0.289 NA
ATOM     23  C   UNL     1      -5.394   0.244  -4.841  0.00  0.00    +0.104 C 
ATOM     24  C   UNL     1      -4.471  -0.961  -4.659  0.00  0.00    +0.122 C 
BRANCH  22  25
ATOM     25  C   UNL     1      -7.189   1.495  -3.805  0.00  0.00    +0.117 C 
BRANCH  25  26
ATOM     26  C   UNL     1      -8.065   1.132  -4.977  0.00  0.00    -0.026 A 
ATOM     27  C   UNL     1      -8.461  -0.179  -5.163  0.00  0.00    +0.005 A 
ATOM     28  C   UNL     1      -9.264  -0.512  -6.238  0.00  0.00    +0.000 A 
ATOM     29  C   UNL     1      -9.671   0.466  -7.126  0.00  0.00    +0.000 A 
ATOM     30  C   UNL     1      -9.275   1.777  -6.939  0.00  0.00    +0.000 A 
ATOM     31  C   UNL     1      -8.476   2.111  -5.862  0.00  0.00    +0.005 A 
ENDBRANCH  25  26
BRANCH  25  32
ATOM     32  C   UNL     1      -8.035   1.607  -2.563  0.00  0.00    -0.026 A 
ATOM     33  C   UNL     1      -8.411   0.467  -1.877  0.00  0.00    +0.005 A 
ATOM     34  C   UNL     1      -9.186   0.571  -0.737  0.00  0.00    +0.000 A 
ATOM     35  C   UNL     1      -9.585   1.814  -0.283  0.00  0.00    +0.000 A 
ATOM     36  C   UNL     1      -9.207   2.954  -0.968  0.00  0.00    +0.000 A 
ATOM     37  C   UNL     1      -8.429   2.851  -2.105  0.00  0.00    +0.005 A 
ENDBRANCH  25  32
ENDBRANCH  22  25
ENDBRANCH   4  19
BRANCH   3  38
ATOM     38  N   UNL     1      -2.466  -3.231  -2.782  0.00  0.00    -0.353 N 
ATOM     39  H   UNL     1      -2.036  -4.040  -2.463  0.00  0.00    +0.143 HD
ATOM     40  H   UNL     1      -3.432  -3.191  -2.853  0.00  0.00    +0.143 HD
ENDBRANCH   3  38
BRANCH   1  42
ATOM     41  C   UNL     1       2.007  -3.193  -1.079  0.00  0.00    +0.025 C 
ATOM     42  C   UNL     1       0.627  -3.725  -1.469  0.00  0.00    +0.109 C 
ENDBRANCH   1  42
TORSDOF 7
