REMARK  Name = ZINC67397892
REMARK  11 active torsions:
REMARK  status: ('A' for Active; 'I' for Inactive)
REMARK    1  A    between atoms: C_1  and  C_2
REMARK    2  A    between atoms: N_7  and  C_9
REMARK    3  A    between atoms: C_9  and  C_10
REMARK    4  A    between atoms: C_10  and  C_12
REMARK    5  A    between atoms: C_10  and  N_13
REMARK    6  A    between atoms: C_14  and  C_16
REMARK    7  A    between atoms: N_18  and  C_19
REMARK    8  A    between atoms: C_22  and  N_25
REMARK    9  A    between atoms: C_26  and  C_28
REMARK   10  A    between atoms: C_28  and  C_29
REMARK   11  A    between atoms: C_28  and  C_30
REMARK                            x       y       z     vdW  Elec       q    Type
REMARK                         _______ _______ _______ _____ _____    ______ ____
ROOT
ATOM      1  C   UNL     1      -1.831  -6.017   1.831  0.00  0.00    +0.303 C 
ATOM      2  O   UNL     1      -2.720  -5.262   2.165  0.00  0.00    -0.265 OA
ATOM      3  N   UNL     1      -2.131  -7.239   1.348  0.00  0.00    -0.278 N 
ATOM      4  H   UNL     1      -1.425  -7.817   1.018  0.00  0.00    +0.155 HD
ENDROOT
BRANCH   3   5
ATOM      5  C   UNL     1      -3.460  -7.674   1.322  0.00  0.00    +0.034 A 
ATOM      6  C   UNL     1      -3.757  -9.012   1.552  0.00  0.00    +0.025 A 
ATOM      7  C   UNL     1      -5.069  -9.441   1.527  0.00  0.00    +0.025 A 
ATOM      8  C   UNL     1      -6.091  -8.535   1.272  0.00  0.00    +0.034 A 
ATOM      9  C   UNL     1      -5.794  -7.198   1.042  0.00  0.00    +0.025 A 
ATOM     10  C   UNL     1      -4.483  -6.768   1.073  0.00  0.00    +0.025 A 
BRANCH   8  11
ATOM     11  N   UNL     1      -7.422  -8.971   1.246  0.00  0.00    -0.285 N 
ATOM     12  C   UNL     1      -8.296  -8.415   0.385  0.00  0.00    +0.220 C 
ATOM     13  O   UNL     1      -7.953  -7.481  -0.309  0.00  0.00    -0.275 OA
ATOM     14  H   UNL     1      -7.714  -9.673   1.849  0.00  0.00    +0.155 HD
BRANCH  12  15
ATOM     15  C   UNL     1      -9.700  -8.953   0.284  0.00  0.00    +0.069 C 
ATOM     16  C   UNL     1     -10.392  -8.831   1.643  0.00  0.00    +0.017 C 
ATOM     17  C   UNL     1     -10.480  -8.150  -0.759  0.00  0.00    +0.017 C 
ENDBRANCH  12  15
ENDBRANCH   8  11
ENDBRANCH   3   5
BRANCH   1  19
ATOM     18  N   UNL     1      -0.105  -4.370   2.437  0.00  0.00    -0.307 N 
ATOM     19  C   UNL     1      -0.405  -5.593   1.954  0.00  0.00    +0.299 C 
ATOM     20  O   UNL     1       0.484  -6.348   1.619  0.00  0.00    -0.265 OA
ATOM     21  H   UNL     1      -0.815  -3.767   2.704  0.00  0.00    +0.149 HD
BRANCH  18  22
ATOM     22  C   UNL     1       1.295  -3.954   2.558  0.00  0.00    +0.054 C 
ATOM     23  C   UNL     1       1.864  -4.457   3.886  0.00  0.00    +0.026 C 
BRANCH  22  24
ATOM     24  C   UNL     1       1.378  -2.427   2.514  0.00  0.00    -0.057 C 
BRANCH  24  30
ATOM     25  C   UNL     1      -0.092   1.575   0.107  0.00  0.00    +0.005 C 
ATOM     26  C   UNL     1      -0.061   0.045   0.084  0.00  0.00    -0.031 C 
ATOM     27  C   UNL     1       0.655  -0.432  -1.182  0.00  0.00    -0.001 C 
ATOM     28  C   UNL     1       0.750  -1.961  -1.157  0.00  0.00    -0.018 C 
ATOM     29  C   UNL     1       1.472  -2.401   0.118  0.00  0.00    -0.079 C 
ATOM     30  N   UNL     1       0.724  -1.936   1.293  0.00  0.00    +0.381 N 
ATOM     31  C   UNL     1       0.690  -0.469   1.314  0.00  0.00    -0.076 C 
ATOM     32  H   UNL     1      -0.219  -2.292   1.252  0.00  0.00    -0.082 HD
ENDBRANCH  24  30
ENDBRANCH  22  24
ENDBRANCH  18  22
ENDBRANCH   1  19
TORSDOF 7
