REMARK  Name = ZINC39653154
REMARK  14 active torsions:
REMARK  status: ('A' for Active; 'I' for Inactive)
REMARK    1  A    between atoms: C_1  and  C_2
REMARK    2  A    between atoms: C_2  and  C_3
REMARK    3  A    between atoms: C_2  and  C_4
REMARK    4  A    between atoms: C_4  and  C_6
REMARK    5  A    between atoms: C_4  and  O_34
REMARK    6  A    between atoms: C_10  and  C_19
REMARK    7  A    between atoms: N_21  and  C_22
REMARK    8  A    between atoms: C_22  and  C_23
REMARK    9  A    between atoms: C_23  and  C_24
REMARK   10  A    between atoms: C_26  and  O_32
REMARK   11  A    between atoms: C_28  and  O_30
REMARK   12  A    between atoms: O_30  and  C_31
REMARK   13  A    between atoms: O_32  and  C_33
REMARK   14  A    between atoms: O_34  and  C_35
REMARK                            x       y       z     vdW  Elec       q    Type
REMARK                         _______ _______ _______ _____ _____    ______ ____
ROOT
ATOM      1  C   UNL     1      -1.763  -1.926  -0.242  0.00  0.00    +0.257 C 
ATOM      2  O   UNL     1      -2.331  -2.570   0.614  0.00  0.00    -0.272 OA
ATOM      3  N   UNL     1      -1.164  -2.556  -1.272  0.00  0.00    -0.297 N 
ATOM      4  C   UNL     1      -0.487  -1.945  -2.441  0.00  0.00    +0.121 C 
ATOM      5  C   UNL     1       0.751  -2.837  -2.684  0.00  0.00    +0.100 C 
ATOM      6  C   UNL     1       0.386  -4.194  -2.062  0.00  0.00    -0.004 C 
ATOM      7  C   UNL     1      -1.027  -4.016  -1.489  0.00  0.00    +0.115 C 
ATOM      8  C   UNL     1       1.362  -4.542  -0.942  0.00  0.00    -0.010 C 
ATOM      9  C   UNL     1       1.013  -5.922  -0.377  0.00  0.00    -0.082 C 
ATOM     10  N   UNL     1       1.088  -6.924  -1.447  0.00  0.00    +0.379 N 
ATOM     11  C   UNL     1       0.082  -6.634  -2.476  0.00  0.00    -0.082 C 
ATOM     12  C   UNL     1       0.391  -5.284  -3.129  0.00  0.00    -0.010 C 
ATOM     13  H   UNL     1       2.007  -6.903  -1.862  0.00  0.00    -0.086 HD
ATOM     14  H   UNL     1       0.917  -7.840  -1.060  0.00  0.00    -0.086 HD
ENDROOT
BRANCH   5  15
ATOM     15  C   UNL     1       1.961  -2.252  -2.002  0.00  0.00    +0.218 C 
ATOM     16  O   UNL     1       1.848  -1.722  -0.917  0.00  0.00    -0.275 OA
ATOM     17  N   UNL     1       3.169  -2.319  -2.597  0.00  0.00    -0.315 N 
ATOM     18  H   UNL     1       3.259  -2.743  -3.464  0.00  0.00    +0.149 HD
BRANCH  17  19
ATOM     19  C   UNL     1       4.345  -1.751  -1.933  0.00  0.00    +0.109 C 
BRANCH  19  20
ATOM     20  C   UNL     1       5.578  -1.959  -2.815  0.00  0.00    +0.054 C 
BRANCH  20  21
ATOM     21  C   UNL     1       6.788  -1.374  -2.132  0.00  0.00    -0.039 A 
ATOM     22  C   UNL     1       7.133  -0.054  -2.351  0.00  0.00    +0.049 A 
ATOM     23  C   UNL     1       8.246   0.486  -1.724  0.00  0.00    +0.124 A 
ATOM     24  C   UNL     1       9.013  -0.299  -0.877  0.00  0.00    +0.091 A 
ATOM     25  C   UNL     1       8.665  -1.624  -0.659  0.00  0.00    +0.124 A 
ATOM     26  C   UNL     1       7.547  -2.158  -1.284  0.00  0.00    +0.049 A 
BRANCH  25  27
ATOM     27  O   UNL     1       9.415  -2.396   0.170  0.00  0.00    -0.495 OA
ATOM     28  C   UNL     1      10.548  -1.779   0.784  0.00  0.00    +0.277 C 
ENDBRANCH  25  27
BRANCH  23  29
ATOM     29  O   UNL     1       8.585   1.784  -1.939  0.00  0.00    -0.495 OA
ATOM     30  C   UNL     1       9.743   2.274  -1.261  0.00  0.00    +0.277 C 
ENDBRANCH  23  29
ENDBRANCH  20  21
ENDBRANCH  19  20
ENDBRANCH  17  19
ENDBRANCH   5  15
BRANCH   1  31
ATOM     31  C   UNL     1      -1.727  -0.422  -0.155  0.00  0.00    +0.261 C 
BRANCH  31  33
ATOM     32  C   UNL     1      -0.241   1.567   0.121  0.00  0.00    +0.011 C 
ATOM     33  C   UNL     1      -0.295   0.038   0.128  0.00  0.00    +0.033 C 
ATOM     34  C   UNL     1       0.147  -0.482   1.497  0.00  0.00    +0.011 C 
ENDBRANCH  31  33
BRANCH  31  35
ATOM     35  O   UNL     1      -2.585   0.014   0.901  0.00  0.00    -0.479 OA
BRANCH  35  36
ATOM     36  C   UNL     1      -3.216   1.206   0.731  0.00  0.00    +0.122 A 
ATOM     37  C   UNL     1      -3.073   1.904  -0.460  0.00  0.00    +0.045 A 
ATOM     38  C   UNL     1      -3.716   3.115  -0.630  0.00  0.00    +0.004 A 
ATOM     39  C   UNL     1      -4.500   3.632   0.384  0.00  0.00    +0.000 A 
ATOM     40  C   UNL     1      -4.643   2.938   1.572  0.00  0.00    +0.004 A 
ATOM     41  C   UNL     1      -4.007   1.724   1.745  0.00  0.00    +0.045 A 
ENDBRANCH  35  36
ENDBRANCH  31  35
ENDBRANCH   1  31
TORSDOF 10
