REMARK  Name = ZINC36546746
REMARK  9 active torsions:
REMARK  status: ('A' for Active; 'I' for Inactive)
REMARK    1  A    between atoms: C_1  and  C_2
REMARK    2  A    between atoms: C_2  and  C_32
REMARK    3  A    between atoms: C_3  and  C_4
REMARK    4  A    between atoms: N_6  and  C_7
REMARK    5  A    between atoms: N_6  and  C_14
REMARK    6  A    between atoms: C_14  and  C_16
REMARK    7  A    between atoms: C_14  and  C_23
REMARK    8  A    between atoms: C_19  and  O_22
REMARK    9  A    between atoms: N_25  and  C_26
REMARK                            x       y       z     vdW  Elec       q    Type
REMARK                         _______ _______ _______ _____ _____    ______ ____
ROOT
ATOM      1  C   UNL     1       4.288  -1.905   0.145  0.00  0.00    +0.197 C 
ENDROOT
BRANCH   1   2
ATOM      2  C   UNL     1       3.677  -2.693  -0.985  0.00  0.00    -0.018 A 
ATOM      3  C   UNL     1       2.393  -2.406  -1.411  0.00  0.00    +0.009 A 
ATOM      4  C   UNL     1       1.830  -3.127  -2.446  0.00  0.00    +0.046 A 
ATOM      5  C   UNL     1       2.554  -4.140  -3.058  0.00  0.00    +0.117 A 
ATOM      6  C   UNL     1       3.842  -4.426  -2.629  0.00  0.00    +0.046 A 
ATOM      7  C   UNL     1       4.402  -3.698  -1.597  0.00  0.00    +0.009 A 
BRANCH   5   8
ATOM      8  O   UNL     1       2.002  -4.852  -4.076  0.00  0.00    -0.507 OA
ATOM      9  H   UNL     1       2.165  -4.476  -4.952  0.00  0.00    +0.292 HD
ENDBRANCH   5   8
ENDBRANCH   1   2
BRANCH   1  10
ATOM     10  C   UNL     1       3.848  -2.490   1.462  0.00  0.00    +0.239 C 
ATOM     11  O   UNL     1       2.948  -1.970   2.086  0.00  0.00    -0.273 OA
ATOM     12  N   UNL     1       4.456  -3.592   1.946  0.00  0.00    -0.311 N 
ATOM     13  H   UNL     1       5.176  -4.007   1.447  0.00  0.00    +0.149 HD
BRANCH  12  14
ATOM     14  C   UNL     1       4.028  -4.161   3.226  0.00  0.00    +0.073 C 
ATOM     15  C   UNL     1       4.746  -3.441   4.370  0.00  0.00    +0.022 C 
ATOM     16  C   UNL     1       4.299  -4.035   5.707  0.00  0.00    +0.002 C 
ATOM     17  C   UNL     1       4.646  -5.525   5.744  0.00  0.00    +0.000 C 
ATOM     18  C   UNL     1       3.929  -6.245   4.601  0.00  0.00    +0.002 C 
ATOM     19  C   UNL     1       4.375  -5.650   3.264  0.00  0.00    +0.022 C 
ENDBRANCH  12  14
ENDBRANCH   1  10
BRANCH   1  22
ATOM     20  C   UNL     1       4.250   0.261  -0.971  0.00  0.00    +0.245 C 
ATOM     21  O   UNL     1       3.805   1.386  -1.098  0.00  0.00    -0.270 OA
ATOM     22  N   UNL     1       3.850  -0.509   0.060  0.00  0.00    -0.250 N 
BRANCH  22  23
ATOM     23  C   UNL     1       3.017   0.023   1.049  0.00  0.00    +0.056 A 
ATOM     24  C   UNL     1       1.643   0.070   0.850  0.00  0.00    +0.025 A 
ATOM     25  C   UNL     1       0.822   0.597   1.828  0.00  0.00    +0.002 A 
ATOM     26  C   UNL     1       1.367   1.077   3.005  0.00  0.00    +0.002 A 
ATOM     27  C   UNL     1       2.734   1.033   3.207  0.00  0.00    +0.022 A 
ATOM     28  C   UNL     1       3.560   0.501   2.235  0.00  0.00    +0.062 A 
ATOM     29 CL   UNL     1       5.276   0.439   2.492  0.00  0.00    -0.082 Cl
ENDBRANCH  22  23
BRANCH  20  32
ATOM     30  C   UNL     1       5.690   2.043  -2.673  0.00  0.00    +0.039 C 
ATOM     31  C   UNL     1       5.738   0.549  -2.867  0.00  0.00    -0.071 C 
ATOM     32  C   UNL     1       5.225  -0.258  -1.942  0.00  0.00    +0.066 C 
ATOM     33  C   UNL     1       6.366  -0.030  -4.108  0.00  0.00    +0.039 C 
ENDBRANCH  20  32
ENDBRANCH   1  22
TORSDOF 7
