REMARK  Name = ZINC39543556
REMARK  8 active torsions:
REMARK  status: ('A' for Active; 'I' for Inactive)
REMARK    1  A    between atoms: C_1  and  C_2
REMARK    2  A    between atoms: C_2  and  C_3
REMARK    3  A    between atoms: C_2  and  S_4
REMARK    4  A    between atoms: S_4  and  N_7
REMARK    5  A    between atoms: N_7  and  C_8
REMARK    6  A    between atoms: C_9  and  C_11
REMARK    7  A    between atoms: C_14  and  C_25
REMARK    8  A    between atoms: C_30  and  O_31
REMARK                            x       y       z     vdW  Elec       q    Type
REMARK                         _______ _______ _______ _____ _____    ______ ____
ROOT
ATOM      1  C   UNL     1       1.472   1.932   2.647  0.00  0.00    +0.150 C 
ATOM      2  C   UNL     1       1.044   2.279   1.208  0.00  0.00    +0.069 C 
ATOM      3  C   UNL     1       1.044   3.790   1.175  0.00  0.00    -0.000 C 
ATOM      4  C   UNL     1       1.411   4.252   2.361  0.00  0.00    +0.079 C 
ATOM      5  N   UNL     1       1.498   5.601   2.734  0.00  0.00    -0.303 N 
ATOM      6  C   UNL     1       1.112   5.875   4.057  0.00  0.00    +0.037 A 
ATOM      7  C   UNL     1       1.047   7.189   4.498  0.00  0.00    +0.023 A 
ATOM      8  C   UNL     1       0.677   7.458   5.802  0.00  0.00    +0.002 A 
ATOM      9  C   UNL     1       0.374   6.416   6.660  0.00  0.00    +0.000 A 
ATOM     10  C   UNL     1       0.434   5.108   6.219  0.00  0.00    +0.007 A 
ATOM     11  C   UNL     1       0.799   4.828   4.912  0.00  0.00    -0.010 A 
ATOM     12  C   UNL     1       0.832   3.394   4.453  0.00  0.00    +0.124 C 
ATOM     13  N   UNL     1       1.706   3.236   3.285  0.00  0.00    -0.370 NA
ATOM     14  H   UNL     1       1.802   6.292   2.124  0.00  0.00    +0.153 HD
ATOM     15  H   UNL     1       2.671   3.306   3.572  0.00  0.00    +0.128 HD
ENDROOT
BRANCH   3  16
ATOM     16  C   UNL     1       0.693   4.620   0.006  0.00  0.00    +0.023 A 
ATOM     17  C   UNL     1       1.693   5.260  -0.727  0.00  0.00    +0.012 A 
ATOM     18  C   UNL     1       1.357   6.034  -1.819  0.00  0.00    +0.001 A 
ATOM     19  C   UNL     1       0.032   6.179  -2.190  0.00  0.00    +0.004 A 
ATOM     20  C   UNL     1      -0.968   5.550  -1.471  0.00  0.00    +0.046 A 
ATOM     21  C   UNL     1      -0.647   4.764  -0.377  0.00  0.00    +0.124 A 
BRANCH  21  22
ATOM     22  O   UNL     1      -1.629   4.141   0.326  0.00  0.00    -0.506 OA
ATOM     23  H   UNL     1      -1.987   4.667   1.054  0.00  0.00    +0.292 HD
ENDBRANCH  21  22
ENDBRANCH   3  16
BRANCH   1  26
ATOM     24  N   UNL     1       0.677   0.276   4.303  0.00  0.00    -0.178 N 
ATOM     25  C   UNL     1      -0.392  -0.377   5.063  0.00  0.00    +0.160 C 
ATOM     26  C   UNL     1       0.372   1.187   3.358  0.00  0.00    +0.253 C 
ATOM     27  O   UNL     1      -0.788   1.407   3.080  0.00  0.00    -0.272 OA
BRANCH  24  28
ATOM     28  S   UNL     1       2.260  -0.106   4.606  0.00  0.00    +0.050 S 
ATOM     29  O   UNL     1       2.248  -0.711   5.891  0.00  0.00    -0.155 OA
ATOM     30  O   UNL     1       2.973   1.102   4.380  0.00  0.00    -0.155 OA
BRANCH  28  32
ATOM     31  C   UNL     1       2.517  -0.717   1.952  0.00  0.00    +0.033 C 
ATOM     32  C   UNL     1       2.693  -1.332   3.341  0.00  0.00    +0.145 C 
ATOM     33  C   UNL     1       4.150  -1.763   3.527  0.00  0.00    +0.033 C 
ENDBRANCH  28  32
ENDBRANCH  24  28
ENDBRANCH   1  26
TORSDOF 5
