REMARK  Name = ZINC39652697
REMARK  9 active torsions:
REMARK  status: ('A' for Active; 'I' for Inactive)
REMARK    1  A    between atoms: C_1  and  C_2
REMARK    2  A    between atoms: C_2  and  O_3
REMARK    3  A    between atoms: O_3  and  C_4
REMARK    4  A    between atoms: C_9  and  C_10
REMARK    5  A    between atoms: C_10  and  C_11
REMARK    6  A    between atoms: C_11  and  N_12
REMARK    7  A    between atoms: C_13  and  C_15
REMARK    8  A    between atoms: C_26  and  C_28
REMARK    9  A    between atoms: C_32  and  C_34
REMARK                            x       y       z     vdW  Elec       q    Type
REMARK                         _______ _______ _______ _____ _____    ______ ____
ROOT
ATOM      1  C   UNL     1       1.874   1.605   7.831  0.00  0.00    +0.100 C 
ATOM      2  C   UNL     1       2.251   2.766   6.884  0.00  0.00    +0.121 C 
ATOM      3  N   UNL     1       1.110   3.707   6.973  0.00  0.00    -0.296 N 
ATOM      4  C   UNL     1       0.730   3.692   8.406  0.00  0.00    +0.115 C 
ATOM      5  C   UNL     1       0.878   2.218   8.831  0.00  0.00    -0.004 C 
ATOM      6  C   UNL     1       1.432   2.130  10.249  0.00  0.00    -0.010 C 
ATOM      7  C   UNL     1       0.401   2.692  11.231  0.00  0.00    -0.082 C 
ATOM      8  N   UNL     1      -0.848   1.928  11.124  0.00  0.00    +0.379 N 
ATOM      9  C   UNL     1      -1.422   2.094   9.783  0.00  0.00    -0.082 C 
ATOM     10  C   UNL     1      -0.468   1.506   8.740  0.00  0.00    -0.010 C 
ATOM     11  C   UNL     1       0.545   4.417   5.976  0.00  0.00    +0.247 C 
ATOM     12  O   UNL     1       0.888   4.227   4.825  0.00  0.00    -0.270 OA
ATOM     13  H   UNL     1      -0.657   0.951  11.288  0.00  0.00    -0.086 HD
ATOM     14  H   UNL     1      -1.505   2.260  11.813  0.00  0.00    -0.086 HD
ENDROOT
BRANCH  11  15
ATOM     15  C   UNL     1      -0.491   5.426   6.282  0.00  0.00    +0.037 A 
ATOM     16  C   UNL     1      -0.588   5.963   7.567  0.00  0.00    +0.014 A 
ATOM     17  C   UNL     1      -1.556   6.904   7.846  0.00  0.00    +0.016 A 
ATOM     18  C   UNL     1      -2.432   7.316   6.855  0.00  0.00    +0.021 A 
ATOM     19  C   UNL     1      -2.341   6.786   5.579  0.00  0.00    -0.036 A 
ATOM     20  C   UNL     1      -1.372   5.849   5.286  0.00  0.00    +0.017 A 
ATOM     21  C   UNL     1      -3.298   7.240   4.506  0.00  0.00    +0.045 C 
ATOM     22 BR   UNL     1      -3.758   8.605   7.247  0.00  0.00    -0.050 Br
ENDBRANCH  11  15
BRANCH   1  24
ATOM     23  N   UNL     1       1.241  -0.769   7.543  0.00  0.00    -0.315 N 
ATOM     24  C   UNL     1       1.220   0.488   7.058  0.00  0.00    +0.218 C 
ATOM     25  O   UNL     1       0.676   0.721   6.000  0.00  0.00    -0.275 OA
ATOM     26  H   UNL     1       1.676  -0.955   8.390  0.00  0.00    +0.149 HD
BRANCH  23  27
ATOM     27  C   UNL     1       0.606  -1.855   6.792  0.00  0.00    +0.109 C 
BRANCH  27  28
ATOM     28  C   UNL     1       0.771  -3.169   7.557  0.00  0.00    +0.057 C 
BRANCH  28  34
ATOM     29  C   UNL     1       0.818  -4.937   5.779  0.00  0.00    +0.124 A 
ATOM     30  C   UNL     1       0.216  -5.968   5.073  0.00  0.00    +0.046 A 
ATOM     31  C   UNL     1      -1.081  -6.340   5.368  0.00  0.00    +0.004 A 
ATOM     32  C   UNL     1      -1.779  -5.686   6.367  0.00  0.00    +0.000 A 
ATOM     33  C   UNL     1      -1.181  -4.658   7.072  0.00  0.00    +0.007 A 
ATOM     34  C   UNL     1       0.118  -4.286   6.784  0.00  0.00    -0.004 A 
BRANCH  29  35
ATOM     35  O   UNL     1       2.094  -4.569   5.491  0.00  0.00    -0.492 OA
BRANCH  35  37
ATOM     36  C   UNL     1       4.171  -4.733   4.265  0.00  0.00    +0.048 C 
ATOM     37  C   UNL     1       2.754  -5.283   4.444  0.00  0.00    +0.225 C 
ENDBRANCH  35  37
ENDBRANCH  29  35
ENDBRANCH  28  34
ENDBRANCH  27  28
ENDBRANCH  23  27
ENDBRANCH   1  24
TORSDOF 7
