REMARK  Name = ZINC36600188
REMARK  14 active torsions:
REMARK  status: ('A' for Active; 'I' for Inactive)
REMARK    1  A    between atoms: C_1  and  C_2
REMARK    2  A    between atoms: C_5  and  C_7
REMARK    3  A    between atoms: C_7  and  N_8
REMARK    4  A    between atoms: N_8  and  C_9
REMARK    5  A    between atoms: C_9  and  C_11
REMARK    6  A    between atoms: C_9  and  C_18
REMARK    7  A    between atoms: C_15  and  O_17
REMARK    8  A    between atoms: N_20  and  C_21
REMARK    9  A    between atoms: C_21  and  C_22
REMARK   10  A    between atoms: C_21  and  C_23
REMARK   11  A    between atoms: C_21  and  C_24
REMARK   12  A    between atoms: C_25  and  C_27
REMARK   13  A    between atoms: C_27  and  C_28
REMARK   14  A    between atoms: C_27  and  C_34
REMARK                            x       y       z     vdW  Elec       q    Type
REMARK                         _______ _______ _______ _____ _____    ______ ____
ROOT
ATOM      1  N   UNL     1       2.095  -4.043  -0.346  0.00  0.00    -0.278 N 
ATOM      2  C   UNL     1       1.689  -4.604  -1.503  0.00  0.00    +0.229 C 
ATOM      3  O   UNL     1       2.405  -4.562  -2.481  0.00  0.00    -0.275 OA
ENDROOT
BRANCH   1   4
ATOM      4  C   UNL     1       1.282  -4.191   0.864  0.00  0.00    +0.183 C 
BRANCH   4   9
ATOM      5  C   UNL     1       2.276  -9.088   1.550  0.00  0.00    +0.086 C 
ATOM      6  C   UNL     1       2.050  -7.626   1.836  0.00  0.00    +0.102 A 
ATOM      7  C   UNL     1       2.117  -7.042   3.046  0.00  0.00    +0.045 A 
ATOM      8  C   UNL     1       1.839  -5.669   2.854  0.00  0.00    +0.046 A 
ATOM      9  C   UNL     1       1.618  -5.497   1.538  0.00  0.00    +0.122 A 
ATOM     10  O   UNL     1       1.753  -6.684   0.926  0.00  0.00    -0.463 OA
ENDBRANCH   4   9
ENDBRANCH   1   4
BRANCH   1  11
ATOM     11  C   UNL     1       3.348  -3.286  -0.299  0.00  0.00    +0.193 C 
BRANCH  11  12
ATOM     12  C   UNL     1       3.163  -1.965  -1.000  0.00  0.00    -0.015 A 
ATOM     13  C   UNL     1       2.011  -1.228  -0.794  0.00  0.00    +0.006 A 
ATOM     14  C   UNL     1       1.839  -0.016  -1.437  0.00  0.00    +0.004 A 
ATOM     15  C   UNL     1       2.817   0.462  -2.286  0.00  0.00    +0.045 A 
ATOM     16  C   UNL     1       3.974  -0.275  -2.494  0.00  0.00    +0.117 A 
ATOM     17  C   UNL     1       4.147  -1.488  -1.844  0.00  0.00    +0.051 A 
BRANCH  16  18
ATOM     18  O   UNL     1       4.938   0.194  -3.330  0.00  0.00    -0.507 OA
ATOM     19  H   UNL     1       5.603   0.744  -2.893  0.00  0.00    +0.292 HD
ENDBRANCH  16  18
ENDBRANCH  11  12
BRANCH  11  20
ATOM     20  C   UNL     1       3.734  -3.042   1.137  0.00  0.00    +0.238 C 
ATOM     21  O   UNL     1       3.195  -3.669   2.025  0.00  0.00    -0.273 OA
ATOM     22  N   UNL     1       4.679  -2.128   1.435  0.00  0.00    -0.309 N 
ATOM     23  H   UNL     1       5.045  -1.564   0.737  0.00  0.00    +0.149 HD
BRANCH  22  24
ATOM     24  C   UNL     1       5.152  -1.988   2.814  0.00  0.00    +0.026 C 
ATOM     25  C   UNL     1       5.655  -3.341   3.322  0.00  0.00    +0.031 C 
ATOM     26  C   UNL     1       6.293  -0.970   2.860  0.00  0.00    +0.031 C 
ATOM     27  C   UNL     1       4.003  -1.505   3.702  0.00  0.00    +0.031 C 
ENDBRANCH  22  24
ENDBRANCH  11  20
ENDBRANCH   1  11
BRANCH   2  28
ATOM     28  C   UNL     1       0.345  -5.281  -1.581  0.00  0.00    +0.135 C 
BRANCH  28  29
ATOM     29  C   UNL     1      -0.731  -4.243  -1.767  0.00  0.00    -0.031 A 
ATOM     30  C   UNL     1      -0.557  -3.224  -2.684  0.00  0.00    +0.005 A 
ATOM     31  C   UNL     1      -1.545  -2.271  -2.854  0.00  0.00    +0.000 A 
ATOM     32  C   UNL     1      -2.706  -2.338  -2.107  0.00  0.00    +0.000 A 
ATOM     33  C   UNL     1      -2.880  -3.358  -1.190  0.00  0.00    +0.000 A 
ATOM     34  C   UNL     1      -1.895  -4.313  -1.023  0.00  0.00    +0.005 A 
ENDBRANCH  28  29
BRANCH  28  35
ATOM     35  C   UNL     1       0.330  -6.234  -2.748  0.00  0.00    -0.031 A 
ATOM     36  C   UNL     1       0.499  -5.755  -4.034  0.00  0.00    +0.005 A 
ATOM     37  C   UNL     1       0.486  -6.629  -5.105  0.00  0.00    +0.000 A 
ATOM     38  C   UNL     1       0.304  -7.982  -4.890  0.00  0.00    +0.000 A 
ATOM     39  C   UNL     1       0.136  -8.462  -3.604  0.00  0.00    +0.000 A 
ATOM     40  C   UNL     1       0.154  -7.588  -2.533  0.00  0.00    +0.005 A 
ENDBRANCH  28  35
ENDBRANCH   2  28
TORSDOF 10
