REMARK  Name = ZINC63486384
REMARK  6 active torsions:
REMARK  status: ('A' for Active; 'I' for Inactive)
REMARK    1  A    between atoms: C_7  and  C_10
REMARK    2  A    between atoms: C_10  and  C_11
REMARK    3  A    between atoms: C_11  and  N_12
REMARK    4  A    between atoms: C_13  and  C_15
REMARK    5  A    between atoms: N_18  and  S_21
REMARK    6  A    between atoms: S_21  and  C_24
REMARK                            x       y       z     vdW  Elec       q    Type
REMARK                         _______ _______ _______ _____ _____    ______ ____
ROOT
ATOM      1  C   UNL     1      -1.752  -6.557  -2.622  0.00  0.00    +0.077 C 
ATOM      2  C   UNL     1      -3.085  -6.143  -1.995  0.00  0.00    +0.030 C 
ATOM      3  C   UNL     1      -4.027  -7.351  -1.963  0.00  0.00    +0.110 C 
ATOM      4  N   UNL     1      -4.143  -7.896  -3.323  0.00  0.00    -0.176 NA
ATOM      5  C   UNL     1      -2.915  -8.243  -4.052  0.00  0.00    +0.110 C 
ATOM      6  C   UNL     1      -1.986  -7.025  -4.060  0.00  0.00    +0.030 C 
ENDROOT
BRANCH   1   8
ATOM      7  N   UNL     1      -0.458  -4.798  -1.460  0.00  0.00    -0.315 N 
ATOM      8  C   UNL     1      -0.811  -5.380  -2.623  0.00  0.00    +0.216 C 
ATOM      9  O   UNL     1      -0.371  -4.957  -3.671  0.00  0.00    -0.276 OA
ATOM     10  H   UNL     1      -0.810  -5.136  -0.622  0.00  0.00    +0.149 HD
BRANCH   7  11
ATOM     11  C   UNL     1       0.457  -3.653  -1.462  0.00  0.00    +0.108 C 
BRANCH  11  12
ATOM     12  C   UNL     1       0.691  -3.186  -0.024  0.00  0.00    +0.052 C 
BRANCH  12  19
ATOM     13  C   UNL     1      -0.016   1.348   0.009  0.00  0.00    +0.001 A 
ATOM     14  C   UNL     1       1.166   2.101   0.002  0.00  0.00    +0.002 A 
ATOM     15  C   UNL     1       2.391   1.535  -0.013  0.00  0.00    +0.026 A 
ATOM     16  C   UNL     1       2.529   0.120  -0.022  0.00  0.00    +0.043 A 
ATOM     17  N   UNL     1       3.587  -0.654  -0.037  0.00  0.00    -0.380 N 
ATOM     18  C   UNL     1       3.143  -2.053  -0.041  0.00  0.00    +0.144 C 
ATOM     19  C   UNL     1       1.631  -2.008  -0.025  0.00  0.00    -0.040 C 
ATOM     20  C   UNL     1       1.295  -0.698  -0.014  0.00  0.00    -0.001 A 
ATOM     21  C   UNL     1       0.002  -0.004   0.002  0.00  0.00    +0.010 A 
ATOM     22  H   UNL     1       4.509  -0.353  -0.045  0.00  0.00    +0.160 HD
ENDBRANCH  12  19
ENDBRANCH  11  12
ENDBRANCH   7  11
ENDBRANCH   1   8
BRANCH   4  23
ATOM     23  S   UNL     1      -5.628  -8.116  -4.020  0.00  0.00    +0.063 S 
ATOM     24  O   UNL     1      -5.467  -9.119  -5.013  0.00  0.00    -0.153 OA
ATOM     25  O   UNL     1      -6.562  -8.241  -2.956  0.00  0.00    -0.153 OA
BRANCH  23  26
ATOM     26  C   UNL     1      -6.031  -6.626  -4.870  0.00  0.00    +0.133 A 
ATOM     27  C   UNL     1      -6.153  -6.629  -6.218  0.00  0.00    +0.031 A 
ATOM     28  C   UNL     1      -6.471  -5.469  -6.924  0.00  0.00    +0.004 A 
ATOM     29  C   UNL     1      -6.670  -4.288  -6.292  0.00  0.00    +0.031 A 
ATOM     30  C   UNL     1      -6.558  -4.209  -4.877  0.00  0.00    +0.102 A 
ATOM     31  C   UNL     1      -6.231  -5.424  -4.139  0.00  0.00    +0.126 A 
ATOM     32  N   UNL     1      -6.157  -5.233  -2.821  0.00  0.00    -0.189 NA
ATOM     33  S   UNL     1      -6.480  -3.674  -2.590  0.00  0.00    +0.117 S 
ATOM     34  N   UNL     1      -6.717  -3.144  -4.090  0.00  0.00    -0.191 NA
ENDBRANCH  23  26
ENDBRANCH   4  23
TORSDOF 6
