REMARK  Name = ZINC12450388
REMARK  8 active torsions:
REMARK  status: ('A' for Active; 'I' for Inactive)
REMARK    1  A    between atoms: C_5  and  C_6
REMARK    2  A    between atoms: C_6  and  C_7
REMARK    3  A    between atoms: N_9  and  C_10
REMARK    4  A    between atoms: N_9  and  C_18
REMARK    5  A    between atoms: C_10  and  C_11
REMARK    6  A    between atoms: C_11  and  C_12
REMARK    7  A    between atoms: C_18  and  C_19
REMARK    8  A    between atoms: C_27  and  N_28
REMARK                            x       y       z     vdW  Elec       q    Type
REMARK                         _______ _______ _______ _____ _____    ______ ____
ROOT
ATOM      1  C   UNL     1       5.445  -1.820   2.791  0.00  0.00    +0.008 A 
ATOM      2  C   UNL     1       5.258  -2.265   1.516  0.00  0.00    +0.018 A 
ATOM      3  C   UNL     1       3.989  -2.093   0.928  0.00  0.00    +0.002 A 
ATOM      4  C   UNL     1       3.730  -2.527  -0.382  0.00  0.00    +0.059 A 
ATOM      5  C   UNL     1       2.490  -2.345  -0.924  0.00  0.00    +0.167 A 
ATOM      6  C   UNL     1       1.469  -1.727  -0.184  0.00  0.00    +0.168 A 
ATOM      7  C   UNL     1       1.696  -1.296   1.092  0.00  0.00    +0.075 A 
ATOM      8  C   UNL     1       2.961  -1.469   1.677  0.00  0.00    +0.051 A 
ATOM      9  C   UNL     1       4.388  -1.210   3.480  0.00  0.00    +0.104 A 
ATOM     10  O   UNL     1       0.346  -1.675  -0.959  0.00  0.00    -0.453 OA
ATOM     11  C   UNL     1       0.799  -1.885  -2.309  0.00  0.00    +0.466 C 
ATOM     12  O   UNL     1       1.994  -2.672  -2.155  0.00  0.00    -0.453 OA
ATOM     13  N   UNL     1       3.148  -1.018   2.966  0.00  0.00    -0.343 N 
ATOM     14  H   UNL     1       2.397  -0.567   3.502  0.00  0.00    +0.167 HD
ENDROOT
BRANCH   9  15
ATOM     15  N   UNL     1       4.595  -0.761   4.777  0.00  0.00    -0.312 N 
ATOM     16  C   UNL     1       3.665  -1.410   5.713  0.00  0.00    +0.134 C 
ATOM     17  C   UNL     1       3.966  -0.933   7.136  0.00  0.00    +0.178 C 
ATOM     18  O   UNL     1       3.875   0.494   7.184  0.00  0.00    -0.377 OA
ATOM     19  C   UNL     1       4.768   1.158   6.286  0.00  0.00    +0.178 C 
ATOM     20  C   UNL     1       4.475   0.702   4.854  0.00  0.00    +0.134 C 
ENDBRANCH   9  15
BRANCH   1  21
ATOM     21  C   UNL     1       6.787  -1.983   3.458  0.00  0.00    +0.146 C 
BRANCH  21  24
ATOM     22  C   UNL     1       7.827  -3.877   2.333  0.00  0.00    +0.220 C 
ATOM     23  O   UNL     1       8.547  -4.337   1.472  0.00  0.00    -0.275 OA
ATOM     24  N   UNL     1       7.743  -2.543   2.499  0.00  0.00    -0.296 N 
BRANCH  22  25
ATOM     25  C   UNL     1       7.027  -4.799   3.216  0.00  0.00    +0.131 C 
BRANCH  25  30
ATOM     26  C   UNL     1       6.762  -6.906   1.880  0.00  0.00    +0.011 A 
ATOM     27  C   UNL     1       7.115  -8.190   1.627  0.00  0.00    +0.045 A 
ATOM     28  S   UNL     1       8.359  -8.484   2.872  0.00  0.00    -0.105 S 
ATOM     29  C   UNL     1       8.330  -6.873   3.642  0.00  0.00    +0.049 A 
ATOM     30  C   UNL     1       7.389  -6.229   2.909  0.00  0.00    -0.032 A 
ENDBRANCH  25  30
ENDBRANCH  22  25
BRANCH  24  31
ATOM     31  C   UNL     1       8.608  -1.651   1.722  0.00  0.00    +0.112 C 
BRANCH  31  32
ATOM     32  C   UNL     1       9.910  -1.408   2.489  0.00  0.00    +0.049 C 
BRANCH  32  33
ATOM     33  C   UNL     1      10.800  -0.491   1.690  0.00  0.00    -0.072 C 
ATOM     34  C   UNL     1      10.757   0.776   1.952  0.00  0.00    -0.028 C 
ATOM     35  C   UNL     1      11.575   1.810   1.235  0.00  0.00    +0.027 C 
ATOM     36  C   UNL     1      12.733   1.143   0.490  0.00  0.00    +0.004 C 
ATOM     37  C   UNL     1      12.173  -0.028  -0.328  0.00  0.00    +0.005 C 
ATOM     38  C   UNL     1      11.685  -1.105   0.645  0.00  0.00    +0.030 C 
ENDBRANCH  32  33
ENDBRANCH  31  32
ENDBRANCH  24  31
ENDBRANCH  21  24
ENDBRANCH   1  21
TORSDOF 8
