REMARK  Name = ZINC04291084
REMARK  11 active torsions:
REMARK  status: ('A' for Active; 'I' for Inactive)
REMARK    1  A    between atoms: C_1  and  C_2
REMARK    2  A    between atoms: N_7  and  C_9
REMARK    3  A    between atoms: C_9  and  C_10
REMARK    4  A    between atoms: C_11  and  O_36
REMARK    5  A    between atoms: C_17  and  C_32
REMARK    6  A    between atoms: C_18  and  O_21
REMARK    7  A    between atoms: O_21  and  C_22
REMARK    8  A    between atoms: C_25  and  C_28
REMARK    9  A    between atoms: C_28  and  C_29
REMARK   10  A    between atoms: C_28  and  C_30
REMARK   11  A    between atoms: C_28  and  C_31
REMARK                            x       y       z     vdW  Elec       q    Type
REMARK                         _______ _______ _______ _____ _____    ______ ____
ROOT
ATOM      1  C   UNL     1       1.529  -3.709   2.684  0.00  0.00    +0.020 A 
ATOM      2  C   UNL     1       0.416  -4.205   3.343  0.00  0.00    +0.122 A 
ATOM      3  C   UNL     1       0.199  -5.578   3.432  0.00  0.00    +0.046 A 
ATOM      4  C   UNL     1       1.082  -6.455   2.870  0.00  0.00    +0.019 A 
ATOM      5  C   UNL     1       2.207  -5.971   2.202  0.00  0.00    +0.068 A 
ATOM      6  C   UNL     1       2.432  -4.587   2.102  0.00  0.00    +0.144 A 
ATOM      7  O   UNL     1       3.520  -4.130   1.450  0.00  0.00    -0.447 OA
ATOM      8  C   UNL     1       4.411  -4.951   0.878  0.00  0.00    +0.254 A 
ATOM      9  C   UNL     1       4.291  -6.293   0.909  0.00  0.00    +0.222 A 
ATOM     10  C   UNL     1       3.184  -6.884   1.582  0.00  0.00    +0.235 A 
ATOM     11  O   UNL     1       3.042  -8.094   1.631  0.00  0.00    -0.283 OA
ENDROOT
BRANCH   8  12
ATOM     12  C   UNL     1       5.597  -4.349   0.170  0.00  0.00    +0.454 C 
ATOM     13  F   UNL     1       6.466  -5.368  -0.234  0.00  0.00    -0.163 F 
ATOM     14  F   UNL     1       5.159  -3.637  -0.952  0.00  0.00    -0.163 F 
ATOM     15  F   UNL     1       6.268  -3.482   1.039  0.00  0.00    -0.163 F 
ENDBRANCH   8  12
BRANCH   2  16
ATOM     16  O   UNL     1      -0.470  -3.345   3.908  0.00  0.00    -0.506 OA
ATOM     17  H   UNL     1      -1.185  -3.072   3.316  0.00  0.00    +0.292 HD
ENDBRANCH   2  16
BRANCH   1  18
ATOM     18  C   UNL     1       1.754  -2.221   2.593  0.00  0.00    -0.036 C 
BRANCH  18  24
ATOM     19  C   UNL     1       0.585   1.842   0.127  0.00  0.00    +0.005 C 
ATOM     20  C   UNL     1       0.467   0.317   0.147  0.00  0.00    -0.031 C 
ATOM     21  C   UNL     1       1.084  -0.261  -1.130  0.00  0.00    -0.001 C 
ATOM     22  C   UNL     1       1.031  -1.790  -1.064  0.00  0.00    -0.018 C 
ATOM     23  C   UNL     1       1.756  -2.265   0.197  0.00  0.00    -0.078 C 
ATOM     24  N   UNL     1       1.103  -1.700   1.384  0.00  0.00    +0.383 N 
ATOM     25  C   UNL     1       1.212  -0.237   1.364  0.00  0.00    -0.075 C 
ATOM     26  H   UNL     1       0.129  -1.964   1.388  0.00  0.00    -0.081 HD
ENDBRANCH  18  24
ENDBRANCH   1  18
BRANCH   9  27
ATOM     27  O   UNL     1       5.227  -7.079   0.310  0.00  0.00    -0.448 OA
BRANCH  27  28
ATOM     28  C   UNL     1       4.851  -7.804  -0.776  0.00  0.00    +0.129 A 
ATOM     29  C   UNL     1       3.583  -7.641  -1.316  0.00  0.00    +0.046 A 
ATOM     30  C   UNL     1       3.204  -8.379  -2.420  0.00  0.00    +0.008 A 
ATOM     31  C   UNL     1       4.086  -9.280  -2.987  0.00  0.00    -0.042 A 
ATOM     32  C   UNL     1       5.350  -9.444  -2.452  0.00  0.00    +0.008 A 
ATOM     33  C   UNL     1       5.736  -8.705  -1.351  0.00  0.00    +0.046 A 
BRANCH  31  34
ATOM     34  C   UNL     1       3.669 -10.084  -4.192  0.00  0.00    -0.013 C 
ATOM     35  C   UNL     1       3.316  -9.137  -5.340  0.00  0.00    +0.015 C 
ATOM     36  C   UNL     1       4.820 -10.998  -4.619  0.00  0.00    +0.015 C 
ATOM     37  C   UNL     1       2.447 -10.935  -3.839  0.00  0.00    +0.015 C 
ENDBRANCH  31  34
ENDBRANCH  27  28
ENDBRANCH   9  27
TORSDOF 7
