REMARK  Name = ZINC34782227
REMARK  7 active torsions:
REMARK  status: ('A' for Active; 'I' for Inactive)
REMARK    1  A    between atoms: C_1  and  C_2
REMARK    2  A    between atoms: C_6  and  N_19
REMARK    3  A    between atoms: C_7  and  C_11
REMARK    4  A    between atoms: C_11  and  C_13
REMARK    5  A    between atoms: C_23  and  C_41
REMARK    6  A    between atoms: C_33  and  C_40
REMARK    7  A    between atoms: C_36  and  O_39
REMARK                            x       y       z     vdW  Elec       q    Type
REMARK                         _______ _______ _______ _____ _____    ______ ____
ROOT
ATOM      1  C   UNL     1      -1.044   1.490  -1.935  0.00  0.00    +0.063 C 
ATOM      2  C   UNL     1      -0.660   0.063  -1.640  0.00  0.00    +0.018 A 
ATOM      3  C   UNL     1      -0.384  -0.818  -2.680  0.00  0.00    -0.018 A 
ATOM      4  C   UNL     1      -0.021  -2.144  -2.455  0.00  0.00    -0.030 A 
ATOM      5  C   UNL     1       0.060  -2.594  -1.121  0.00  0.00    +0.030 A 
ATOM      6  C   UNL     1       0.406  -3.897  -0.620  0.00  0.00    +0.052 A 
ATOM      7  C   UNL     1       0.411  -4.085   0.754  0.00  0.00    +0.083 A 
ATOM      8  S   UNL     1      -0.057  -2.486   1.395  0.00  0.00    -0.065 S 
ATOM      9  C   UNL     1      -0.246  -1.612  -0.129  0.00  0.00    +0.088 A 
ATOM     10  N   UNL     1      -0.576  -0.363  -0.380  0.00  0.00    -0.352 N 
ATOM     11  C   UNL     1       0.223  -2.850  -3.749  0.00  0.00    +0.041 C 
ATOM     12  C   UNL     1       0.389  -1.707  -4.792  0.00  0.00    +0.007 C 
ATOM     13  C   UNL     1      -0.412  -0.578  -4.160  0.00  0.00    -0.002 C 
ATOM     14  C   UNL     1       0.011   0.817  -4.536  0.00  0.00    +0.012 C 
ATOM     15  C   UNL     1       1.525   0.985  -4.486  0.00  0.00    +0.005 C 
ATOM     16  C   UNL     1       2.166  -0.022  -5.448  0.00  0.00    +0.003 C 
ATOM     17  C   UNL     1       1.873  -1.452  -4.979  0.00  0.00    +0.001 C 
ATOM     18  C   UNL     1       2.418  -2.447  -6.014  0.00  0.00    +0.031 C 
ATOM     19  C   UNL     1       3.860  -2.151  -6.294  0.00  0.00    -0.027 C 
ATOM     20  C   UNL     1       4.414  -1.003  -6.073  0.00  0.00    -0.065 C 
ATOM     21  C   UNL     1       3.669   0.220  -5.481  0.00  0.00    -0.008 C 
ATOM     22  C   UNL     1       4.204   0.556  -4.091  0.00  0.00    +0.014 C 
ATOM     23  C   UNL     1       5.666   0.127  -3.975  0.00  0.00    +0.032 C 
ATOM     24  C   UNL     1       6.398   0.299  -5.305  0.00  0.00    +0.119 C 
ATOM     25  C   UNL     1       5.894  -0.811  -6.365  0.00  0.00    +0.062 C 
ATOM     26  C   UNL     1       3.942   1.422  -6.388  0.00  0.00    +0.016 C 
ATOM     27  C   UNL     1      -1.863  -0.742  -4.616  0.00  0.00    +0.016 C 
ATOM     28  H   UNL     1      -0.763   0.245   0.351  0.00  0.00    +0.166 HD
ENDROOT
BRANCH   6  29
ATOM     29  N   UNL     1       0.725  -4.932  -1.483  0.00  0.00    -0.356 N 
ATOM     30  H   UNL     1       0.716  -4.785  -2.442  0.00  0.00    +0.142 HD
ATOM     31  H   UNL     1       0.957  -5.805  -1.129  0.00  0.00    +0.142 HD
ENDBRANCH   6  29
BRANCH   7  32
ATOM     32  C   UNL     1       0.715  -5.263   1.476  0.00  0.00    +0.202 C 
ATOM     33  O   UNL     1       1.134  -6.245   0.890  0.00  0.00    -0.286 OA
BRANCH  32  34
ATOM     34  C   UNL     1       0.523  -5.302   2.942  0.00  0.00    +0.023 A 
ATOM     35  C   UNL     1      -0.395  -4.445   3.552  0.00  0.00    +0.012 A 
ATOM     36  C   UNL     1      -0.569  -4.487   4.920  0.00  0.00    +0.001 A 
ATOM     37  C   UNL     1       0.163  -5.375   5.687  0.00  0.00    +0.000 A 
ATOM     38  C   UNL     1       1.075  -6.227   5.089  0.00  0.00    +0.001 A 
ATOM     39  C   UNL     1       1.254  -6.200   3.721  0.00  0.00    +0.012 A 
ENDBRANCH  32  34
ENDBRANCH   7  32
BRANCH  24  40
ATOM     40  O   UNL     1       6.141   1.605  -5.824  0.00  0.00    -0.391 OA
ATOM     41  H   UNL     1       6.559   1.778  -6.678  0.00  0.00    +0.210 HD
ENDBRANCH  24  40
TORSDOF 4
