REMARK  Name = ZINC00608972
REMARK  7 active torsions:
REMARK  status: ('A' for Active; 'I' for Inactive)
REMARK    1  A    between atoms: C_1  and  C_2
REMARK    2  A    between atoms: C_2  and  C_3
REMARK    3  A    between atoms: C_7  and  C_14
REMARK    4  A    between atoms: C_16  and  C_25
REMARK    5  A    between atoms: C_16  and  C_26
REMARK    6  A    between atoms: C_19  and  C_23
REMARK    7  A    between atoms: C_19  and  C_24
REMARK                            x       y       z     vdW  Elec       q    Type
REMARK                         _______ _______ _______ _____ _____    ______ ____
ROOT
ATOM      1  C   UNL     1      -2.900  -0.898  -0.115  0.00  0.00    +0.232 C 
ATOM      2  O   UNL     1      -3.118   0.037  -0.855  0.00  0.00    -0.272 OA
ATOM      3  N   UNL     1      -2.293  -2.004  -0.588  0.00  0.00    -0.287 N 
ATOM      4  C   UNL     1      -2.000  -3.125   0.153  0.00  0.00    +0.102 A 
ATOM      5  C   UNL     1      -1.399  -4.039  -0.621  0.00  0.00    +0.019 A 
ATOM      6  C   UNL     1      -1.294  -3.466  -1.967  0.00  0.00    +0.007 A 
ATOM      7  C   UNL     1      -1.876  -2.188  -1.895  0.00  0.00    +0.057 A 
ATOM      8  C   UNL     1      -1.929  -1.395  -3.033  0.00  0.00    +0.027 A 
ATOM      9  C   UNL     1      -1.416  -1.865  -4.224  0.00  0.00    +0.002 A 
ATOM     10  C   UNL     1      -0.845  -3.128  -4.298  0.00  0.00    +0.001 A 
ATOM     11  C   UNL     1      -0.776  -3.927  -3.178  0.00  0.00    +0.010 A 
ENDROOT
BRANCH   5  12
ATOM     12  C   UNL     1      -0.919  -5.401  -0.189  0.00  0.00    +0.221 C 
ATOM     13  C   UNL     1       0.568  -5.326   0.179  0.00  0.00    +0.066 C 
ATOM     14  C   UNL     1       0.982  -6.659   0.768  0.00  0.00    +0.159 C 
ATOM     15  O   UNL     1       1.953  -7.252   0.362  0.00  0.00    -0.296 OA
ATOM     16  C   UNL     1       0.126  -7.220   1.888  0.00  0.00    +0.121 C 
ATOM     17  C   UNL     1      -1.322  -7.022   1.482  0.00  0.00    +0.321 C 
ATOM     18  O   UNL     1      -2.137  -7.901   1.630  0.00  0.00    -0.250 OA
ATOM     19  O   UNL     1      -1.669  -5.832   0.951  0.00  0.00    -0.455 OA
ATOM     20  C   UNL     1       0.417  -8.711   2.072  0.00  0.00    +0.031 C 
ATOM     21  C   UNL     1       0.411  -6.467   3.189  0.00  0.00    +0.031 C 
ATOM     22  C   UNL     1       1.395  -5.037  -1.076  0.00  0.00    +0.023 C 
ATOM     23  C   UNL     1       0.789  -4.217   1.209  0.00  0.00    +0.023 C 
ENDBRANCH   5  12
BRANCH   1  25
ATOM     24  C   UNL     1      -3.969   0.529   1.608  0.00  0.00    +0.014 C 
ATOM     25  C   UNL     1      -3.306  -0.823   1.334  0.00  0.00    +0.096 C 
ENDBRANCH   1  25
TORSDOF 2
