REMARK  Name = ZINC67034989
REMARK  5 active torsions:
REMARK  status: ('A' for Active; 'I' for Inactive)
REMARK    1  A    between atoms: C_3  and  N_12
REMARK    2  A    between atoms: N_15  and  N_16
REMARK    3  A    between atoms: C_17  and  C_19
REMARK    4  A    between atoms: C_19  and  C_20
REMARK    5  A    between atoms: C_20  and  C_21
REMARK                            x       y       z     vdW  Elec       q    Type
REMARK                         _______ _______ _______ _____ _____    ______ ____
ROOT
ATOM      1  N   UNL     1       3.604   2.007  -0.022  0.00  0.00    -0.265 N 
ATOM      2  C   UNL     1       3.651   3.351  -0.117  0.00  0.00    +0.320 C 
ATOM      3  O   UNL     1       2.622   3.998  -0.104  0.00  0.00    -0.251 OA
ATOM      4  N   UNL     1       4.840   3.977  -0.227  0.00  0.00    -0.218 N 
ATOM      5  H   UNL     1       4.427   1.496   0.033  0.00  0.00    +0.157 HD
ATOM      6  H   UNL     1       4.873   4.944  -0.296  0.00  0.00    +0.174 HD
ENDROOT
BRANCH   1   9
ATOM      7  C   UNL     1       0.064   1.245   0.607  0.00  0.00    +0.022 A 
ATOM      8  C   UNL     1       1.268   1.935   0.613  0.00  0.00    +0.028 A 
ATOM      9  C   UNL     1       2.368   1.349  -0.002  0.00  0.00    +0.079 A 
ATOM     10  C   UNL     1       2.223   0.097  -0.599  0.00  0.00    +0.175 A 
ATOM     11  N   UNL     1       1.055  -0.524  -0.581  0.00  0.00    -0.235 NA
ATOM     12  C   UNL     1      -0.005   0.008  -0.004  0.00  0.00    +0.113 A 
ATOM     13  N   UNL     1       3.320  -0.507  -1.222  0.00  0.00    -0.220 N 
ATOM     14  C   UNL     1       3.495  -1.839  -1.420  0.00  0.00    +0.116 A 
ATOM     15  C   UNL     1       4.678  -2.007  -2.054  0.00  0.00    +0.041 A 
ATOM     16  C   UNL     1       5.246  -0.743  -2.250  0.00  0.00    +0.135 A 
ATOM     17  N   UNL     1       4.432   0.155  -1.758  0.00  0.00    -0.173 NA
ENDBRANCH   1   9
BRANCH   4  18
ATOM     18  N   UNL     1       6.026   3.232  -0.242  0.00  0.00    -0.233 N 
ATOM     19  C   UNL     1       7.214   3.859  -0.352  0.00  0.00    +0.229 C 
ATOM     20  O   UNL     1       7.256   5.068  -0.438  0.00  0.00    -0.274 OA
ATOM     21  H   UNL     1       5.992   2.265  -0.174  0.00  0.00    +0.173 HD
BRANCH  19  22
ATOM     22  C   UNL     1       8.490   3.057  -0.369  0.00  0.00    +0.097 C 
BRANCH  22  23
ATOM     23  C   UNL     1       9.685   4.003  -0.501  0.00  0.00    +0.013 C 
BRANCH  23  24
ATOM     24  C   UNL     1      10.981   3.189  -0.518  0.00  0.00    -0.011 C 
ATOM     25  C   UNL     1      11.163   2.493   0.833  0.00  0.00    +0.003 C 
ATOM     26  C   UNL     1      12.458   1.679   0.816  0.00  0.00    +0.000 C 
ATOM     27  C   UNL     1      13.643   2.612   0.559  0.00  0.00    +0.000 C 
ATOM     28  C   UNL     1      13.461   3.308  -0.791  0.00  0.00    +0.000 C 
ATOM     29  C   UNL     1      12.166   4.122  -0.775  0.00  0.00    +0.003 C 
ENDBRANCH  23  24
ENDBRANCH  22  23
ENDBRANCH  19  22
ENDBRANCH   4  18
TORSDOF 5
