REMARK  Name = ZINC05222955
REMARK  6 active torsions:
REMARK  status: ('A' for Active; 'I' for Inactive)
REMARK    1  A    between atoms: C_1  and  C_2
REMARK    2  A    between atoms: C_9  and  N_14
REMARK    3  A    between atoms: C_10  and  C_11
REMARK    4  A    between atoms: C_15  and  C_17
REMARK    5  A    between atoms: C_22  and  S_23
REMARK    6  A    between atoms: S_23  and  C_26
REMARK                            x       y       z     vdW  Elec       q    Type
REMARK                         _______ _______ _______ _____ _____    ______ ____
ROOT
ATOM      1  C   UNL     1      -4.237  -2.366  -4.655  0.00  0.00    +0.008 C 
ATOM      2  C   UNL     1      -3.567  -1.650  -3.482  0.00  0.00    -0.009 C 
ATOM      3  C   UNL     1      -2.045  -1.717  -3.637  0.00  0.00    +0.008 C 
ATOM      4  C   UNL     1      -1.376  -0.799  -2.613  0.00  0.00    +0.037 C 
ATOM      5  C   UNL     1      -1.920  -1.128  -1.228  0.00  0.00    -0.023 A 
ATOM      6  C   UNL     1      -3.070  -1.821  -1.079  0.00  0.00    -0.004 A 
ATOM      7  S   UNL     1      -3.285  -1.968   0.672  0.00  0.00    -0.077 S 
ATOM      8  C   UNL     1      -1.865  -1.129   1.201  0.00  0.00    +0.085 A 
ATOM      9  C   UNL     1      -1.258  -0.754   0.010  0.00  0.00    +0.068 A 
ATOM     10  C   UNL     1      -3.961  -2.338  -2.166  0.00  0.00    +0.046 C 
ENDROOT
BRANCH   9  11
ATOM     11  C   UNL     1       0.002  -0.004   0.002  0.00  0.00    +0.244 C 
ATOM     12  O   UNL     1       1.064  -0.598  -0.011  0.00  0.00    -0.270 OA
ATOM     13  N   UNL     1      -0.016   1.344   0.009  0.00  0.00    -0.325 N 
ATOM     14  H   UNL     1       0.817   1.840   0.004  0.00  0.00    +0.145 HD
ATOM     15  H   UNL     1      -0.863   1.817   0.016  0.00  0.00    +0.145 HD
ENDBRANCH   9  11
BRANCH   8  16
ATOM     16  N   UNL     1      -1.439  -0.889   2.497  0.00  0.00    -0.275 N 
ATOM     17  C   UNL     1      -2.168  -1.334   3.539  0.00  0.00    +0.250 C 
ATOM     18  O   UNL     1      -3.200  -1.946   3.342  0.00  0.00    -0.270 OA
ATOM     19  H   UNL     1      -0.615  -0.401   2.654  0.00  0.00    +0.156 HD
BRANCH  17  20
ATOM     20  C   UNL     1      -1.713  -1.079   4.922  0.00  0.00    +0.062 A 
ATOM     21  C   UNL     1      -0.526  -0.382   5.152  0.00  0.00    +0.015 A 
ATOM     22  C   UNL     1      -0.109  -0.143   6.445  0.00  0.00    +0.001 A 
ATOM     23  C   UNL     1      -0.861  -0.602   7.513  0.00  0.00    +0.002 A 
ATOM     24  C   UNL     1      -2.036  -1.297   7.292  0.00  0.00    +0.028 A 
ATOM     25  C   UNL     1      -2.466  -1.539   6.004  0.00  0.00    +0.100 A 
BRANCH  25  26
ATOM     26  S   UNL     1      -3.963  -2.426   5.724  0.00  0.00    -0.005 S 
ATOM     27  O   UNL     1      -3.611  -3.450   4.804  0.00  0.00    -0.170 OA
ATOM     28  O   UNL     1      -4.439  -2.752   7.023  0.00  0.00    -0.170 OA
ATOM     29  C   UNL     1      -5.073  -1.229   4.934  0.00  0.00    +0.200 C 
ENDBRANCH  25  26
ENDBRANCH  17  20
ENDBRANCH   8  16
TORSDOF 4
