REMARK  Name = ZINC23763310
REMARK  7 active torsions:
REMARK  status: ('A' for Active; 'I' for Inactive)
REMARK    1  A    between atoms: C_1  and  C_2
REMARK    2  A    between atoms: C_2  and  C_25
REMARK    3  A    between atoms: C_3  and  C_4
REMARK    4  A    between atoms: C_6  and  C_11
REMARK    5  A    between atoms: C_8  and  C_9
REMARK    6  A    between atoms: C_8  and  C_10
REMARK    7  A    between atoms: C_16  and  C_19
REMARK                            x       y       z     vdW  Elec       q    Type
REMARK                         _______ _______ _______ _____ _____    ______ ____
ROOT
ATOM      1  C   UNL     1      -0.916  -0.051   4.831  0.00  0.00    +0.223 C 
ATOM      2  O   UNL     1      -1.269   1.105   4.725  0.00  0.00    -0.275 OA
ATOM      3  N   UNL     1      -1.209  -0.745   5.948  0.00  0.00    -0.264 N 
ATOM      4  C   UNL     1      -1.914  -0.137   6.979  0.00  0.00    +0.165 A 
ATOM      5  N   UNL     1      -2.290  -0.637   8.141  0.00  0.00    -0.223 NA
ATOM      6  C   UNL     1      -2.967   0.096   9.020  0.00  0.00    +0.096 A 
ATOM      7  C   UNL     1      -3.279   1.392   8.710  0.00  0.00    +0.078 A 
ATOM      8  S   UNL     1      -2.546   1.531   7.085  0.00  0.00    -0.060 S 
ATOM      9  H   UNL     1      -0.926  -1.669   6.032  0.00  0.00    +0.157 HD
ENDROOT
BRANCH   6  10
ATOM     10  C   UNL     1      -3.380  -0.482  10.317  0.00  0.00    +0.066 A 
ATOM     11  C   UNL     1      -3.128  -1.750  10.746  0.00  0.00    +0.029 A 
ATOM     12  C   UNL     1      -3.693  -1.881  12.026  0.00  0.00    +0.019 A 
ATOM     13  C   UNL     1      -4.269  -0.702  12.342  0.00  0.00    +0.083 A 
ATOM     14  N   UNL     1      -4.079   0.165  11.304  0.00  0.00    -0.359 N 
ATOM     15  H   UNL     1      -4.388   1.083  11.269  0.00  0.00    +0.165 HD
ENDBRANCH   6  10
BRANCH   1  17
ATOM     16  C   UNL     1       0.077   0.103   2.437  0.00  0.00    +0.030 C 
ATOM     17  C   UNL     1      -0.151  -0.710   3.712  0.00  0.00    +0.089 C 
ATOM     18  C   UNL     1       1.243  -0.164   3.391  0.00  0.00    -0.016 C 
ATOM     19  C   UNL     1       1.752   1.010   4.230  0.00  0.00    +0.012 C 
ATOM     20  C   UNL     1       2.308  -1.166   2.942  0.00  0.00    +0.012 C 
BRANCH  16  23
ATOM     21  C   UNL     1       0.116   1.530   0.008  0.00  0.00    +0.038 C 
ATOM     22  C   UNL     1       0.084   0.023  -0.004  0.00  0.00    -0.079 C 
ATOM     23  C   UNL     1       0.066  -0.640   1.126  0.00  0.00    -0.023 C 
ATOM     24  C   UNL     1       0.073  -0.721  -1.314  0.00  0.00    +0.038 C 
ENDBRANCH  16  23
ENDBRANCH   1  17
TORSDOF 3
