REMARK  Name = ZINC08426006
REMARK  10 active torsions:
REMARK  status: ('A' for Active; 'I' for Inactive)
REMARK    1  A    between atoms: C_1  and  C_2
REMARK    2  A    between atoms: C_2  and  O_3
REMARK    3  A    between atoms: O_3  and  C_4
REMARK    4  A    between atoms: C_6  and  C_15
REMARK    5  A    between atoms: C_9  and  O_10
REMARK    6  A    between atoms: O_10  and  C_11
REMARK    7  A    between atoms: C_11  and  C_12
REMARK    8  A    between atoms: C_18  and  C_29
REMARK    9  A    between atoms: C_24  and  N_28
REMARK   10  A    between atoms: C_25  and  C_26
REMARK                            x       y       z     vdW  Elec       q    Type
REMARK                         _______ _______ _______ _____ _____    ______ ____
ROOT
ATOM      1  C   UNL     1      -3.715   1.540   0.023  0.00  0.00    +0.101 C 
ATOM      2  C   UNL     1      -3.553   3.007   0.329  0.00  0.00    +0.049 A 
ATOM      3  C   UNL     1      -4.518   3.948   0.661  0.00  0.00    +0.068 A 
ATOM      4  N   UNL     1      -3.918   5.101   0.840  0.00  0.00    -0.176 NA
ATOM      5  N   UNL     1      -2.542   4.923   0.624  0.00  0.00    -0.246 N 
ATOM      6  H   UNL     1      -1.839   5.632   0.691  0.00  0.00    +0.192 HD
ATOM      7  C   UNL     1      -2.337   3.634   0.313  0.00  0.00    +0.222 A 
ATOM      8  O   UNL     1      -1.182   2.984   0.029  0.00  0.00    -0.423 OA
ATOM      9  C   UNL     1      -1.209   1.636   0.017  0.00  0.00    +0.200 C 
ATOM     10  C   UNL     1      -2.346   0.906   0.018  0.00  0.00    +0.098 C 
ATOM     11  C   UNL     1      -5.996   3.690   0.793  0.00  0.00    +0.068 C 
ENDROOT
BRANCH   1  14
ATOM     12  C   UNL     1      -6.147   0.529  -2.685  0.00  0.00    +0.163 A 
ATOM     13  C   UNL     1      -5.551   0.682  -1.443  0.00  0.00    +0.054 A 
ATOM     14  C   UNL     1      -4.359   1.371  -1.329  0.00  0.00    -0.030 A 
ATOM     15  C   UNL     1      -3.752   1.900  -2.453  0.00  0.00    +0.022 A 
ATOM     16  C   UNL     1      -4.339   1.747  -3.696  0.00  0.00    +0.059 A 
ATOM     17  C   UNL     1      -5.537   1.062  -3.817  0.00  0.00    +0.176 A 
ATOM     18  I   UNL     1      -3.416   2.552  -5.396  0.00  0.00    -0.040 I 
BRANCH  12  19
ATOM     19  O   UNL     1      -7.323  -0.145  -2.798  0.00  0.00    -0.489 OA
BRANCH  19  21
ATOM     20  C   UNL     1      -9.202  -1.385  -1.919  0.00  0.00    +0.048 C 
ATOM     21  C   UNL     1      -7.892  -0.664  -1.595  0.00  0.00    +0.226 C 
ENDBRANCH  19  21
ENDBRANCH  12  19
BRANCH  17  22
ATOM     22  O   UNL     1      -6.116   0.909  -5.038  0.00  0.00    -0.475 OA
BRANCH  22  23
ATOM     23  C   UNL     1      -5.752  -0.251  -5.788  0.00  0.00    +0.317 C 
BRANCH  23  24
ATOM     24  C   UNL     1      -6.470  -0.250  -7.073  0.00  0.00    -0.065 C 
ATOM     25  C   UNL     1      -7.042  -0.248  -8.098  0.00  0.00    +0.007 C 
ENDBRANCH  23  24
ENDBRANCH  22  23
ENDBRANCH  17  22
ENDBRANCH   1  14
BRANCH   9  26
ATOM     26  N   UNL     1      -0.011   0.966   0.007  0.00  0.00    -0.328 N 
ATOM     27  H   UNL     1       0.002  -0.004   0.002  0.00  0.00    +0.145 HD
ATOM     28  H   UNL     1       0.822   1.462   0.002  0.00  0.00    +0.145 HD
ENDBRANCH   9  26
BRANCH  10  29
ATOM     29  C   UNL     1      -2.249  -0.523   0.014  0.00  0.00    +0.101 C 
ATOM     30  N   UNL     1      -2.171  -1.656   0.011  0.00  0.00    -0.191 NA
ENDBRANCH  10  29
TORSDOF 8
