REMARK  Name = ZINC43722104
REMARK  11 active torsions:
REMARK  status: ('A' for Active; 'I' for Inactive)
REMARK    1  A    between atoms: C_1  and  C_2
REMARK    2  A    between atoms: C_2  and  O_4
REMARK    3  A    between atoms: O_4  and  C_5
REMARK    4  A    between atoms: C_10  and  C_41
REMARK    5  A    between atoms: C_13  and  C_30
REMARK    6  A    between atoms: C_19  and  C_25
REMARK    7  A    between atoms: C_21  and  C_24
REMARK    8  A    between atoms: C_31  and  O_40
REMARK    9  A    between atoms: C_34  and  O_39
REMARK   10  A    between atoms: C_36  and  C_37
REMARK   11  A    between atoms: C_36  and  C_38
REMARK                            x       y       z     vdW  Elec       q    Type
REMARK                         _______ _______ _______ _____ _____    ______ ____
ROOT
ATOM      1  C   UNL     1      -1.552  -2.596   0.363  0.00  0.00    +0.187 C 
ATOM      2  C   UNL     1      -1.182  -2.573  -1.117  0.00  0.00    +0.050 C 
ATOM      3  C   UNL     1      -2.374  -2.087  -1.954  0.00  0.00    +0.009 C 
ATOM      4  C   UNL     1      -3.542  -3.055  -1.777  0.00  0.00    +0.001 C 
ATOM      5  C   UNL     1      -3.873  -3.262  -0.299  0.00  0.00    +0.011 C 
ATOM      6  C   UNL     1      -2.693  -3.577   0.603  0.00  0.00    +0.030 C 
ATOM      7  C   UNL     1      -2.257  -4.998   0.367  0.00  0.00    -0.043 C 
ATOM      8  C   UNL     1      -0.981  -5.256   0.083  0.00  0.00    +0.092 C 
ATOM      9  C   UNL     1      -0.544  -6.636  -0.196  0.00  0.00    +0.333 C 
ATOM     10  O   UNL     1       0.613  -6.873  -0.511  0.00  0.00    -0.246 OA
ATOM     11  O   UNL     1      -1.454  -7.631  -0.097  0.00  0.00    -0.453 OA
ATOM     12  C   UNL     1      -2.806  -7.295  -0.405  0.00  0.00    +0.220 C 
ATOM     13  C   UNL     1      -3.260  -6.109   0.458  0.00  0.00    +0.031 C 
ATOM     14  C   UNL     1      -4.662  -5.705   0.063  0.00  0.00    +0.015 C 
ATOM     15  C   UNL     1      -5.002  -4.242  -0.056  0.00  0.00    +0.006 C 
ATOM     16  C   UNL     1      -3.289  -6.631   1.905  0.00  0.00    +0.020 C 
ATOM     17  C   UNL     1      -3.127  -3.403   2.070  0.00  0.00    +0.020 C 
ATOM     18  C   UNL     1      -3.291  -4.379  -2.484  0.00  0.00    +0.123 C 
ATOM     19  C   UNL     1      -2.823  -4.189  -3.926  0.00  0.00    +0.063 C 
ATOM     20  C   UNL     1      -1.594  -3.295  -3.999  0.00  0.00    +0.123 C 
ATOM     21  C   UNL     1      -1.901  -1.925  -3.394  0.00  0.00    -0.005 C 
ATOM     22  C   UNL     1      -2.890  -1.166  -4.279  0.00  0.00    +0.014 C 
ATOM     23  C   UNL     1      -0.595  -1.101  -3.430  0.00  0.00    +0.014 C 
ATOM     24  C   UNL     1      -4.820  -2.425  -2.382  0.00  0.00    +0.014 C 
ENDROOT
BRANCH  12  25
ATOM     25  C   UNL     1      -3.681  -8.483  -0.098  0.00  0.00    +0.031 A 
ATOM     26  C   UNL     1      -4.772  -8.947  -0.869  0.00  0.00    +0.048 A 
ATOM     27  C   UNL     1      -5.266 -10.026  -0.235  0.00  0.00    +0.195 A 
ATOM     28  O   UNL     1      -4.536 -10.239   0.872  0.00  0.00    -0.471 OA
ATOM     29  C   UNL     1      -3.571  -9.310   0.958  0.00  0.00    +0.202 A 
ENDBRANCH  12  25
BRANCH  20  30
ATOM     30  O   UNL     1      -1.201  -3.129  -5.365  0.00  0.00    -0.391 OA
ATOM     31  H   UNL     1      -0.978  -3.956  -5.814  0.00  0.00    +0.210 HD
ENDBRANCH  20  30
BRANCH  18  32
ATOM     32  O   UNL     1      -4.529  -5.110  -2.562  0.00  0.00    -0.391 OA
ATOM     33  H   UNL     1      -4.451  -5.968  -3.000  0.00  0.00    +0.210 HD
ENDBRANCH  18  32
BRANCH   1  34
ATOM     34  O   UNL     1      -1.956  -1.288   0.776  0.00  0.00    -0.461 OA
BRANCH  34  36
ATOM     35  C   UNL     1      -1.347   0.925   1.687  0.00  0.00    +0.136 C 
ATOM     36  C   UNL     1      -0.996  -0.469   1.234  0.00  0.00    +0.304 C 
ATOM     37  O   UNL     1       0.149  -0.850   1.283  0.00  0.00    -0.251 OA
ENDBRANCH  34  36
ENDBRANCH   1  34
TORSDOF 5
