REMARK  Name = ZINC12246358
REMARK  7 active torsions:
REMARK  status: ('A' for Active; 'I' for Inactive)
REMARK    1  A    between atoms: C_9  and  C_12
REMARK    2  A    between atoms: C_12  and  C_13
REMARK    3  A    between atoms: C_13  and  N_14
REMARK    4  A    between atoms: C_15  and  C_17
REMARK    5  A    between atoms: N_19  and  C_34
REMARK    6  A    between atoms: C_21  and  C_24
REMARK    7  A    between atoms: N_26  and  C_27
REMARK                            x       y       z     vdW  Elec       q    Type
REMARK                         _______ _______ _______ _____ _____    ______ ____
ROOT
ATOM      1  C   UNL     1       0.037   5.240   1.318  0.00  0.00    +0.100 A 
ATOM      2  C   UNL     1      -0.283   4.029   0.744  0.00  0.00    +0.102 A 
ATOM      3  N   UNL     1      -0.816   3.030   1.468  0.00  0.00    -0.349 N 
ATOM      4  C   UNL     1      -1.064   3.124   2.784  0.00  0.00    +0.102 A 
ATOM      5  C   UNL     1      -0.788   4.277   3.487  0.00  0.00    +0.100 A 
ATOM      6  C   UNL     1      -0.207   5.417   2.759  0.00  0.00    +0.206 A 
ATOM      7  O   UNL     1       0.060   6.463   3.325  0.00  0.00    -0.286 OA
ENDROOT
BRANCH   1   9
ATOM      8  N   UNL     1       0.833   6.148  -0.807  0.00  0.00    -0.311 N 
ATOM      9  C   UNL     1       0.616   6.328   0.511  0.00  0.00    +0.249 C 
ATOM     10  O   UNL     1       0.897   7.389   1.034  0.00  0.00    -0.270 OA
ATOM     11  H   UNL     1       0.608   5.301  -1.224  0.00  0.00    +0.149 HD
BRANCH   8  12
ATOM     12  C   UNL     1       1.408   7.230  -1.610  0.00  0.00    +0.112 C 
BRANCH  12  13
ATOM     13  C   UNL     1       1.549   6.768  -3.062  0.00  0.00    +0.093 C 
BRANCH  13  22
ATOM     14  C   UNL     1       4.359  10.813  -6.538  0.00  0.00    +0.022 A 
ATOM     15  C   UNL     1       4.430   9.502  -6.117  0.00  0.00    +0.029 A 
ATOM     16  C   UNL     1       3.470   9.003  -5.248  0.00  0.00    +0.066 A 
ATOM     17  C   UNL     1       2.430   9.834  -4.799  0.00  0.00    +0.090 A 
ATOM     18  C   UNL     1       2.372  11.160  -5.235  0.00  0.00    +0.050 A 
ATOM     19  C   UNL     1       3.332  11.638  -6.098  0.00  0.00    +0.043 A 
ATOM     20 CL   UNL     1       3.260  13.286  -6.640  0.00  0.00    -0.083 Cl
ATOM     21  N   UNL     1       1.652   9.084  -3.976  0.00  0.00    -0.232 NA
ATOM     22  C   UNL     1       2.141   7.882  -3.887  0.00  0.00    +0.110 A 
ATOM     23  N   UNL     1       3.260   7.774  -4.653  0.00  0.00    -0.342 N 
ATOM     24  H   UNL     1       3.825   6.957  -4.765  0.00  0.00    +0.167 HD
ENDBRANCH  13  22
ENDBRANCH  12  13
ENDBRANCH   8  12
ENDBRANCH   1   9
BRANCH   5  25
ATOM     25  C   UNL     1      -1.066   4.365   4.931  0.00  0.00    +0.249 C 
ATOM     26  O   UNL     1      -0.815   5.390   5.537  0.00  0.00    -0.270 OA
ATOM     27  N   UNL     1      -1.597   3.311   5.581  0.00  0.00    -0.308 N 
ATOM     28  H   UNL     1      -1.796   2.494   5.098  0.00  0.00    +0.149 HD
BRANCH  27  29
ATOM     29  C   UNL     1      -1.873   3.399   7.017  0.00  0.00    +0.073 C 
ATOM     30  C   UNL     1      -0.578   3.087   7.795  0.00  0.00    +0.022 C 
ATOM     31  C   UNL     1      -0.704   3.660   9.182  0.00  0.00    +0.002 C 
ATOM     32  C   UNL     1      -1.223   2.627  10.200  0.00  0.00    +0.000 C 
ATOM     33  C   UNL     1      -2.364   1.757   9.639  0.00  0.00    +0.000 C 
ATOM     34  C   UNL     1      -3.354   2.555   8.834  0.00  0.00    +0.002 C 
ATOM     35  C   UNL     1      -2.951   2.479   7.347  0.00  0.00    +0.022 C 
ENDBRANCH  27  29
ENDBRANCH   5  25
BRANCH   3  36
ATOM     36  C   UNL     1      -1.136   1.773   0.788  0.00  0.00    +0.087 C 
ATOM     37  C   UNL     1      -2.550   1.216   0.961  0.00  0.00    +0.027 C 
ATOM     38  C   UNL     1      -1.371   0.537   1.661  0.00  0.00    +0.027 C 
ENDBRANCH   3  36
TORSDOF 7
