REMARK  Name = ZINC58891453
REMARK  13 active torsions:
REMARK  status: ('A' for Active; 'I' for Inactive)
REMARK    1  A    between atoms: C_1  and  C_2
REMARK    2  A    between atoms: C_2  and  O_3
REMARK    3  A    between atoms: O_3  and  C_4
REMARK    4  A    between atoms: C_6  and  C_23
REMARK    5  A    between atoms: C_9  and  O_10
REMARK    6  A    between atoms: O_10  and  C_11
REMARK    7  A    between atoms: C_11  and  C_12
REMARK    8  A    between atoms: N_24  and  N_25
REMARK    9  A    between atoms: C_26  and  C_28
REMARK   10  A    between atoms: C_28  and  C_29
REMARK   11  A    between atoms: C_29  and  C_30
REMARK   12  A    between atoms: C_30  and  C_32
REMARK   13  A    between atoms: C_30  and  O_38
REMARK                            x       y       z     vdW  Elec       q    Type
REMARK                         _______ _______ _______ _____ _____    ______ ____
ROOT
ATOM      1  C   UNL     1       0.209  -1.830  -1.590  0.00  0.00    +0.164 A 
ATOM      2  C   UNL     1       0.122  -2.687  -0.509  0.00  0.00    +0.059 A 
ATOM      3  C   UNL     1      -0.144  -4.043  -0.716  0.00  0.00    -0.000 A 
ATOM      4  C   UNL     1      -0.322  -4.526  -2.015  0.00  0.00    +0.033 A 
ATOM      5  C   UNL     1      -0.234  -3.664  -3.089  0.00  0.00    +0.087 A 
ATOM      6  C   UNL     1       0.026  -2.316  -2.882  0.00  0.00    +0.181 A 
ATOM      7 CL   UNL     1      -0.455  -4.266  -4.703  0.00  0.00    -0.080 Cl
ENDROOT
BRANCH   3   8
ATOM      8  C   UNL     1      -0.238  -4.962   0.433  0.00  0.00    +0.138 C 
ATOM      9  N   UNL     1      -0.196  -6.245   0.243  0.00  0.00    -0.188 NA
BRANCH   9  10
ATOM     10  N   UNL     1       0.453  -6.765  -0.885  0.00  0.00    -0.207 N 
ATOM     11  C   UNL     1       0.384  -8.084  -1.153  0.00  0.00    +0.232 C 
ATOM     12  O   UNL     1      -0.238  -8.821  -0.417  0.00  0.00    -0.274 OA
ATOM     13  H   UNL     1       0.950  -6.176  -1.473  0.00  0.00    +0.177 HD
BRANCH  11  14
ATOM     14  C   UNL     1       1.081  -8.644  -2.366  0.00  0.00    +0.100 C 
BRANCH  14  15
ATOM     15  C   UNL     1       0.848 -10.154  -2.437  0.00  0.00    +0.045 C 
BRANCH  15  16
ATOM     16  C   UNL     1       1.555 -10.722  -3.669  0.00  0.00    +0.145 C 
BRANCH  16  17
ATOM     17  C   UNL     1       1.429 -12.224  -3.673  0.00  0.00    -0.019 A 
ATOM     18  C   UNL     1       0.306 -12.822  -4.213  0.00  0.00    +0.006 A 
ATOM     19  C   UNL     1       0.190 -14.199  -4.217  0.00  0.00    +0.000 A 
ATOM     20  C   UNL     1       1.198 -14.979  -3.680  0.00  0.00    +0.000 A 
ATOM     21  C   UNL     1       2.322 -14.381  -3.141  0.00  0.00    +0.000 A 
ATOM     22  C   UNL     1       2.439 -13.004  -3.141  0.00  0.00    +0.006 A 
ENDBRANCH  16  17
BRANCH  16  23
ATOM     23  O   UNL     1       0.954 -10.191  -4.851  0.00  0.00    -0.387 OA
ATOM     24  H   UNL     1       0.014 -10.398  -4.941  0.00  0.00    +0.210 HD
ENDBRANCH  16  23
ENDBRANCH  15  16
ENDBRANCH  14  15
ENDBRANCH  11  14
ENDBRANCH   9  10
ENDBRANCH   3   8
BRANCH   1  25
ATOM     25  O   UNL     1       0.469  -0.509  -1.391  0.00  0.00    -0.489 OA
BRANCH  25  27
ATOM     26  C   UNL     1       0.926   1.425  -0.016  0.00  0.00    +0.048 C 
ATOM     27  C   UNL     1       0.646  -0.079  -0.040  0.00  0.00    +0.226 C 
ENDBRANCH  25  27
ENDBRANCH   1  25
BRANCH   6  28
ATOM     28  O   UNL     1       0.107  -1.470  -3.943  0.00  0.00    -0.482 OA
BRANCH  28  29
ATOM     29  C   UNL     1       1.394  -1.298  -4.539  0.00  0.00    +0.265 C 
BRANCH  29  30
ATOM     30  C   UNL     1       1.290  -0.333  -5.691  0.00  0.00    -0.003 A 
ATOM     31  C   UNL     1       0.090   0.227  -6.008  0.00  0.00    +0.007 A 
ATOM     32  C   UNL     1      -0.026   1.121  -7.070  0.00  0.00    +0.001 A 
ATOM     33  C   UNL     1       1.056   1.462  -7.821  0.00  0.00    +0.008 A 
ATOM     34  C   UNL     1       2.312   0.905  -7.524  0.00  0.00    -0.018 A 
ATOM     35  C   UNL     1       2.431  -0.001  -6.440  0.00  0.00    -0.011 A 
ATOM     36  C   UNL     1       3.688  -0.553  -6.140  0.00  0.00    +0.009 A 
ATOM     37  C   UNL     1       4.771  -0.208  -6.887  0.00  0.00    +0.001 A 
ATOM     38  C   UNL     1       4.655   0.687  -7.949  0.00  0.00    +0.001 A 
ATOM     39  C   UNL     1       3.452   1.232  -8.278  0.00  0.00    +0.008 A 
ENDBRANCH  29  30
ENDBRANCH  28  29
ENDBRANCH   6  28
TORSDOF 12
