REMARK  Name = ZINC33696545
REMARK  8 active torsions:
REMARK  status: ('A' for Active; 'I' for Inactive)
REMARK    1  A    between atoms: C_1  and  C_2
REMARK    2  A    between atoms: C_5  and  N_9
REMARK    3  A    between atoms: C_7  and  C_8
REMARK    4  A    between atoms: C_13  and  N_14
REMARK    5  A    between atoms: N_14  and  C_15
REMARK    6  A    between atoms: N_14  and  C_16
REMARK    7  A    between atoms: C_19  and  O_22
REMARK    8  A    between atoms: C_23  and  C_25
REMARK                            x       y       z     vdW  Elec       q    Type
REMARK                         _______ _______ _______ _____ _____    ______ ____
ROOT
ATOM      1  N   UNL     1      -1.317  -0.765  -0.880  0.00  0.00    -0.156 N 
ATOM      2  C   UNL     1      -2.570  -0.267  -0.860  0.00  0.00    +0.273 C 
ATOM      3  O   UNL     1      -2.939   0.808  -1.304  0.00  0.00    -0.268 OA
ATOM      4  C   UNL     1      -3.400  -1.281  -0.199  0.00  0.00    +0.075 C 
ATOM      5  C   UNL     1      -4.761  -1.224   0.052  0.00  0.00    +0.090 C 
ATOM      6  C   UNL     1      -2.471  -2.368   0.143  0.00  0.00    +0.070 C 
ATOM      7  N   UNL     1      -1.291  -2.019  -0.270  0.00  0.00    -0.176 NA
ATOM      8  C   UNL     1      -2.824  -3.653   0.846  0.00  0.00    +0.068 C 
ENDROOT
BRANCH   1  13
ATOM      9  C   UNL     1       3.194   1.868  -3.096  0.00  0.00    +0.044 C 
ATOM     10  C   UNL     1       1.996   1.169  -2.507  0.00  0.00    -0.047 A 
ATOM     11  C   UNL     1       0.754   1.775  -2.550  0.00  0.00    +0.005 A 
ATOM     12  C   UNL     1      -0.346   1.137  -2.011  0.00  0.00    +0.026 A 
ATOM     13  C   UNL     1      -0.204  -0.115  -1.427  0.00  0.00    +0.061 A 
ATOM     14  C   UNL     1       1.045  -0.721  -1.386  0.00  0.00    +0.029 A 
ATOM     15  C   UNL     1       2.141  -0.078  -1.927  0.00  0.00    -0.046 A 
ATOM     16  C   UNL     1       3.497  -0.735  -1.884  0.00  0.00    +0.044 C 
ENDBRANCH   1  13
BRANCH   5  17
ATOM     17  N   UNL     1      -5.379  -0.029   0.152  0.00  0.00    -0.309 N 
ATOM     18  C   UNL     1      -4.591   1.205   0.151  0.00  0.00    +0.135 C 
BRANCH  17  19
ATOM     19  C   UNL     1      -6.773   0.030   0.256  0.00  0.00    +0.034 A 
ATOM     20  C   UNL     1      -7.521  -1.140   0.251  0.00  0.00    +0.027 A 
ATOM     21  C   UNL     1      -8.896  -1.080   0.361  0.00  0.00    +0.047 A 
ATOM     22  C   UNL     1      -9.532   0.149   0.463  0.00  0.00    +0.117 A 
ATOM     23  C   UNL     1      -8.786   1.319   0.462  0.00  0.00    +0.047 A 
ATOM     24  C   UNL     1      -7.410   1.260   0.359  0.00  0.00    +0.027 A 
BRANCH  22  25
ATOM     25  O   UNL     1     -10.886   0.207   0.565  0.00  0.00    -0.507 OA
ATOM     26  H   UNL     1     -11.390   1.181   0.646  0.00  0.00    +0.292 HD
ENDBRANCH  22  25
ENDBRANCH  17  19
ENDBRANCH   5  17
TORSDOF 4
