REMARK  Name = ZINC32794940
REMARK  9 active torsions:
REMARK  status: ('A' for Active; 'I' for Inactive)
REMARK    1  A    between atoms: C_1  and  C_2
REMARK    2  A    between atoms: C_5  and  O_27
REMARK    3  A    between atoms: C_6  and  N_8
REMARK    4  A    between atoms: C_9  and  C_11
REMARK    5  A    between atoms: C_11  and  N_12
REMARK    6  A    between atoms: N_15  and  C_16
REMARK    7  A    between atoms: C_16  and  C_18
REMARK    8  A    between atoms: C_16  and  C_19
REMARK    9  A    between atoms: O_27  and  C_28
REMARK                            x       y       z     vdW  Elec       q    Type
REMARK                         _______ _______ _______ _____ _____    ______ ____
ROOT
ATOM      1  N   UNL     1       1.302   2.174  -0.130  0.00  0.00    -0.291 N 
ATOM      2  C   UNL     1       0.127   1.515  -0.112  0.00  0.00    +0.300 C 
ATOM      3  O   UNL     1       0.111   0.300  -0.147  0.00  0.00    -0.253 OA
ATOM      4  N   UNL     1      -1.031   2.203  -0.060  0.00  0.00    -0.293 N 
ATOM      5  H   UNL     1       1.317   3.274  -0.098  0.00  0.00    +0.151 HD
ATOM      6  H   UNL     1      -1.017   3.303  -0.028  0.00  0.00    +0.151 HD
ENDROOT
BRANCH   4   7
ATOM      7  C   UNL     1      -2.309   1.487  -0.046  0.00  0.00    +0.103 C 
ATOM      8  C   UNL     1      -2.714   1.193   1.399  0.00  0.00    +0.033 C 
BRANCH   7   9
ATOM      9  C   UNL     1      -3.368   2.336  -0.702  0.00  0.00    -0.009 A 
ATOM     10  C   UNL     1      -3.233   3.711  -0.726  0.00  0.00    +0.008 A 
ATOM     11  C   UNL     1      -4.201   4.490  -1.332  0.00  0.00    +0.020 A 
ATOM     12  C   UNL     1      -5.311   3.894  -1.904  0.00  0.00    +0.042 A 
ATOM     13  C   UNL     1      -5.449   2.518  -1.875  0.00  0.00    +0.040 A 
ATOM     14  C   UNL     1      -4.477   1.739  -1.274  0.00  0.00    +0.047 A 
ATOM     15 CL   UNL     1      -4.649   0.012  -1.236  0.00  0.00    -0.083 Cl
ATOM     16 CL   UNL     1      -6.529   4.873  -2.660  0.00  0.00    -0.083 Cl
ENDBRANCH   7   9
ENDBRANCH   4   7
BRANCH   1  17
ATOM     17  C   UNL     1       2.560   1.427  -0.192  0.00  0.00    +0.202 C 
BRANCH  17  19
ATOM     18  N   UNL     1       4.982   1.927  -0.255  0.00  0.00    -0.281 N 
ATOM     19  C   UNL     1       3.718   2.391  -0.201  0.00  0.00    +0.235 C 
ATOM     20  O   UNL     1       3.512   3.586  -0.158  0.00  0.00    -0.274 OA
ATOM     21  H   UNL     1       5.173   0.845  -0.200  0.00  0.00    +0.155 HD
BRANCH  18  27
ATOM     22  C   UNL     1       6.687   6.312  -1.683  0.00  0.00    +0.044 C 
ATOM     23  C   UNL     1       6.908   4.954  -1.069  0.00  0.00    -0.048 A 
ATOM     24  C   UNL     1       8.169   4.592  -0.631  0.00  0.00    +0.007 A 
ATOM     25  C   UNL     1       8.378   3.347  -0.067  0.00  0.00    +0.048 A 
ATOM     26  C   UNL     1       7.323   2.458   0.060  0.00  0.00    +0.141 A 
ATOM     27  C   UNL     1       6.053   2.822  -0.381  0.00  0.00    +0.076 A 
ATOM     28  C   UNL     1       5.852   4.071  -0.951  0.00  0.00    +0.030 A 
BRANCH  26  29
ATOM     29  O   UNL     1       7.527   1.233   0.615  0.00  0.00    -0.493 OA
ATOM     30  C   UNL     1       8.855   0.929   1.044  0.00  0.00    +0.277 C 
ENDBRANCH  26  29
ENDBRANCH  18  27
ENDBRANCH  17  19
ENDBRANCH   1  17
TORSDOF 6
