REMARK  Name = ZINC16143807
REMARK  14 active torsions:
REMARK  status: ('A' for Active; 'I' for Inactive)
REMARK    1  A    between atoms: C_1  and  C_2
REMARK    2  A    between atoms: C_2  and  C_3
REMARK    3  A    between atoms: C_2  and  C_4
REMARK    4  A    between atoms: C_4  and  C_6
REMARK    5  A    between atoms: C_4  and  N_24
REMARK    6  A    between atoms: N_8  and  C_9
REMARK    7  A    between atoms: C_9  and  C_10
REMARK    8  A    between atoms: C_10  and  C_11
REMARK    9  A    between atoms: C_13  and  O_22
REMARK   10  A    between atoms: C_14  and  O_20
REMARK   11  A    between atoms: C_16  and  N_17
REMARK   12  A    between atoms: O_20  and  C_21
REMARK   13  A    between atoms: O_22  and  C_23
REMARK   14  A    between atoms: C_25  and  C_27
REMARK                            x       y       z     vdW  Elec       q    Type
REMARK                         _______ _______ _______ _____ _____    ______ ____
ROOT
ATOM      1  C   UNL     1       0.113   1.252   3.955  0.00  0.00    +0.234 C 
ATOM      2  O   UNL     1      -0.330   0.407   4.705  0.00  0.00    -0.274 OA
ATOM      3  N   UNL     1       0.292   2.514   4.393  0.00  0.00    -0.313 N 
ATOM      4  H   UNL     1       0.716   3.171   3.818  0.00  0.00    +0.149 HD
ENDROOT
BRANCH   1   5
ATOM      5  C   UNL     1       0.462   0.890   2.534  0.00  0.00    +0.161 C 
BRANCH   5   6
ATOM      6  N   UNL     1       0.805  -0.532   2.463  0.00  0.00    -0.303 N 
ATOM      7  C   UNL     1       1.609  -0.983   1.479  0.00  0.00    +0.220 C 
ATOM      8  O   UNL     1       2.047  -0.211   0.653  0.00  0.00    -0.275 OA
ATOM      9  H   UNL     1       0.455  -1.150   3.124  0.00  0.00    +0.149 HD
BRANCH   7  10
ATOM     10  C   UNL     1       1.962  -2.446   1.406  0.00  0.00    +0.048 C 
ATOM     11  C   UNL     1       0.684  -3.272   1.248  0.00  0.00    +0.019 C 
ATOM     12  C   UNL     1       1.042  -4.758   1.173  0.00  0.00    -0.009 C 
ATOM     13  C   UNL     1       1.959  -5.002  -0.027  0.00  0.00    +0.007 C 
ATOM     14  C   UNL     1       3.237  -4.176   0.131  0.00  0.00    -0.009 C 
ATOM     15  C   UNL     1       2.879  -2.690   0.205  0.00  0.00    +0.019 C 
ATOM     16  C   UNL     1       3.958  -4.591   1.415  0.00  0.00    +0.007 C 
ATOM     17  C   UNL     1       3.041  -4.348   2.616  0.00  0.00    -0.009 C 
ATOM     18  C   UNL     1       1.763  -5.174   2.458  0.00  0.00    +0.007 C 
ATOM     19  C   UNL     1       2.682  -2.862   2.690  0.00  0.00    +0.019 C 
ENDBRANCH   7  10
ENDBRANCH   5   6
BRANCH   5  21
ATOM     20  C   UNL     1      -0.368   0.847   0.178  0.00  0.00    +0.009 C 
ATOM     21  C   UNL     1      -0.737   1.171   1.627  0.00  0.00    +0.012 C 
ATOM     22  C   UNL     1      -1.125   2.647   1.737  0.00  0.00    +0.009 C 
ENDBRANCH   5  21
ENDBRANCH   1   5
BRANCH   3  23
ATOM     23  C   UNL     1      -0.151   2.894   5.736  0.00  0.00    +0.109 C 
BRANCH  23  24
ATOM     24  C   UNL     1       0.169   4.370   5.981  0.00  0.00    +0.056 C 
BRANCH  24  25
ATOM     25  C   UNL     1      -0.288   4.760   7.363  0.00  0.00    -0.012 A 
ATOM     26  C   UNL     1       0.625   4.822   8.399  0.00  0.00    +0.055 A 
ATOM     27  C   UNL     1       0.207   5.181   9.670  0.00  0.00    +0.162 A 
ATOM     28  C   UNL     1      -1.133   5.479   9.901  0.00  0.00    +0.164 A 
ATOM     29  C   UNL     1      -2.042   5.415   8.858  0.00  0.00    +0.082 A 
ATOM     30  C   UNL     1      -1.617   5.062   7.590  0.00  0.00    +0.133 A 
BRANCH  30  31
ATOM     31  N   UNL     1      -2.590   5.001   6.476  0.00  0.00    +0.057 N 
ATOM     32  O   UNL     1      -3.739   5.363   6.650  0.00  0.00    -0.126 OA
ATOM     33  O   UNL     1      -2.240   4.588   5.385  0.00  0.00    -0.126 OA
ENDBRANCH  30  31
BRANCH  28  34
ATOM     34  O   UNL     1      -1.548   5.831  11.147  0.00  0.00    -0.491 OA
ATOM     35  C   UNL     1      -2.937   6.123  11.309  0.00  0.00    +0.277 C 
ENDBRANCH  28  34
BRANCH  27  36
ATOM     36  O   UNL     1       1.104   5.241  10.691  0.00  0.00    -0.491 OA
ATOM     37  C   UNL     1       2.462   4.922  10.381  0.00  0.00    +0.277 C 
ENDBRANCH  27  36
ENDBRANCH  24  25
ENDBRANCH  23  24
ENDBRANCH   3  23
TORSDOF 10
