REMARK  Name = ZINC12573585
REMARK  9 active torsions:
REMARK  status: ('A' for Active; 'I' for Inactive)
REMARK    1  A    between atoms: C_1  and  C_2
REMARK    2  A    between atoms: C_4  and  O_9
REMARK    3  A    between atoms: O_9  and  C_10
REMARK    4  A    between atoms: C_10  and  C_11
REMARK    5  A    between atoms: N_13  and  C_14
REMARK    6  A    between atoms: C_14  and  N_16
REMARK    7  A    between atoms: N_16  and  N_17
REMARK    8  A    between atoms: C_18  and  C_20
REMARK    9  A    between atoms: C_24  and  C_25
REMARK                            x       y       z     vdW  Elec       q    Type
REMARK                         _______ _______ _______ _____ _____    ______ ____
ROOT
ATOM      1  C   UNL     1      -4.723   4.155   0.047  0.00  0.00    +0.256 C 
ATOM      2  O   UNL     1      -4.740   5.367   0.054  0.00  0.00    -0.272 OA
ATOM      3  N   UNL     1      -3.547   3.497   0.038  0.00  0.00    -0.264 N 
ATOM      4  H   UNL     1      -3.534   2.527   0.033  0.00  0.00    +0.157 HD
ENDROOT
BRANCH   3   5
ATOM      5  C   UNL     1      -2.389   4.186   0.036  0.00  0.00    +0.153 C 
ATOM      6  S   UNL     1      -2.413   5.898   0.046  0.00  0.00    -0.017 S 
BRANCH   5   7
ATOM      7  N   UNL     1      -1.213   3.528   0.027  0.00  0.00    -0.245 N 
ATOM      8  H   UNL     1      -0.380   4.025   0.026  0.00  0.00    +0.172 HD
BRANCH   7   9
ATOM      9  N   UNL     1      -1.194   2.127   0.019  0.00  0.00    -0.231 N 
ATOM     10  C   UNL     1      -0.018   1.470   0.010  0.00  0.00    +0.263 C 
ATOM     11  O   UNL     1       1.027   2.092   0.004  0.00  0.00    -0.269 OA
ATOM     12  H   UNL     1      -2.027   1.631   0.021  0.00  0.00    +0.173 HD
BRANCH  10  13
ATOM     13  C   UNL     1       0.002  -0.004   0.002  0.00  0.00    +0.079 A 
ATOM     14  C   UNL     1      -1.157  -0.909   0.015  0.00  0.00    +0.054 A 
ATOM     15  C   UNL     1      -0.654  -2.152  -0.003  0.00  0.00    +0.196 A 
ATOM     16  O   UNL     1       0.686  -2.085  -0.016  0.00  0.00    -0.467 OA
ATOM     17  C   UNL     1       1.100  -0.814  -0.013  0.00  0.00    +0.114 A 
ATOM     18  C   UNL     1       2.535  -0.353  -0.024  0.00  0.00    +0.087 C 
ENDBRANCH  10  13
ENDBRANCH   7   9
ENDBRANCH   5   7
ENDBRANCH   3   5
BRANCH   1  19
ATOM     19  C   UNL     1      -6.018   3.383   0.049  0.00  0.00    +0.324 C 
BRANCH  19  20
ATOM     20  O   UNL     1      -7.117   4.297   0.059  0.00  0.00    -0.483 OA
BRANCH  20  24
ATOM     21  C   UNL     1     -11.955   4.942   0.086  0.00  0.00    +0.045 C 
ATOM     22  C   UNL     1     -10.746   4.042   0.075  0.00  0.00    -0.033 A 
ATOM     23  C   UNL     1      -9.478   4.590   0.072  0.00  0.00    +0.050 A 
ATOM     24  C   UNL     1      -8.366   3.761   0.062  0.00  0.00    +0.122 A 
ATOM     25  C   UNL     1      -8.530   2.383   0.050  0.00  0.00    +0.047 A 
ATOM     26  C   UNL     1      -9.800   1.840   0.059  0.00  0.00    +0.019 A 
ATOM     27  C   UNL     1     -10.908   2.668   0.068  0.00  0.00    +0.021 A 
ATOM     28 BR   UNL     1     -12.645   1.922   0.073  0.00  0.00    -0.050 Br
ENDBRANCH  20  24
ENDBRANCH  19  20
ENDBRANCH   1  19
TORSDOF 7
