REMARK  Name = ZINC64730369
REMARK  8 active torsions:
REMARK  status: ('A' for Active; 'I' for Inactive)
REMARK    1  A    between atoms: C_1  and  C_2
REMARK    2  A    between atoms: C_2  and  C_4
REMARK    3  A    between atoms: C_2  and  N_16
REMARK    4  A    between atoms: C_7  and  C_10
REMARK    5  A    between atoms: C_17  and  C_19
REMARK    6  A    between atoms: C_19  and  N_20
REMARK    7  A    between atoms: C_23  and  C_28
REMARK    8  A    between atoms: C_28  and  C_29
REMARK                            x       y       z     vdW  Elec       q    Type
REMARK                         _______ _______ _______ _____ _____    ______ ____
ROOT
ATOM      1  C   UNL     1       0.780  -1.133   3.576  0.00  0.00    +0.213 C 
ENDROOT
BRANCH   1   2
ATOM      2  N   UNL     1      -0.150  -1.201   4.706  0.00  0.00    -0.216 N 
ATOM      3  C   UNL     1      -0.377  -0.185   5.562  0.00  0.00    +0.244 C 
ATOM      4  O   UNL     1       0.131   0.916   5.543  0.00  0.00    -0.273 OA
ATOM      5  C   UNL     1      -1.399  -0.705   6.553  0.00  0.00    +0.165 C 
ATOM      6  N   UNL     1      -1.654  -2.082   6.098  0.00  0.00    -0.287 N 
ATOM      7  C   UNL     1      -0.883  -2.277   5.013  0.00  0.00    +0.310 C 
ATOM      8  O   UNL     1      -0.854  -3.316   4.383  0.00  0.00    -0.252 OA
ATOM      9  H   UNL     1      -2.261  -2.723   6.500  0.00  0.00    +0.151 HD
BRANCH   5  10
ATOM     10  C   UNL     1      -2.680   0.131   6.494  0.00  0.00    +0.065 C 
BRANCH  10  11
ATOM     11  C   UNL     1      -3.629  -0.328   7.570  0.00  0.00    -0.039 C 
ATOM     12  C   UNL     1      -3.776   0.203   8.805  0.00  0.00    -0.001 A 
ATOM     13  C   UNL     1      -3.121   1.323   9.490  0.00  0.00    +0.010 A 
ATOM     14  C   UNL     1      -3.489   1.624  10.757  0.00  0.00    +0.001 A 
ATOM     15  C   UNL     1      -4.478   0.893  11.430  0.00  0.00    +0.002 A 
ATOM     16  C   UNL     1      -5.125  -0.149  10.867  0.00  0.00    +0.026 A 
ATOM     17  C   UNL     1      -4.818  -0.552   9.538  0.00  0.00    +0.043 A 
ATOM     18  N   UNL     1      -5.296  -1.513   8.785  0.00  0.00    -0.380 N 
ATOM     19  C   UNL     1      -4.615  -1.472   7.486  0.00  0.00    +0.144 C 
ATOM     20  H   UNL     1      -5.987  -2.143   9.042  0.00  0.00    +0.160 HD
ENDBRANCH  10  11
ENDBRANCH   5  10
ENDBRANCH   1   2
BRANCH   1  22
ATOM     21  N   UNL     1       0.711  -0.489   1.189  0.00  0.00    -0.307 N 
ATOM     22  C   UNL     1       0.051  -0.633   2.355  0.00  0.00    +0.231 C 
ATOM     23  O   UNL     1      -1.129  -0.361   2.423  0.00  0.00    -0.274 OA
ATOM     24  H   UNL     1       1.654  -0.707   1.135  0.00  0.00    +0.149 HD
BRANCH  21  26
ATOM     25  C   UNL     1      -0.019   1.526   0.010  0.00  0.00    +0.033 C 
ATOM     26  C   UNL     1       0.002  -0.004   0.002  0.00  0.00    +0.100 C 
BRANCH  26  27
ATOM     27  C   UNL     1       0.707  -0.490  -1.238  0.00  0.00    -0.027 A 
ATOM     28  C   UNL     1       2.090  -0.510  -1.281  0.00  0.00    +0.006 A 
ATOM     29  C   UNL     1       2.741  -0.954  -2.414  0.00  0.00    +0.009 A 
ATOM     30  C   UNL     1       2.003  -1.383  -3.516  0.00  0.00    -0.018 A 
ATOM     31  C   UNL     1       0.611  -1.361  -3.466  0.00  0.00    +0.009 A 
ATOM     32  C   UNL     1      -0.030  -0.920  -2.326  0.00  0.00    +0.006 A 
BRANCH  30  33
ATOM     33  C   UNL     1       2.698  -1.861  -4.737  0.00  0.00    -0.018 A 
ATOM     34  C   UNL     1       4.090  -1.888  -4.784  0.00  0.00    +0.008 A 
ATOM     35  C   UNL     1       4.731  -2.334  -5.922  0.00  0.00    +0.001 A 
ATOM     36  C   UNL     1       3.994  -2.753  -7.014  0.00  0.00    +0.000 A 
ATOM     37  C   UNL     1       2.611  -2.728  -6.973  0.00  0.00    +0.001 A 
ATOM     38  C   UNL     1       1.960  -2.290  -5.838  0.00  0.00    +0.008 A 
ENDBRANCH  30  33
ENDBRANCH  26  27
ENDBRANCH  21  26
ENDBRANCH   1  22
TORSDOF 7
