REMARK  Name = ZINC33537890
REMARK  8 active torsions:
REMARK  status: ('A' for Active; 'I' for Inactive)
REMARK    1  A    between atoms: C_1  and  N_2
REMARK    2  A    between atoms: C_9  and  C_21
REMARK    3  A    between atoms: C_11  and  C_17
REMARK    4  A    between atoms: C_11  and  C_19
REMARK    5  A    between atoms: C_12  and  N_16
REMARK    6  A    between atoms: C_13  and  C_14
REMARK    7  A    between atoms: C_26  and  O_27
REMARK    8  A    between atoms: O_27  and  C_28
REMARK                            x       y       z     vdW  Elec       q    Type
REMARK                         _______ _______ _______ _____ _____    ______ ____
ROOT
ATOM      1  C   UNL     1      -0.208   1.490   4.417  0.00  0.00    +0.105 C 
ATOM      2  N   UNL     1      -0.828   1.013   3.174  0.00  0.00    -0.301 NA
ATOM      3  C   UNL     1      -1.692  -0.153   3.428  0.00  0.00    +0.111 C 
ATOM      4  C   UNL     1      -2.156  -0.680   2.093  0.00  0.00    -0.007 C 
ATOM      5  C   UNL     1      -2.348   0.149   1.084  0.00  0.00    -0.026 C 
ATOM      6  C   UNL     1      -2.177   1.636   1.202  0.00  0.00    +0.044 C 
ATOM      7  C   UNL     1      -1.596   2.080   2.526  0.00  0.00    +0.093 C 
ATOM      8  C   UNL     1      -1.331   2.114   0.020  0.00  0.00    +0.071 C 
ATOM      9  C   UNL     1      -2.088   1.829  -1.278  0.00  0.00    +0.188 C 
ATOM     10  C   UNL     1      -2.558   0.407  -1.346  0.00  0.00    +0.054 C 
ATOM     11  C   UNL     1      -2.697  -0.388  -0.255  0.00  0.00    +0.074 C 
ENDROOT
BRANCH   8  12
ATOM     12  C   UNL     1      -0.017   1.377   0.010  0.00  0.00    +0.001 A 
ATOM     13  C   UNL     1       0.057   0.101  -0.514  0.00  0.00    +0.007 A 
ATOM     14  C   UNL     1       1.264  -0.573  -0.529  0.00  0.00    +0.001 A 
ATOM     15  C   UNL     1       2.401   0.029  -0.020  0.00  0.00    +0.004 A 
ATOM     16  C   UNL     1       2.332   1.304   0.504  0.00  0.00    +0.046 A 
ATOM     17  C   UNL     1       1.122   1.983   0.521  0.00  0.00    +0.130 A 
BRANCH  17  18
ATOM     18  O   UNL     1       1.052   3.238   1.036  0.00  0.00    -0.434 OA
BRANCH  18  19
ATOM     19  C   UNL     1       2.264   3.799   1.545  0.00  0.00    +0.541 C 
ATOM     20  F   UNL     1       2.752   2.994   2.580  0.00  0.00    -0.166 F 
ATOM     21  F   UNL     1       3.214   3.866   0.520  0.00  0.00    -0.166 F 
ENDBRANCH  18  19
ENDBRANCH  17  18
ENDBRANCH   8  12
BRANCH  10  22
ATOM     22  N   UNL     1      -2.863  -0.116  -2.571  0.00  0.00    -0.358 N 
ATOM     23  H   UNL     1      -3.210  -1.156  -2.655  0.00  0.00    +0.142 HD
ATOM     24  H   UNL     1      -2.760   0.504  -3.475  0.00  0.00    +0.142 HD
ENDBRANCH  10  22
BRANCH  11  25
ATOM     25  C   UNL     1      -3.175  -1.731  -0.394  0.00  0.00    +0.101 C 
ATOM     26  N   UNL     1      -3.555  -2.796  -0.505  0.00  0.00    -0.191 NA
ENDBRANCH  11  25
BRANCH   9  27
ATOM     27  C   UNL     1      -3.253   2.724  -1.361  0.00  0.00    +0.091 C 
ATOM     28  N   UNL     1      -4.153   3.415  -1.425  0.00  0.00    -0.194 NA
ENDBRANCH   9  27
BRANCH   9  29
ATOM     29  C   UNL     1      -1.198   2.095  -2.420  0.00  0.00    +0.091 C 
ATOM     30  N   UNL     1      -0.512   2.301  -3.302  0.00  0.00    -0.194 NA
ENDBRANCH   9  29
TORSDOF 7
