REMARK  Name = ZINC36597546
REMARK  13 active torsions:
REMARK  status: ('A' for Active; 'I' for Inactive)
REMARK    1  A    between atoms: C_1  and  C_2
REMARK    2  A    between atoms: C_5  and  C_7
REMARK    3  A    between atoms: C_7  and  N_8
REMARK    4  A    between atoms: N_8  and  C_9
REMARK    5  A    between atoms: C_9  and  C_11
REMARK    6  A    between atoms: C_9  and  C_16
REMARK    7  A    between atoms: N_18  and  C_19
REMARK    8  A    between atoms: C_19  and  C_20
REMARK    9  A    between atoms: C_19  and  C_21
REMARK   10  A    between atoms: C_19  and  C_22
REMARK   11  A    between atoms: C_23  and  C_25
REMARK   12  A    between atoms: C_26  and  O_32
REMARK   13  A    between atoms: C_30  and  O_31
REMARK                            x       y       z     vdW  Elec       q    Type
REMARK                         _______ _______ _______ _____ _____    ______ ____
ROOT
ATOM      1  N   UNL     1       1.772  -3.560  -1.772  0.00  0.00    -0.272 N 
ATOM      2  C   UNL     1       1.233  -4.791  -1.877  0.00  0.00    +0.255 C 
ATOM      3  O   UNL     1       1.833  -5.670  -2.465  0.00  0.00    -0.270 OA
ENDROOT
BRANCH   2   4
ATOM      4  C   UNL     1      -0.083  -5.072  -1.279  0.00  0.00    +0.119 A 
ATOM      5  C   UNL     1      -1.243  -4.505  -1.827  0.00  0.00    +0.133 A 
ATOM      6  C   UNL     1      -2.477  -4.777  -1.258  0.00  0.00    +0.046 A 
ATOM      7  C   UNL     1      -2.566  -5.602  -0.152  0.00  0.00    +0.007 A 
ATOM      8  C   UNL     1      -1.429  -6.166   0.396  0.00  0.00    +0.046 A 
ATOM      9  C   UNL     1      -0.186  -5.912  -0.161  0.00  0.00    +0.133 A 
BRANCH   9  10
ATOM     10  O   UNL     1       0.927  -6.471   0.375  0.00  0.00    -0.506 OA
ATOM     11  H   UNL     1       1.310  -5.964   1.104  0.00  0.00    +0.292 HD
ENDBRANCH   9  10
BRANCH   5  12
ATOM     12  O   UNL     1      -1.158  -3.694  -2.912  0.00  0.00    -0.506 OA
ATOM     13  H   UNL     1      -1.224  -4.159  -3.757  0.00  0.00    +0.292 HD
ENDBRANCH   5  12
ENDBRANCH   2   4
BRANCH   1  14
ATOM     14  C   UNL     1       1.107  -2.536  -0.963  0.00  0.00    +0.183 C 
BRANCH  14  19
ATOM     15  C   UNL     1       0.590  -4.576   3.621  0.00  0.00    +0.086 C 
ATOM     16  C   UNL     1       1.100  -3.718   2.492  0.00  0.00    +0.102 A 
ATOM     17  C   UNL     1       2.096  -2.819   2.576  0.00  0.00    +0.045 A 
ATOM     18  C   UNL     1       2.242  -2.247   1.291  0.00  0.00    +0.046 A 
ATOM     19  C   UNL     1       1.325  -2.831   0.499  0.00  0.00    +0.122 A 
ATOM     20  O   UNL     1       0.640  -3.725   1.230  0.00  0.00    -0.463 OA
ENDBRANCH  14  19
ENDBRANCH   1  14
BRANCH   1  21
ATOM     21  C   UNL     1       3.022  -3.246  -2.467  0.00  0.00    +0.229 C 
BRANCH  21  22
ATOM     22  C   UNL     1       2.836  -2.005  -3.301  0.00  0.00    +0.134 A 
ATOM     23  C   UNL     1       3.234  -1.846  -4.576  0.00  0.00    +0.047 A 
ATOM     24  C   UNL     1       2.860  -0.538  -4.962  0.00  0.00    +0.041 A 
ATOM     25  C   UNL     1       2.256   0.024  -3.900  0.00  0.00    +0.195 A 
ATOM     26  O   UNL     1       2.239  -0.871  -2.899  0.00  0.00    -0.465 OA
ENDBRANCH  21  22
BRANCH  21  27
ATOM     27  C   UNL     1       4.115  -3.013  -1.456  0.00  0.00    +0.242 C 
ATOM     28  O   UNL     1       3.872  -3.100  -0.271  0.00  0.00    -0.273 OA
ATOM     29  N   UNL     1       5.361  -2.707  -1.868  0.00  0.00    -0.309 N 
ATOM     30  H   UNL     1       5.555  -2.638  -2.816  0.00  0.00    +0.149 HD
BRANCH  29  31
ATOM     31  C   UNL     1       6.423  -2.480  -0.885  0.00  0.00    +0.026 C 
ATOM     32  C   UNL     1       6.612  -3.741  -0.038  0.00  0.00    +0.031 C 
ATOM     33  C   UNL     1       7.729  -2.153  -1.611  0.00  0.00    +0.031 C 
ATOM     34  C   UNL     1       6.036  -1.310   0.022  0.00  0.00    +0.031 C 
ENDBRANCH  29  31
ENDBRANCH  21  27
ENDBRANCH   1  21
TORSDOF 9
