REMARK  Name = ZINC28294129
REMARK  12 active torsions:
REMARK  status: ('A' for Active; 'I' for Inactive)
REMARK    1  A    between atoms: C_1  and  C_2
REMARK    2  A    between atoms: C_2  and  N_3
REMARK    3  A    between atoms: N_3  and  C_4
REMARK    4  A    between atoms: C_4  and  C_5
REMARK    5  A    between atoms: N_8  and  C_9
REMARK    6  A    between atoms: C_9  and  C_11
REMARK    7  A    between atoms: C_9  and  N_15
REMARK    8  A    between atoms: N_15  and  C_16
REMARK    9  A    between atoms: C_16  and  N_18
REMARK   10  A    between atoms: N_18  and  C_19
REMARK   11  A    between atoms: C_22  and  N_28
REMARK   12  A    between atoms: C_24  and  N_25
REMARK                            x       y       z     vdW  Elec       q    Type
REMARK                         _______ _______ _______ _____ _____    ______ ____
ROOT
ATOM      1  N   UNL     1      -4.458   2.086  -1.257  0.00  0.00    -0.305 N 
ATOM      2  H   UNL     1      -4.740   1.113  -1.685  0.00  0.00    +0.150 HD
ENDROOT
BRANCH   1   3
ATOM      3  C   UNL     1      -4.443   3.186  -2.037  0.00  0.00    +0.136 C 
ATOM      4  S   UNL     1      -4.005   4.701  -1.371  0.00  0.00    -0.019 S 
BRANCH   3   5
ATOM      5  N   UNL     1      -4.773   3.092  -3.340  0.00  0.00    -0.295 N 
ATOM      6  H   UNL     1      -4.978   2.108  -3.786  0.00  0.00    +0.154 HD
BRANCH   5   7
ATOM      7  C   UNL     1      -4.854   4.247  -4.126  0.00  0.00    +0.063 A 
ATOM      8  C   UNL     1      -3.837   5.192  -4.081  0.00  0.00    +0.028 A 
ATOM      9  C   UNL     1      -3.920   6.330  -4.858  0.00  0.00    +0.034 A 
ATOM     10  C   UNL     1      -5.014   6.530  -5.680  0.00  0.00    +0.128 A 
ATOM     11  C   UNL     1      -6.028   5.591  -5.727  0.00  0.00    +0.067 A 
ATOM     12  C   UNL     1      -5.948   4.448  -4.956  0.00  0.00    +0.149 A 
BRANCH  12  13
ATOM     13  N   UNL     1      -7.031   3.440  -5.012  0.00  0.00    +0.058 N 
ATOM     14  O   UNL     1      -7.942   3.568  -5.811  0.00  0.00    -0.126 OA
ATOM     15  O   UNL     1      -7.012   2.483  -4.258  0.00  0.00    -0.126 OA
ENDBRANCH  12  13
BRANCH  10  16
ATOM     16  N   UNL     1      -5.100   7.752  -6.511  0.00  0.00    +0.056 N 
ATOM     17  O   UNL     1      -4.207   8.580  -6.471  0.00  0.00    -0.126 OA
ATOM     18  O   UNL     1      -6.063   7.930  -7.235  0.00  0.00    -0.126 OA
ENDBRANCH  10  16
ENDBRANCH   5   7
ENDBRANCH   3   5
ENDBRANCH   1   3
BRANCH   1  19
ATOM     19  C   UNL     1      -4.100   2.188   0.160  0.00  0.00    +0.212 C 
BRANCH  19  23
ATOM     20  N   UNL     1      -0.480   1.955   0.758  0.00  0.00    -0.286 N 
ATOM     21  C   UNL     1      -1.714   2.463   0.569  0.00  0.00    +0.304 C 
ATOM     22  O   UNL     1      -1.885   3.667   0.582  0.00  0.00    -0.253 OA
ATOM     23  N   UNL     1      -2.759   1.636   0.365  0.00  0.00    -0.277 N 
ATOM     24  H   UNL     1      -2.604   0.547   0.354  0.00  0.00    +0.152 HD
BRANCH  20  26
ATOM     25  C   UNL     1      -0.434  -0.048   2.160  0.00  0.00    +0.024 C 
ATOM     26  C   UNL     1      -0.274   0.505   0.742  0.00  0.00    +0.106 C 
ENDBRANCH  20  26
BRANCH  20  27
ATOM     27  C   UNL     1       0.657   2.854   0.973  0.00  0.00    +0.106 C 
ATOM     28  C   UNL     1       1.284   3.215  -0.376  0.00  0.00    +0.024 C 
ENDBRANCH  20  27
ENDBRANCH  19  23
BRANCH  19  29
ATOM     29  C   UNL     1      -5.109   1.401   0.999  0.00  0.00    +0.225 C 
ATOM     30 CL   UNL     1      -4.669   1.527   2.743  0.00  0.00    -0.080 Cl
ATOM     31 CL   UNL     1      -6.760   2.080   0.746  0.00  0.00    -0.080 Cl
ATOM     32 CL   UNL     1      -5.088  -0.330   0.496  0.00  0.00    -0.080 Cl
ENDBRANCH  19  29
ENDBRANCH   1  19
TORSDOF 10
