REMARK  Name = ZINC40728176
REMARK  8 active torsions:
REMARK  status: ('A' for Active; 'I' for Inactive)
REMARK    1  A    between atoms: C_7  and  C_11
REMARK    2  A    between atoms: C_11  and  C_12
REMARK    3  A    between atoms: C_12  and  N_13
REMARK    4  A    between atoms: N_13  and  C_14
REMARK    5  A    between atoms: C_14  and  C_15
REMARK    6  A    between atoms: C_18  and  O_21
REMARK    7  A    between atoms: O_21  and  C_22
REMARK    8  A    between atoms: C_22  and  C_23
REMARK                            x       y       z     vdW  Elec       q    Type
REMARK                         _______ _______ _______ _____ _____    ______ ____
ROOT
ATOM      1  C   UNL     1      -1.091  -5.041  -2.829  0.00  0.00    -0.047 C 
ENDROOT
BRANCH   1   2
ATOM      2  C   UNL     1      -2.028  -6.221  -2.826  0.00  0.00    -0.064 A 
ATOM      3  C   UNL     1      -1.523  -7.503  -2.936  0.00  0.00    +0.005 A 
ATOM      4  C   UNL     1      -2.380  -8.587  -2.934  0.00  0.00    +0.046 A 
ATOM      5  C   UNL     1      -3.748  -8.387  -2.820  0.00  0.00    +0.121 A 
ATOM      6  C   UNL     1      -4.252  -7.099  -2.709  0.00  0.00    +0.046 A 
ATOM      7  C   UNL     1      -3.390  -6.020  -2.706  0.00  0.00    +0.005 A 
BRANCH   5   8
ATOM      8  O   UNL     1      -4.593  -9.451  -2.818  0.00  0.00    -0.487 OA
BRANCH   8   9
ATOM      9  C   UNL     1      -5.989  -9.171  -2.697  0.00  0.00    +0.264 C 
BRANCH   9  10
ATOM     10  C   UNL     1      -6.765 -10.463  -2.713  0.00  0.00    -0.009 A 
ATOM     11  C   UNL     1      -7.205 -10.990  -3.913  0.00  0.00    +0.007 A 
ATOM     12  C   UNL     1      -7.916 -12.175  -3.929  0.00  0.00    +0.002 A 
ATOM     13  C   UNL     1      -8.188 -12.834  -2.744  0.00  0.00    +0.020 A 
ATOM     14  C   UNL     1      -7.748 -12.307  -1.543  0.00  0.00    +0.041 A 
ATOM     15  C   UNL     1      -7.031 -11.124  -1.529  0.00  0.00    +0.027 A 
ATOM     16 CL   UNL     1      -8.089 -13.134  -0.056  0.00  0.00    -0.084 Cl
ENDBRANCH   9  10
ENDBRANCH   8   9
ENDBRANCH   5   8
ENDBRANCH   1   2
BRANCH   1  17
ATOM     17  N   UNL     1      -0.677  -4.739  -1.452  0.00  0.00    +0.382 N 
ATOM     18  H   UNL     1      -0.207  -5.541  -1.059  0.00  0.00    -0.085 HD
ATOM     19  H   UNL     1      -1.491  -4.521  -0.897  0.00  0.00    -0.085 HD
BRANCH  17  20
ATOM     20  C   UNL     1       0.236  -3.589  -1.455  0.00  0.00    -0.077 C 
BRANCH  20  21
ATOM     21  C   UNL     1       0.666  -3.275  -0.021  0.00  0.00    +0.018 C 
BRANCH  21  28
ATOM     22  C   UNL     1      -0.017   1.362   0.009  0.00  0.00    +0.001 A 
ATOM     23  C   UNL     1       1.170   2.083   0.002  0.00  0.00    +0.002 A 
ATOM     24  C   UNL     1       2.386   1.436  -0.013  0.00  0.00    +0.026 A 
ATOM     25  C   UNL     1       2.428   0.046  -0.021  0.00  0.00    +0.047 A 
ATOM     26  C   UNL     1       1.223  -0.681  -0.013  0.00  0.00    +0.003 A 
ATOM     27  C   UNL     1       0.002  -0.004   0.002  0.00  0.00    +0.010 A 
ATOM     28  C   UNL     1       1.604  -2.095  -0.025  0.00  0.00    -0.024 A 
ATOM     29  C   UNL     1       2.945  -2.141  -0.038  0.00  0.00    +0.087 A 
ATOM     30  N   UNL     1       3.455  -0.871  -0.036  0.00  0.00    -0.360 N 
ATOM     31  H   UNL     1       4.399  -0.650  -0.044  0.00  0.00    +0.165 HD
ENDBRANCH  21  28
ENDBRANCH  20  21
ENDBRANCH  17  20
ENDBRANCH   1  17
TORSDOF 8
