REMARK  Name = ZINC06602430
REMARK  9 active torsions:
REMARK  status: ('A' for Active; 'I' for Inactive)
REMARK    1  A    between atoms: C_1  and  N_58
REMARK    2  A    between atoms: C_2  and  N_58
REMARK    3  A    between atoms: C_3  and  C_5
REMARK    4  A    between atoms: C_3  and  C_26
REMARK    5  A    between atoms: C_3  and  N_58
REMARK    6  A    between atoms: C_5  and  N_6
REMARK    7  A    between atoms: C_7  and  C_9
REMARK    8  A    between atoms: C_9  and  N_10
REMARK    9  A    between atoms: C_11  and  C_13
REMARK                            x       y       z     vdW  Elec       q    Type
REMARK                         _______ _______ _______ _____ _____    ______ ____
ROOT
ATOM      1  C   UNL     1       0.946   1.437   0.999  0.00  0.00    +0.200 C 
ENDROOT
BRANCH   1   3
ATOM      2  N   UNL     1       2.223   3.469   0.402  0.00  0.00    -0.315 N 
ATOM      3  C   UNL     1       2.225   2.140   0.626  0.00  0.00    +0.230 C 
ATOM      4  O   UNL     1       3.257   1.510   0.528  0.00  0.00    -0.274 OA
ATOM      5  H   UNL     1       1.398   3.973   0.480  0.00  0.00    +0.149 HD
BRANCH   2   6
ATOM      6  C   UNL     1       3.467   4.152   0.040  0.00  0.00    +0.094 C 
BRANCH   6   7
ATOM      7  C   UNL     1       3.176   5.629  -0.237  0.00  0.00    -0.014 C 
BRANCH   7   8
ATOM      8  C   UNL     1       2.743   6.304   1.039  0.00  0.00    -0.022 A 
ATOM      9  C   UNL     1       3.469   7.074   1.885  0.00  0.00    +0.009 A 
ATOM     10  C   UNL     1       2.856   7.598   3.008  0.00  0.00    +0.008 A 
ATOM     11  C   UNL     1       1.549   7.317   3.234  0.00  0.00    +0.045 A 
ATOM     12  S   UNL     1       1.144   6.289   1.832  0.00  0.00    -0.103 S 
ENDBRANCH   7   8
BRANCH   7  15
ATOM     13  C   UNL     1       1.798   7.144  -1.529  0.00  0.00    -0.096 C 
ATOM     14  C   UNL     1       2.452   5.008  -2.463  0.00  0.00    -0.096 C 
ATOM     15  N   UNL     1       2.080   5.725  -1.225  0.00  0.00    +0.382 N 
ATOM     16  H   UNL     1       1.236   5.294  -0.830  0.00  0.00    -0.082 HD
ENDBRANCH   7  15
ENDBRANCH   6   7
ENDBRANCH   2   6
ENDBRANCH   1   3
BRANCH   1  17
ATOM     17  N   UNL     1       1.211   0.008   1.187  0.00  0.00    -0.306 N 
ATOM     18  C   UNL     1       0.206  -0.824   1.527  0.00  0.00    +0.220 C 
ATOM     19  O   UNL     1      -0.916  -0.391   1.676  0.00  0.00    -0.275 OA
ATOM     20  H   UNL     1       2.109  -0.339   1.068  0.00  0.00    +0.149 HD
BRANCH  18  21
ATOM     21  C   UNL     1       0.479  -2.294   1.721  0.00  0.00    +0.049 C 
ATOM     22  C   UNL     1       1.027  -2.887   0.422  0.00  0.00    +0.019 C 
ATOM     23  C   UNL     1       1.304  -4.379   0.619  0.00  0.00    -0.008 C 
ATOM     24  C   UNL     1       2.332  -4.563   1.737  0.00  0.00    +0.007 C 
ATOM     25  C   UNL     1       1.783  -3.970   3.037  0.00  0.00    -0.008 C 
ATOM     26  C   UNL     1       1.507  -2.478   2.840  0.00  0.00    +0.019 C 
ATOM     27  C   UNL     1       0.484  -4.684   3.415  0.00  0.00    +0.026 C 
ATOM     28  C   UNL     1      -0.543  -4.500   2.297  0.00  0.00    +0.047 C 
ATOM     29  C   UNL     1       0.005  -5.093   0.997  0.00  0.00    +0.026 C 
ATOM     30  C   UNL     1      -0.820  -3.008   2.099  0.00  0.00    +0.039 C 
ATOM     31 CL   UNL     1      -2.075  -5.341   2.742  0.00  0.00    -0.118 Cl
ENDBRANCH  18  21
ENDBRANCH   1  17
TORSDOF 7
