REMARK  Name = ZINC63061764
REMARK  8 active torsions:
REMARK  status: ('A' for Active; 'I' for Inactive)
REMARK    1  A    between atoms: C_1  and  C_2
REMARK    2  A    between atoms: C_2  and  C_3
REMARK    3  A    between atoms: C_3  and  C_5
REMARK    4  A    between atoms: C_3  and  N_22
REMARK    5  A    between atoms: C_5  and  C_7
REMARK    6  A    between atoms: C_5  and  O_13
REMARK    7  A    between atoms: O_13  and  C_14
REMARK    8  A    between atoms: C_19  and  C_20
REMARK                            x       y       z     vdW  Elec       q    Type
REMARK                         _______ _______ _______ _____ _____    ______ ____
ROOT
ATOM      1  C   UNL     1      -1.487  -2.142   0.210  0.00  0.00    +0.207 C 
ENDROOT
BRANCH   1   2
ATOM      2  C   UNL     1      -0.840  -2.735   1.435  0.00  0.00    +0.080 A 
ATOM      3  C   UNL     1      -1.539  -3.646   2.204  0.00  0.00    +0.027 A 
ATOM      4  C   UNL     1      -0.934  -4.185   3.329  0.00  0.00    +0.003 A 
ATOM      5  C   UNL     1       0.357  -3.786   3.640  0.00  0.00    +0.020 A 
ATOM      6  C   UNL     1       0.993  -2.871   2.824  0.00  0.00    +0.111 A 
ATOM      7  N   UNL     1       0.389  -2.382   1.758  0.00  0.00    -0.256 NA
ENDBRANCH   1   2
BRANCH   1   8
ATOM      8  C   UNL     1      -1.422  -0.616   0.287  0.00  0.00    -0.028 C 
BRANCH   8   9
ATOM      9  N   UNL     1      -2.133  -0.155   1.487  0.00  0.00    +0.383 N 
ATOM     10  H   UNL     1      -3.098  -0.448   1.440  0.00  0.00    -0.089 HD
ATOM     11  H   UNL     1      -1.701  -0.552   2.308  0.00  0.00    -0.089 HD
ATOM     12  H   UNL     1      -2.090   0.852   1.537  0.00  0.00    -0.089 HD
ENDBRANCH   8   9
BRANCH   8  14
ATOM     13  C   UNL     1      -1.895   1.505  -0.946  0.00  0.00    +0.002 C 
ATOM     14  C   UNL     1      -2.077  -0.014  -0.957  0.00  0.00    -0.016 C 
ENDBRANCH   8  14
ENDBRANCH   1   8
BRANCH   1  15
ATOM     15  O   UNL     1      -2.853  -2.558   0.145  0.00  0.00    -0.484 OA
BRANCH  15  16
ATOM     16  C   UNL     1      -3.366  -2.799  -1.091  0.00  0.00    +0.124 A 
ATOM     17  C   UNL     1      -2.566  -2.653  -2.215  0.00  0.00    +0.047 A 
ATOM     18  C   UNL     1      -3.090  -2.899  -3.470  0.00  0.00    +0.019 A 
ATOM     19  C   UNL     1      -4.410  -3.290  -3.605  0.00  0.00    +0.018 A 
ATOM     20  C   UNL     1      -5.209  -3.435  -2.485  0.00  0.00    +0.022 A 
ATOM     21  C   UNL     1      -4.687  -3.197  -1.228  0.00  0.00    -0.008 A 
ATOM     22  C   UNL     1      -5.556  -3.362  -0.008  0.00  0.00    +0.047 C 
ATOM     23 BR   UNL     1      -5.124  -3.626  -5.324  0.00  0.00    -0.050 Br
ENDBRANCH  15  16
ENDBRANCH   1  15
TORSDOF 6
