REMARK  Name = ZINC04229845
REMARK  8 active torsions:
REMARK  status: ('A' for Active; 'I' for Inactive)
REMARK    1  A    between atoms: C_3  and  O_26
REMARK    2  A    between atoms: C_6  and  C_7
REMARK    3  A    between atoms: N_8  and  N_9
REMARK    4  A    between atoms: C_10  and  C_12
REMARK    5  A    between atoms: N_14  and  C_15
REMARK    6  A    between atoms: C_16  and  C_24
REMARK    7  A    between atoms: O_26  and  C_27
REMARK    8  A    between atoms: C_27  and  C_29
REMARK                            x       y       z     vdW  Elec       q    Type
REMARK                         _______ _______ _______ _____ _____    ______ ____
ROOT
ATOM      1  N   UNL     1      -2.497  -2.713   0.066  0.00  0.00    -0.199 N 
ATOM      2  C   UNL     1      -2.492  -4.058   0.150  0.00  0.00    +0.318 C 
ATOM      3  O   UNL     1      -1.438  -4.658   0.224  0.00  0.00    -0.263 OA
ATOM      4  H   UNL     1      -3.339  -2.234   0.006  0.00  0.00    +0.178 HD
ENDROOT
BRANCH   2   5
ATOM      5  C   UNL     1      -3.779  -4.809   0.151  0.00  0.00    +0.305 C 
ATOM      6  O   UNL     1      -4.832  -4.210   0.077  0.00  0.00    -0.265 OA
ATOM      7  N   UNL     1      -3.774  -6.155   0.235  0.00  0.00    -0.271 N 
ATOM      8  H   UNL     1      -2.932  -6.634   0.294  0.00  0.00    +0.156 HD
BRANCH   7   9
ATOM      9  C   UNL     1      -4.970  -6.853   0.236  0.00  0.00    +0.090 A 
ATOM     10  C   UNL     1      -5.178  -8.224   0.320  0.00  0.00    +0.084 A 
ATOM     11  C   UNL     1      -6.549  -8.704   0.300  0.00  0.00    -0.018 A 
ATOM     12  C   UNL     1      -7.512  -7.760   0.200  0.00  0.00    -0.004 A 
ATOM     13  S   UNL     1      -6.635  -6.221   0.139  0.00  0.00    -0.077 S 
ATOM     14  C   UNL     1      -8.993  -7.976   0.157  0.00  0.00    +0.043 C 
ATOM     15  C   UNL     1      -9.258  -9.460  -0.131  0.00  0.00    +0.005 C 
ATOM     16  C   UNL     1      -8.383 -10.305   0.799  0.00  0.00    +0.005 C 
ATOM     17  C   UNL     1      -6.916 -10.183   0.386  0.00  0.00    +0.037 C 
BRANCH  10  18
ATOM     18  C   UNL     1      -4.078  -9.135   0.422  0.00  0.00    +0.102 C 
ATOM     19  N   UNL     1      -3.205  -9.857   0.503  0.00  0.00    -0.191 NA
ENDBRANCH  10  18
ENDBRANCH   7   9
ENDBRANCH   2   5
BRANCH   1  21
ATOM     20  C   UNL     1      -1.292  -0.710  -0.017  0.00  0.00    +0.138 C 
ATOM     21  N   UNL     1      -1.287  -2.006   0.064  0.00  0.00    -0.187 NA
BRANCH  20  27
ATOM     22  C   UNL     1      -0.023   1.428  -0.105  0.00  0.00    +0.013 A 
ATOM     23  C   UNL     1       1.169   2.119  -0.105  0.00  0.00    +0.047 A 
ATOM     24  C   UNL     1       2.373   1.431  -0.020  0.00  0.00    +0.132 A 
ATOM     25  C   UNL     1       2.381   0.044   0.067  0.00  0.00    +0.047 A 
ATOM     26  C   UNL     1       1.194  -0.655   0.068  0.00  0.00    +0.013 A 
ATOM     27  C   UNL     1      -0.020   0.033  -0.018  0.00  0.00    -0.005 A 
BRANCH  24  28
ATOM     28  O   UNL     1       3.546   2.116  -0.022  0.00  0.00    -0.422 OA
BRANCH  28  29
ATOM     29  C   UNL     1       3.842   2.866   1.057  0.00  0.00    +0.344 C 
ATOM     30  O   UNL     1       3.122   2.834   2.035  0.00  0.00    -0.245 OA
BRANCH  29  31
ATOM     31  C   UNL     1       5.041   3.728   1.051  0.00  0.00    +0.059 A 
ATOM     32  C   UNL     1       5.868   3.771  -0.074  0.00  0.00    +0.016 A 
ATOM     33  C   UNL     1       6.986   4.577  -0.073  0.00  0.00    +0.021 A 
ATOM     34  C   UNL     1       7.291   5.343   1.040  0.00  0.00    +0.041 A 
ATOM     35  C   UNL     1       6.475   5.305   2.159  0.00  0.00    +0.021 A 
ATOM     36  C   UNL     1       5.350   4.507   2.168  0.00  0.00    +0.016 A 
ATOM     37 CL   UNL     1       8.701   6.356   1.032  0.00  0.00    -0.084 Cl
ENDBRANCH  29  31
ENDBRANCH  28  29
ENDBRANCH  24  28
ENDBRANCH  20  27
ENDBRANCH   1  21
TORSDOF 8
