REMARK  Name = ZINC08828082
REMARK  8 active torsions:
REMARK  status: ('A' for Active; 'I' for Inactive)
REMARK    1  A    between atoms: C_1  and  C_2
REMARK    2  A    between atoms: C_2  and  C_4
REMARK    3  A    between atoms: C_2  and  N_10
REMARK    4  A    between atoms: C_11  and  C_13
REMARK    5  A    between atoms: C_13  and  C_38
REMARK    6  A    between atoms: N_15  and  C_32
REMARK    7  A    between atoms: C_19  and  C_20
REMARK    8  A    between atoms: C_23  and  C_25
REMARK                            x       y       z     vdW  Elec       q    Type
REMARK                         _______ _______ _______ _____ _____    ______ ____
ROOT
ATOM      1  C   UNL     1       2.719  -1.006  -1.161  0.00  0.00    +0.144 C 
ATOM      2  C   UNL     1       1.835  -0.069  -0.615  0.00  0.00    +0.111 A 
ATOM      3  N   UNL     1       2.131   1.077   0.078  0.00  0.00    -0.269 N 
ATOM      4  C   UNL     1       1.157   1.854   0.526  0.00  0.00    +0.271 A 
ATOM      5  O   UNL     1       1.392   2.877   1.143  0.00  0.00    -0.266 OA
ATOM      6  C   UNL     1      -0.179   1.438   0.252  0.00  0.00    +0.082 A 
ATOM      7  C   UNL     1      -1.359   2.041   0.586  0.00  0.00    +0.066 C 
ATOM      8  S   UNL     1       0.101  -0.076  -0.651  0.00  0.00    -0.064 S 
ENDROOT
BRANCH   3   9
ATOM      9  C   UNL     1       3.467   1.427   0.313  0.00  0.00    +0.051 A 
ATOM     10  C   UNL     1       4.158   0.861   1.376  0.00  0.00    +0.026 A 
ATOM     11  C   UNL     1       5.477   1.204   1.601  0.00  0.00    +0.002 A 
ATOM     12  C   UNL     1       6.106   2.118   0.775  0.00  0.00    +0.000 A 
ATOM     13  C   UNL     1       5.419   2.687  -0.281  0.00  0.00    +0.002 A 
ATOM     14  C   UNL     1       4.101   2.345  -0.514  0.00  0.00    +0.026 A 
ENDBRANCH   3   9
BRANCH   7  15
ATOM     15  C   UNL     1      -1.362   3.151   1.457  0.00  0.00    +0.130 A 
ATOM     16  C   UNL     1      -2.460   3.933   1.770  0.00  0.00    +0.050 A 
ATOM     17  C   UNL     1      -2.017   4.912   2.663  0.00  0.00    +0.050 A 
ATOM     18  C   UNL     1      -0.670   4.699   2.857  0.00  0.00    +0.136 A 
ATOM     19  O   UNL     1      -0.294   3.636   2.124  0.00  0.00    -0.455 OA
BRANCH  18  20
ATOM     20  C   UNL     1       0.212   5.503   3.725  0.00  0.00    +0.017 A 
ATOM     21  C   UNL     1      -0.302   6.592   4.433  0.00  0.00    +0.011 A 
ATOM     22  C   UNL     1       0.527   7.336   5.245  0.00  0.00    +0.001 A 
ATOM     23  C   UNL     1       1.869   7.013   5.352  0.00  0.00    +0.000 A 
ATOM     24  C   UNL     1       2.387   5.939   4.649  0.00  0.00    +0.001 A 
ATOM     25  C   UNL     1       1.567   5.183   3.837  0.00  0.00    +0.011 A 
ENDBRANCH  18  20
ENDBRANCH   7  15
BRANCH   1  27
ATOM     26  N   UNL     1       3.055  -3.140  -2.281  0.00  0.00    -0.304 N 
ATOM     27  C   UNL     1       2.204  -2.237  -1.755  0.00  0.00    +0.257 C 
ATOM     28  O   UNL     1       1.004  -2.448  -1.776  0.00  0.00    -0.269 OA
ATOM     29  H   UNL     1       4.011  -2.973  -2.265  0.00  0.00    +0.150 HD
BRANCH  26  31
ATOM     30  C   UNL     1       2.148  -4.113  -4.334  0.00  0.00    +0.033 C 
ATOM     31  C   UNL     1       2.538  -4.374  -2.877  0.00  0.00    +0.100 C 
BRANCH  31  32
ATOM     32  C   UNL     1       3.602  -5.441  -2.826  0.00  0.00    -0.027 A 
ATOM     33  C   UNL     1       4.919  -5.116  -3.091  0.00  0.00    +0.005 A 
ATOM     34  C   UNL     1       5.895  -6.094  -3.039  0.00  0.00    +0.000 A 
ATOM     35  C   UNL     1       5.553  -7.397  -2.733  0.00  0.00    +0.000 A 
ATOM     36  C   UNL     1       4.234  -7.723  -2.474  0.00  0.00    +0.000 A 
ATOM     37  C   UNL     1       3.259  -6.745  -2.521  0.00  0.00    +0.005 A 
ENDBRANCH  31  32
ENDBRANCH  26  31
ENDBRANCH   1  27
BRANCH   1  38
ATOM     38  C   UNL     1       4.130  -0.759  -1.136  0.00  0.00    +0.107 C 
ATOM     39  N   UNL     1       5.248  -0.562  -1.117  0.00  0.00    -0.191 NA
ENDBRANCH   1  38
TORSDOF 7
