REMARK  Name = ZINC14533640
REMARK  10 active torsions:
REMARK  status: ('A' for Active; 'I' for Inactive)
REMARK    1  A    between atoms: C_1  and  C_2
REMARK    2  A    between atoms: C_2  and  C_3
REMARK    3  A    between atoms: C_2  and  C_4
REMARK    4  A    between atoms: C_4  and  C_5
REMARK    5  A    between atoms: C_5  and  N_6
REMARK    6  A    between atoms: N_9  and  C_28
REMARK    7  A    between atoms: C_17  and  C_18
REMARK    8  A    between atoms: C_17  and  N_64
REMARK    9  A    between atoms: C_28  and  C_29
REMARK   10  A    between atoms: C_28  and  C_30
REMARK                            x       y       z     vdW  Elec       q    Type
REMARK                         _______ _______ _______ _____ _____    ______ ____
ROOT
ATOM      1  N   UNL     1      -2.000   1.194   1.308  0.00  0.00    -0.271 N 
ATOM      2  C   UNL     1      -1.779   0.497   2.439  0.00  0.00    +0.312 C 
ATOM      3  O   UNL     1      -2.548  -0.334   2.881  0.00  0.00    -0.252 OA
ATOM      4  N   UNL     1      -0.619   0.823   3.021  0.00  0.00    -0.222 N 
ATOM      5  C   UNL     1       0.038   1.772   2.323  0.00  0.00    +0.247 C 
ATOM      6  O   UNL     1       1.109   2.272   2.592  0.00  0.00    -0.273 OA
ATOM      7  C   UNL     1      -0.843   2.080   1.135  0.00  0.00    +0.112 C 
ATOM      8  C   UNL     1      -0.114   1.761  -0.167  0.00  0.00    +0.017 C 
ATOM      9  C   UNL     1      -1.018   2.109  -1.353  0.00  0.00    -0.076 C 
ATOM     10  C   UNL     1      -2.146   3.831  -0.072  0.00  0.00    -0.076 C 
ATOM     11  C   UNL     1      -1.279   3.542   1.157  0.00  0.00    +0.017 C 
ATOM     12  N   UNL     1      -1.357   3.547  -1.290  0.00  0.00    +0.383 N 
ATOM     13  H   UNL     1      -0.488   4.093  -1.260  0.00  0.00    -0.081 HD
ENDROOT
BRANCH   4  14
ATOM     14  C   UNL     1      -0.123   0.223   4.263  0.00  0.00    +0.080 C 
ATOM     15  C   UNL     1      -1.121   0.489   5.391  0.00  0.00    +0.028 C 
ATOM     16  C   UNL     1       0.039  -1.286   4.071  0.00  0.00    +0.028 C 
ENDBRANCH   4  14
BRANCH   1  17
ATOM     17  C   UNL     1      -3.165   1.089   0.426  0.00  0.00    +0.110 C 
BRANCH  17  18
ATOM     18  C   UNL     1      -4.408   1.595   1.160  0.00  0.00    +0.022 C 
BRANCH  18  20
ATOM     19  C   UNL     1      -5.931   0.177  -0.222  0.00  0.00    +0.007 C 
ATOM     20  C   UNL     1      -5.598   1.609   0.198  0.00  0.00    -0.016 C 
ATOM     21  C   UNL     1      -6.810   2.231   0.895  0.00  0.00    +0.007 C 
ENDBRANCH  18  20
ENDBRANCH  17  18
ENDBRANCH   1  17
BRANCH  12  22
ATOM     22  C   UNL     1      -2.126   3.936  -2.491  0.00  0.00    -0.041 C 
BRANCH  22  23
ATOM     23  C   UNL     1      -2.692   5.318  -2.287  0.00  0.00    -0.039 A 
ATOM     24  C   UNL     1      -3.956   5.621  -1.951  0.00  0.00    +0.085 A 
ATOM     25  N   UNL     1      -4.101   6.978  -1.854  0.00  0.00    -0.360 N 
ATOM     26  H   UNL     1      -4.923   7.436  -1.621  0.00  0.00    +0.165 HD
ATOM     27  C   UNL     1      -2.905   7.598  -2.141  0.00  0.00    +0.047 A 
ATOM     28  C   UNL     1      -1.970   6.585  -2.425  0.00  0.00    +0.001 A 
ATOM     29  C   UNL     1      -0.656   6.922  -2.753  0.00  0.00    +0.010 A 
ATOM     30  C   UNL     1      -0.283   8.236  -2.797  0.00  0.00    +0.001 A 
ATOM     31  C   UNL     1      -1.201   9.239  -2.518  0.00  0.00    +0.002 A 
ATOM     32  C   UNL     1      -2.504   8.928  -2.192  0.00  0.00    +0.026 A 
ENDBRANCH  22  23
ENDBRANCH  12  22
TORSDOF 6
