REMARK  Name = ZINC40055960
REMARK  8 active torsions:
REMARK  status: ('A' for Active; 'I' for Inactive)
REMARK    1  A    between atoms: C_1  and  C_2
REMARK    2  A    between atoms: C_2  and  C_3
REMARK    3  A    between atoms: C_3  and  C_4
REMARK    4  A    between atoms: C_10  and  C_27
REMARK    5  A    between atoms: C_18  and  C_25
REMARK    6  A    between atoms: C_30  and  O_35
REMARK    7  A    between atoms: C_31  and  O_33
REMARK    8  A    between atoms: O_33  and  C_34
REMARK                            x       y       z     vdW  Elec       q    Type
REMARK                         _______ _______ _______ _____ _____    ______ ____
ROOT
ATOM      1  C   UNL     1       0.739  -2.004  -1.265  0.00  0.00    +0.104 A 
ATOM      2  N   UNL     1      -0.127  -2.861  -1.772  0.00  0.00    -0.145 NA
ATOM      3  N   UNL     1       0.039  -4.109  -1.694  0.00  0.00    -0.125 NA
ATOM      4  C   UNL     1       1.098  -4.637  -1.095  0.00  0.00    +0.191 A 
ATOM      5  S   UNL     1       1.949  -3.142  -0.597  0.00  0.00    -0.035 S 
ATOM      6  N   UNL     1       1.450  -5.968  -0.912  0.00  0.00    -0.230 N 
ATOM      7  C   UNL     1       0.682  -7.136  -1.375  0.00  0.00    +0.152 C 
ATOM      8  C   UNL     1       1.462  -8.334  -0.939  0.00  0.00    +0.072 A 
ATOM      9  C   UNL     1       1.201  -9.767  -1.099  0.00  0.00    +0.199 A 
ATOM     10  O   UNL     1       0.317 -10.209  -1.812  0.00  0.00    -0.287 OA
ATOM     11  C   UNL     1       2.117 -10.630  -0.311  0.00  0.00    +0.066 A 
ATOM     12  C   UNL     1       1.875 -11.999  -0.200  0.00  0.00    +0.035 A 
ATOM     13  C   UNL     1       2.733 -12.784   0.540  0.00  0.00    +0.045 A 
ATOM     14  C   UNL     1       3.831 -12.212   1.170  0.00  0.00    -0.029 A 
ATOM     15  C   UNL     1       4.080 -10.862   1.065  0.00  0.00    +0.051 A 
ATOM     16  C   UNL     1       3.228 -10.047   0.320  0.00  0.00    +0.140 A 
ATOM     17  O   UNL     1       3.502  -8.726   0.225  0.00  0.00    -0.450 OA
ATOM     18  C   UNL     1       2.579  -7.889  -0.289  0.00  0.00    +0.199 A 
ATOM     19  C   UNL     1       2.556  -6.417  -0.285  0.00  0.00    +0.289 C 
ATOM     20  O   UNL     1       3.409  -5.709   0.213  0.00  0.00    -0.266 OA
ATOM     21  C   UNL     1       4.761 -13.079   1.979  0.00  0.00    +0.045 C 
ATOM     22 CL   UNL     1       2.441 -14.489   0.685  0.00  0.00    -0.083 Cl
ENDROOT
BRANCH   7  23
ATOM     23  C   UNL     1      -0.685  -7.145  -0.740  0.00  0.00    -0.018 A 
ATOM     24  C   UNL     1      -0.836  -6.754   0.577  0.00  0.00    +0.009 A 
ATOM     25  C   UNL     1      -2.088  -6.760   1.164  0.00  0.00    +0.049 A 
ATOM     26  C   UNL     1      -3.195  -7.158   0.431  0.00  0.00    +0.158 A 
ATOM     27  C   UNL     1      -3.042  -7.551  -0.895  0.00  0.00    +0.162 A 
ATOM     28  C   UNL     1      -1.785  -7.538  -1.479  0.00  0.00    +0.055 A 
BRANCH  27  29
ATOM     29  O   UNL     1      -4.125  -7.942  -1.619  0.00  0.00    -0.491 OA
ATOM     30  C   UNL     1      -3.894  -8.332  -2.974  0.00  0.00    +0.277 C 
ENDBRANCH  27  29
BRANCH  26  31
ATOM     31  O   UNL     1      -4.427  -7.165   1.006  0.00  0.00    -0.503 OA
ATOM     32  H   UNL     1      -4.910  -6.332   0.911  0.00  0.00    +0.292 HD
ENDBRANCH  26  31
ENDBRANCH   7  23
BRANCH   1  33
ATOM     33  C   UNL     1       0.718  -0.497  -1.257  0.00  0.00    +0.064 C 
BRANCH  33  35
ATOM     34  C   UNL     1      -0.019   1.526   0.010  0.00  0.00    +0.004 C 
ATOM     35  C   UNL     1       0.002  -0.004   0.002  0.00  0.00    +0.003 C 
ENDBRANCH  33  35
ENDBRANCH   1  33
TORSDOF 5
