REMARK  Name = ZINC08658395
REMARK  12 active torsions:
REMARK  status: ('A' for Active; 'I' for Inactive)
REMARK    1  A    between atoms: C_1  and  C_2
REMARK    2  A    between atoms: C_2  and  C_3
REMARK    3  A    between atoms: C_2  and  C_4
REMARK    4  A    between atoms: C_4  and  C_6
REMARK    5  A    between atoms: C_4  and  S_12
REMARK    6  A    between atoms: S_12  and  C_13
REMARK    7  A    between atoms: C_16  and  C_24
REMARK    8  A    between atoms: N_17  and  C_18
REMARK    9  A    between atoms: C_27  and  C_30
REMARK   10  A    between atoms: C_30  and  C_31
REMARK   11  A    between atoms: C_30  and  C_32
REMARK   12  A    between atoms: C_30  and  C_33
REMARK                            x       y       z     vdW  Elec       q    Type
REMARK                         _______ _______ _______ _____ _____    ______ ____
ROOT
ATOM      1  C   UNL     1      -4.613   0.456   0.185  0.00  0.00    +0.197 A 
ATOM      2  N   UNL     1      -3.897  -0.590  -0.164  0.00  0.00    -0.122 NA
ATOM      3  N   UNL     1      -2.658  -0.265  -0.267  0.00  0.00    -0.128 NA
ATOM      4  C   UNL     1      -2.503   1.007   0.019  0.00  0.00    +0.169 A 
ATOM      5  N   UNL     1      -3.751   1.511   0.314  0.00  0.00    -0.270 N 
ENDROOT
BRANCH   5   6
ATOM      6  C   UNL     1      -4.071   2.828   0.672  0.00  0.00    +0.051 A 
ATOM      7  C   UNL     1      -3.597   3.360   1.863  0.00  0.00    +0.026 A 
ATOM      8  C   UNL     1      -3.910   4.659   2.211  0.00  0.00    +0.002 A 
ATOM      9  C   UNL     1      -4.703   5.427   1.378  0.00  0.00    +0.000 A 
ATOM     10  C   UNL     1      -5.181   4.898   0.193  0.00  0.00    +0.002 A 
ATOM     11  C   UNL     1      -4.867   3.601  -0.162  0.00  0.00    +0.026 A 
ENDBRANCH   5   6
BRANCH   4  12
ATOM     12  C   UNL     1      -1.230   1.759   0.017  0.00  0.00    +0.020 A 
ATOM     13  C   UNL     1      -0.013   1.076   0.008  0.00  0.00    +0.012 A 
ATOM     14  C   UNL     1       1.172   1.783   0.000  0.00  0.00    +0.005 A 
ATOM     15  C   UNL     1       1.155   3.167   0.008  0.00  0.00    -0.042 A 
ATOM     16  C   UNL     1      -0.048   3.850   0.023  0.00  0.00    +0.005 A 
ATOM     17  C   UNL     1      -1.240   3.155   0.031  0.00  0.00    +0.012 A 
BRANCH  15  18
ATOM     18  C   UNL     1       2.452   3.933  -0.001  0.00  0.00    -0.013 C 
ATOM     19  C   UNL     1       3.246   3.578  -1.260  0.00  0.00    +0.015 C 
ATOM     20  C   UNL     1       2.158   5.434   0.010  0.00  0.00    +0.015 C 
ATOM     21  C   UNL     1       3.271   3.564   1.238  0.00  0.00    +0.015 C 
ENDBRANCH  15  18
ENDBRANCH   4  12
BRANCH   1  22
ATOM     22  S   UNL     1      -6.356   0.493   0.438  0.00  0.00    -0.073 S 
BRANCH  22  23
ATOM     23  C   UNL     1      -6.762  -1.235   0.085  0.00  0.00    +0.143 C 
BRANCH  23  24
ATOM     24  C   UNL     1      -8.257  -1.418   0.123  0.00  0.00    +0.234 C 
ATOM     25  O   UNL     1      -8.952  -0.610   0.702  0.00  0.00    -0.274 OA
ATOM     26  N   UNL     1      -8.822  -2.479  -0.486  0.00  0.00    -0.239 N 
ATOM     27  C   UNL     1     -10.159  -2.642  -0.452  0.00  0.00    +0.303 C 
ATOM     28  O   UNL     1     -10.856  -1.833   0.128  0.00  0.00    -0.253 OA
ATOM     29  N   UNL     1     -10.724  -3.703  -1.061  0.00  0.00    -0.313 N 
ATOM     30  H   UNL     1      -8.266  -3.125  -0.949  0.00  0.00    +0.159 HD
ATOM     31  H   UNL     1     -10.168  -4.349  -1.524  0.00  0.00    +0.146 HD
ATOM     32  H   UNL     1     -11.687  -3.821  -1.037  0.00  0.00    +0.146 HD
ENDBRANCH  23  24
BRANCH  23  34
ATOM     33  C   UNL     1      -6.726  -1.848   2.507  0.00  0.00    +0.009 C 
ATOM     34  C   UNL     1      -6.111  -2.137   1.136  0.00  0.00    +0.005 C 
ATOM     35  C   UNL     1      -6.349  -3.603   0.769  0.00  0.00    +0.009 C 
ENDBRANCH  23  34
ENDBRANCH  22  23
ENDBRANCH   1  22
TORSDOF 7
