REMARK  Name = ZINC08399187
REMARK  9 active torsions:
REMARK  status: ('A' for Active; 'I' for Inactive)
REMARK    1  A    between atoms: C_1  and  C_2
REMARK    2  A    between atoms: C_3  and  C_29
REMARK    3  A    between atoms: C_4  and  C_22
REMARK    4  A    between atoms: C_6  and  C_20
REMARK    5  A    between atoms: C_7  and  S_9
REMARK    6  A    between atoms: S_9  and  C_10
REMARK    7  A    between atoms: C_10  and  C_11
REMARK    8  A    between atoms: N_13  and  C_14
REMARK    9  A    between atoms: N_31  and  C_32
REMARK                            x       y       z     vdW  Elec       q    Type
REMARK                         _______ _______ _______ _____ _____    ______ ____
ROOT
ATOM      1  C   UNL     1       2.134   0.983   0.899  0.00  0.00    +0.061 C 
ATOM      2  C   UNL     1       0.877   1.611   0.357  0.00  0.00    +0.014 C 
ATOM      3  C   UNL     1       0.925   2.852  -0.154  0.00  0.00    +0.044 C 
ATOM      4  C   UNL     1      -0.295   3.523  -0.717  0.00  0.00    +0.100 C 
ATOM      5  C   UNL     1      -1.545   2.818  -0.272  0.00  0.00    +0.069 C 
ATOM      6  C   UNL     1      -1.500   1.563   0.245  0.00  0.00    +0.080 C 
ATOM      7  N   UNL     1      -0.297   0.909   0.393  0.00  0.00    -0.312 N 
ATOM      8  H   UNL     1      -0.281  -0.181   0.540  0.00  0.00    +0.152 HD
ENDROOT
BRANCH   4   9
ATOM      9  C   UNL     1      -0.223   3.502  -2.222  0.00  0.00    -0.016 A 
ATOM     10  C   UNL     1      -0.160   2.296  -2.894  0.00  0.00    +0.006 A 
ATOM     11  C   UNL     1      -0.093   2.277  -4.275  0.00  0.00    +0.000 A 
ATOM     12  C   UNL     1      -0.090   3.463  -4.984  0.00  0.00    +0.001 A 
ATOM     13  C   UNL     1      -0.153   4.670  -4.313  0.00  0.00    +0.020 A 
ATOM     14  C   UNL     1      -0.225   4.690  -2.931  0.00  0.00    +0.045 A 
ATOM     15 CL   UNL     1      -0.311   6.205  -2.088  0.00  0.00    -0.083 Cl
ENDBRANCH   4   9
BRANCH   3  16
ATOM     16  C   UNL     1       2.159   3.546  -0.163  0.00  0.00    +0.247 C 
ATOM     17  O   UNL     1       3.158   3.017   0.289  0.00  0.00    -0.270 OA
ATOM     18  N   UNL     1       2.228   4.792  -0.672  0.00  0.00    -0.282 N 
ATOM     19  H   UNL     1       1.311   5.302  -1.003  0.00  0.00    +0.155 HD
BRANCH  18  20
ATOM     20  C   UNL     1       3.464   5.437  -0.779  0.00  0.00    +0.034 A 
ATOM     21  C   UNL     1       3.547   6.814  -0.623  0.00  0.00    +0.023 A 
ATOM     22  C   UNL     1       4.770   7.447  -0.724  0.00  0.00    +0.002 A 
ATOM     23  C   UNL     1       5.911   6.712  -0.991  0.00  0.00    +0.000 A 
ATOM     24  C   UNL     1       5.831   5.341  -1.152  0.00  0.00    +0.002 A 
ATOM     25  C   UNL     1       4.612   4.701  -1.046  0.00  0.00    +0.023 A 
ENDBRANCH  18  20
ENDBRANCH   3  16
BRANCH   5  26
ATOM     26  C   UNL     1      -2.808   3.481  -0.401  0.00  0.00    +0.098 C 
ATOM     27  N   UNL     1      -3.810   4.006  -0.503  0.00  0.00    -0.191 NA
ENDBRANCH   5  26
BRANCH   6  28
ATOM     28  S   UNL     1      -2.993   0.768   0.736  0.00  0.00    -0.100 S 
BRANCH  28  29
ATOM     29  C   UNL     1      -2.330  -0.808   1.329  0.00  0.00    +0.171 C 
BRANCH  29  30
ATOM     30  C   UNL     1      -3.461  -1.679   1.814  0.00  0.00    +0.227 C 
ATOM     31  O   UNL     1      -4.603  -1.273   1.764  0.00  0.00    -0.275 OA
ATOM     32  N   UNL     1      -3.204  -2.908   2.303  0.00  0.00    -0.285 N 
ATOM     33  H   UNL     1      -2.179  -3.306   2.279  0.00  0.00    +0.155 HD
BRANCH  32  34
ATOM     34  C   UNL     1      -4.240  -3.677   2.842  0.00  0.00    +0.033 A 
ATOM     35  C   UNL     1      -3.998  -4.507   3.929  0.00  0.00    +0.023 A 
ATOM     36  C   UNL     1      -5.025  -5.261   4.463  0.00  0.00    +0.002 A 
ATOM     37  C   UNL     1      -6.290  -5.200   3.908  0.00  0.00    +0.000 A 
ATOM     38  C   UNL     1      -6.533  -4.379   2.822  0.00  0.00    +0.002 A 
ATOM     39  C   UNL     1      -5.512  -3.618   2.288  0.00  0.00    +0.023 A 
ENDBRANCH  32  34
ENDBRANCH  29  30
ENDBRANCH  28  29
ENDBRANCH   6  28
TORSDOF 8
