REMARK  Name = ZINC02888458
REMARK  9 active torsions:
REMARK  status: ('A' for Active; 'I' for Inactive)
REMARK    1  A    between atoms: C_1  and  C_2
REMARK    2  A    between atoms: C_9  and  N_15
REMARK    3  A    between atoms: C_10  and  C_11
REMARK    4  A    between atoms: C_11  and  O_13
REMARK    5  A    between atoms: O_13  and  C_14
REMARK    6  A    between atoms: C_16  and  C_18
REMARK    7  A    between atoms: C_18  and  O_19
REMARK    8  A    between atoms: O_19  and  C_20
REMARK    9  A    between atoms: C_20  and  C_22
REMARK                            x       y       z     vdW  Elec       q    Type
REMARK                         _______ _______ _______ _____ _____    ______ ____
ROOT
ATOM      1  N   UNL     1      -2.307  -5.916   0.763  0.00  0.00    -0.277 N 
ATOM      2  C   UNL     1      -3.571  -6.203   0.396  0.00  0.00    +0.255 C 
ATOM      3  O   UNL     1      -4.299  -5.323  -0.012  0.00  0.00    -0.272 OA
ATOM      4  H   UNL     1      -1.725  -6.620   1.090  0.00  0.00    +0.155 HD
ENDROOT
BRANCH   1  12
ATOM      5  C   UNL     1      -0.019   1.526   0.010  0.00  0.00    +0.008 C 
ATOM      6  C   UNL     1       0.002  -0.004   0.002  0.00  0.00    -0.009 C 
ATOM      7  C   UNL     1       0.742  -0.514   1.242  0.00  0.00    +0.008 C 
ATOM      8  C   UNL     1       0.984  -2.020   1.121  0.00  0.00    +0.037 C 
ATOM      9  C   UNL     1      -0.341  -2.706   0.809  0.00  0.00    -0.021 A 
ATOM     10  C   UNL     1      -1.390  -2.006   0.327  0.00  0.00    -0.004 A 
ATOM     11  S   UNL     1      -2.678  -3.203   0.124  0.00  0.00    -0.077 S 
ATOM     12  C   UNL     1      -1.837  -4.615   0.672  0.00  0.00    +0.086 A 
ATOM     13  C   UNL     1      -0.579  -4.127   0.999  0.00  0.00    +0.091 A 
ATOM     14  C   UNL     1      -1.437  -0.538   0.031  0.00  0.00    +0.046 C 
BRANCH  13  15
ATOM     15  C   UNL     1       0.468  -5.011   1.515  0.00  0.00    +0.342 C 
ATOM     16  O   UNL     1       0.576  -5.191   2.713  0.00  0.00    -0.245 OA
BRANCH  15  17
ATOM     17  O   UNL     1       1.314  -5.624   0.662  0.00  0.00    -0.464 OA
ATOM     18  C   UNL     1       2.327  -6.486   1.244  0.00  0.00    +0.280 C 
ENDBRANCH  15  17
ENDBRANCH  13  15
ENDBRANCH   1  12
BRANCH   2  19
ATOM     19  C   UNL     1      -4.082  -7.618   0.495  0.00  0.00    +0.328 C 
BRANCH  19  20
ATOM     20  O   UNL     1      -5.461  -7.667   0.045  0.00  0.00    -0.452 OA
BRANCH  20  21
ATOM     21  C   UNL     1      -6.070  -8.869   0.070  0.00  0.00    +0.340 C 
ATOM     22  O   UNL     1      -5.465  -9.848   0.457  0.00  0.00    -0.245 OA
BRANCH  21  23
ATOM     23  C   UNL     1      -7.473  -8.995  -0.373  0.00  0.00    +0.060 A 
ATOM     24  C   UNL     1      -8.173  -7.869  -0.813  0.00  0.00    +0.016 A 
ATOM     25  C   UNL     1      -9.481  -7.994  -1.232  0.00  0.00    +0.022 A 
ATOM     26  C   UNL     1     -10.105  -9.230  -1.205  0.00  0.00    +0.059 A 
ATOM     27  C   UNL     1      -9.418 -10.350  -0.764  0.00  0.00    +0.060 A 
ATOM     28  C   UNL     1      -8.107 -10.239  -0.348  0.00  0.00    +0.036 A 
ATOM     29 CL   UNL     1     -10.209 -11.895  -0.734  0.00  0.00    -0.082 Cl
ATOM     30 CL   UNL     1     -11.755  -9.377  -1.727  0.00  0.00    -0.082 Cl
ENDBRANCH  21  23
ENDBRANCH  20  21
ENDBRANCH  19  20
ENDBRANCH   2  19
TORSDOF 7
