REMARK  Name = ZINC22846230
REMARK  10 active torsions:
REMARK  status: ('A' for Active; 'I' for Inactive)
REMARK    1  A    between atoms: C_1  and  C_2
REMARK    2  A    between atoms: C_2  and  C_3
REMARK    3  A    between atoms: C_2  and  C_4
REMARK    4  A    between atoms: C_4  and  N_5
REMARK    5  A    between atoms: N_5  and  C_6
REMARK    6  A    between atoms: C_7  and  N_22
REMARK    7  A    between atoms: N_8  and  C_15
REMARK    8  A    between atoms: C_15  and  C_16
REMARK    9  A    between atoms: C_23  and  C_25
REMARK   10  A    between atoms: C_25  and  N_26
REMARK                            x       y       z     vdW  Elec       q    Type
REMARK                         _______ _______ _______ _____ _____    ______ ____
ROOT
ATOM      1  N   UNL     1       2.659   3.954   0.219  0.00  0.00    -0.263 N 
ATOM      2  C   UNL     1       2.878   5.251  -0.081  0.00  0.00    +0.237 C 
ATOM      3  O   UNL     1       1.945   6.023  -0.154  0.00  0.00    -0.274 OA
ENDROOT
BRANCH   1   4
ATOM      4  C   UNL     1       1.339   3.471   0.339  0.00  0.00    +0.140 A 
ATOM      5  C   UNL     1       0.493   3.972   1.306  0.00  0.00    +0.128 A 
ATOM      6  N   UNL     1      -0.789   3.481   1.397  0.00  0.00    -0.276 N 
ATOM      7  C   UNL     1      -1.214   2.527   0.550  0.00  0.00    +0.331 A 
ATOM      8  O   UNL     1      -2.353   2.109   0.644  0.00  0.00    -0.246 OA
ATOM      9  N   UNL     1      -0.402   2.023  -0.396  0.00  0.00    -0.273 N 
ATOM     10  H   UNL     1      -0.768   1.237  -1.073  0.00  0.00    +0.173 HD
ATOM     11  C   UNL     1       0.862   2.469  -0.528  0.00  0.00    +0.277 A 
ATOM     12  O   UNL     1       1.589   2.008  -1.392  0.00  0.00    -0.266 OA
BRANCH   5  13
ATOM     13  N   UNL     1       0.925   4.950   2.169  0.00  0.00    -0.343 N 
ATOM     14  H   UNL     1       0.245   5.345   2.938  0.00  0.00    +0.144 HD
ATOM     15  H   UNL     1       1.952   5.338   2.091  0.00  0.00    +0.144 HD
ENDBRANCH   5  13
BRANCH   6  16
ATOM     16  C   UNL     1      -1.698   4.004   2.420  0.00  0.00    +0.163 C 
BRANCH  16  17
ATOM     17  C   UNL     1      -2.457   5.181   1.863  0.00  0.00    -0.028 A 
ATOM     18  C   UNL     1      -1.948   6.459   2.000  0.00  0.00    +0.005 A 
ATOM     19  C   UNL     1      -2.641   7.538   1.485  0.00  0.00    +0.000 A 
ATOM     20  C   UNL     1      -3.849   7.341   0.842  0.00  0.00    +0.000 A 
ATOM     21  C   UNL     1      -4.361   6.064   0.710  0.00  0.00    +0.000 A 
ATOM     22  C   UNL     1      -3.665   4.984   1.220  0.00  0.00    +0.005 A 
ENDBRANCH  16  17
ENDBRANCH   6  16
ENDBRANCH   1   4
BRANCH   1  23
ATOM     23  C   UNL     1       3.792   3.048   0.422  0.00  0.00    +0.117 C 
BRANCH  23  25
ATOM     24  C   UNL     1       3.070   2.425   2.731  0.00  0.00    +0.009 C 
ATOM     25  C   UNL     1       4.190   3.052   1.900  0.00  0.00    +0.001 C 
ATOM     26  C   UNL     1       5.476   2.243   2.083  0.00  0.00    +0.009 C 
ENDBRANCH  23  25
ENDBRANCH   1  23
BRANCH   2  27
ATOM     27  C   UNL     1       4.282   5.741  -0.328  0.00  0.00    +0.201 C 
BRANCH  27  28
ATOM     28  N   UNL     1       4.293   7.210  -0.338  0.00  0.00    -0.319 N 
ATOM     29  C   UNL     1       3.557   7.749   0.807  0.00  0.00    +0.106 C 
ATOM     30  C   UNL     1       3.627   9.280   0.759  0.00  0.00    +0.024 C 
ATOM     31  C   UNL     1       5.074   9.696   1.031  0.00  0.00    +0.038 C 
ATOM     32  C   UNL     1       6.008   8.867   0.186  0.00  0.00    -0.023 A 
ATOM     33  C   UNL     1       5.597   7.700  -0.432  0.00  0.00    +0.069 A 
ATOM     34  C   UNL     1       6.513   6.965  -1.190  0.00  0.00    +0.145 A 
ATOM     35  C   UNL     1       7.815   7.401  -1.324  0.00  0.00    +0.040 A 
ATOM     36  C   UNL     1       8.219   8.571  -0.708  0.00  0.00    +0.003 A 
ATOM     37  C   UNL     1       7.317   9.299   0.043  0.00  0.00    +0.005 A 
ATOM     38  F   UNL     1       6.121   5.822  -1.793  0.00  0.00    -0.204 F 
ENDBRANCH  27  28
ENDBRANCH   2  27
TORSDOF 8
