REMARK  Name = ZINC44025997
REMARK  2 active torsions:
REMARK  status: ('A' for Active; 'I' for Inactive)
REMARK    1  A    between atoms: C_9  and  C_11
REMARK    2  A    between atoms: C_12  and  C_13
REMARK                            x       y       z     vdW  Elec       q    Type
REMARK                         _______ _______ _______ _____ _____    ______ ____
ROOT
ATOM      1  C   UNL     1      -0.017   1.385   0.010  0.00  0.00    +0.021 A 
ATOM      2  C   UNL     1       1.179   2.079   0.002  0.00  0.00    +0.018 A 
ATOM      3  C   UNL     1       2.365   1.387  -0.013  0.00  0.00    +0.040 A 
ATOM      4  C   UNL     1       2.424  -0.027  -0.021  0.00  0.00    +0.080 A 
ATOM      5  C   UNL     1       1.181  -0.705  -0.013  0.00  0.00    +0.049 A 
ATOM      6  C   UNL     1       0.002  -0.004   0.002  0.00  0.00    +0.043 A 
ATOM      7 CL   UNL     1      -1.501  -0.873   0.012  0.00  0.00    -0.083 Cl
ATOM      8  N   UNL     1       3.660  -0.561  -0.036  0.00  0.00    -0.240 NA
ATOM      9  C   UNL     1       4.751   0.181  -0.042  0.00  0.00    +0.102 A 
ATOM     10  S   UNL     1       4.083   1.839  -0.027  0.00  0.00    -0.068 S 
ENDROOT
BRANCH   9  11
ATOM     11  C   UNL     1       6.153  -0.245  -0.058  0.00  0.00    +0.037 C 
ATOM     12  C   UNL     1       7.136   0.675  -0.062  0.00  0.00    +0.033 C 
BRANCH  12  13
ATOM     13  C   UNL     1       8.545   0.246  -0.078  0.00  0.00    +0.095 A 
ATOM     14  C   UNL     1       9.603   1.140  -0.078  0.00  0.00    +0.096 A 
ATOM     15  S   UNL     1      10.928   0.108  -0.099  0.00  0.00    +0.029 S 
ATOM     16  N   UNL     1      10.164  -1.317  -0.107  0.00  0.00    -0.110 NA
ATOM     17  N   UNL     1       8.910  -1.029  -0.088  0.00  0.00    -0.142 NA
ENDBRANCH  12  13
ENDBRANCH   9  11
TORSDOF 2
