REMARK  Name = ZINC11443758
REMARK  5 active torsions:
REMARK  status: ('A' for Active; 'I' for Inactive)
REMARK    1  A    between atoms: C_9  and  C_12
REMARK    2  A    between atoms: C_12  and  O_14
REMARK    3  A    between atoms: O_14  and  C_15
REMARK    4  A    between atoms: C_15  and  C_16
REMARK    5  A    between atoms: N_18  and  C_19
REMARK                            x       y       z     vdW  Elec       q    Type
REMARK                         _______ _______ _______ _____ _____    ______ ____
ROOT
ATOM      1  O   UNL     1      -1.196   2.119   0.045  0.00  0.00    -0.451 OA
ENDROOT
BRANCH   1   2
ATOM      2  C   UNL     1      -0.020   1.460   0.047  0.00  0.00    +0.348 C 
ATOM      3  O   UNL     1       1.026   2.082   0.045  0.00  0.00    -0.244 OA
BRANCH   2  12
ATOM      4  C   UNL     1       1.506  -4.566   0.037  0.00  0.00    +0.039 A 
ATOM      5  C   UNL     1       1.865  -3.256   0.037  0.00  0.00    +0.013 A 
ATOM      6  C   UNL     1       0.882  -2.234   0.041  0.00  0.00    +0.009 A 
ATOM      7  C   UNL     1      -0.469  -2.658   0.043  0.00  0.00    +0.024 A 
ATOM      8  C   UNL     1      -0.820  -3.990   0.043  0.00  0.00    +0.054 A 
ATOM      9  C   UNL     1       0.171  -4.956   0.040  0.00  0.00    +0.124 A 
ATOM     10  F   UNL     1      -0.156  -6.267   0.039  0.00  0.00    -0.205 F 
ATOM     11  S   UNL     1      -1.381  -1.135   0.048  0.00  0.00    -0.080 S 
ATOM     12  C   UNL     1      -0.000  -0.005   0.046  0.00  0.00    +0.116 A 
ATOM     13  C   UNL     1       1.076  -0.840   0.037  0.00  0.00    +0.070 A 
ATOM     14 CL   UNL     1       2.684  -0.186   0.026  0.00  0.00    -0.082 Cl
ENDBRANCH   2  12
ENDBRANCH   1   2
BRANCH   1  15
ATOM     15  C   UNL     1      -1.139   3.570   0.047  0.00  0.00    +0.328 C 
BRANCH  15  16
ATOM     16  C   UNL     1      -2.539   4.128   0.044  0.00  0.00    +0.255 C 
ATOM     17  O   UNL     1      -3.492   3.376   0.041  0.00  0.00    -0.272 OA
ATOM     18  N   UNL     1      -2.733   5.462   0.045  0.00  0.00    -0.280 N 
ATOM     19  H   UNL     1      -1.975   6.062   0.112  0.00  0.00    +0.155 HD
BRANCH  18  20
ATOM     20  C   UNL     1      -4.031   5.980  -0.052  0.00  0.00    +0.070 A 
ATOM     21  C   UNL     1      -5.093   5.312   0.540  0.00  0.00    +0.046 A 
ATOM     22  C   UNL     1      -6.372   5.829   0.448  0.00  0.00    +0.043 A 
ATOM     23  C   UNL     1      -6.595   7.007  -0.244  0.00  0.00    +0.023 A 
ATOM     24  C   UNL     1      -5.540   7.673  -0.840  0.00  0.00    +0.041 A 
ATOM     25  C   UNL     1      -4.258   7.163  -0.747  0.00  0.00    +0.145 A 
ATOM     26  F   UNL     1      -3.227   7.814  -1.329  0.00  0.00    -0.204 F 
ATOM     27 CL   UNL     1      -7.700   4.997   1.194  0.00  0.00    -0.083 Cl
ENDBRANCH  18  20
ENDBRANCH  15  16
ENDBRANCH   1  15
TORSDOF 5
