REMARK  Name = ZINC17113038
REMARK  7 active torsions:
REMARK  status: ('A' for Active; 'I' for Inactive)
REMARK    1  A    between atoms: C_1  and  C_2
REMARK    2  A    between atoms: C_3  and  C_23
REMARK    3  A    between atoms: N_6  and  C_7
REMARK    4  A    between atoms: C_7  and  C_9
REMARK    5  A    between atoms: C_9  and  C_10
REMARK    6  A    between atoms: C_10  and  N_11
REMARK    7  A    between atoms: C_23  and  C_25
REMARK                            x       y       z     vdW  Elec       q    Type
REMARK                         _______ _______ _______ _____ _____    ______ ____
ROOT
ATOM      1  C   UNL     1       3.376  -2.445  -0.330  0.00  0.00    +0.240 C 
ATOM      2  O   UNL     1       3.582  -1.246  -0.336  0.00  0.00    -0.274 OA
ENDROOT
BRANCH   1   8
ATOM      3  C   UNL     1      -0.017   1.502   0.024  0.00  0.00    +0.064 C 
ATOM      4  C   UNL     1       0.003  -0.004   0.006  0.00  0.00    +0.032 A 
ATOM      5  C   UNL     1      -1.147  -0.734   0.104  0.00  0.00    +0.076 A 
ATOM      6  S   UNL     1      -0.523  -2.404   0.029  0.00  0.00    -0.049 S 
ATOM      7  C   UNL     1       1.115  -2.054  -0.118  0.00  0.00    +0.164 A 
ATOM      8  N   UNL     1       2.135  -2.905  -0.220  0.00  0.00    -0.157 NA
ATOM      9  N   UNL     1       1.150  -0.690  -0.111  0.00  0.00    -0.339 N 
ATOM     10  H   UNL     1       1.996  -0.221  -0.188  0.00  0.00    +0.167 HD
BRANCH   5  11
ATOM     11  C   UNL     1      -2.482  -0.285   0.231  0.00  0.00    +0.168 C 
ATOM     12  O   UNL     1      -2.731   0.902   0.169  0.00  0.00    -0.292 OA
ATOM     13  C   UNL     1      -3.594  -1.279   0.444  0.00  0.00    +0.092 C 
ENDBRANCH   5  11
ENDBRANCH   1   8
BRANCH   1  14
ATOM     14  C   UNL     1       4.530  -3.408  -0.446  0.00  0.00    +0.119 C 
BRANCH  14  15
ATOM     15  C   UNL     1       5.839  -2.624  -0.558  0.00  0.00    +0.135 C 
BRANCH  15  16
ATOM     16  N   UNL     1       6.960  -3.560  -0.671  0.00  0.00    -0.301 N 
ATOM     17  C   UNL     1       7.592  -4.014   0.475  0.00  0.00    +0.059 A 
ATOM     18  C   UNL     1       7.293  -3.686   1.808  0.00  0.00    +0.027 A 
ATOM     19  C   UNL     1       8.017  -4.223   2.846  0.00  0.00    +0.002 A 
ATOM     20  C   UNL     1       9.062  -5.102   2.614  0.00  0.00    +0.001 A 
ATOM     21  C   UNL     1       9.378  -5.443   1.311  0.00  0.00    +0.017 A 
ATOM     22  C   UNL     1       8.655  -4.907   0.274  0.00  0.00    +0.041 A 
ATOM     23  S   UNL     1       8.719  -5.067  -1.494  0.00  0.00    -0.027 S 
ATOM     24  C   UNL     1       7.363  -3.974  -1.888  0.00  0.00    +0.292 A 
ATOM     25  O   UNL     1       6.916  -3.677  -2.981  0.00  0.00    -0.259 OA
ENDBRANCH  15  16
ENDBRANCH  14  15
ENDBRANCH   1  14
TORSDOF 5
