REMARK  Name = ZINC08122802
REMARK  4 active torsions:
REMARK  status: ('A' for Active; 'I' for Inactive)
REMARK    1  A    between atoms: C_3  and  C_11
REMARK    2  A    between atoms: C_4  and  N_8
REMARK    3  A    between atoms: N_13  and  N_14
REMARK    4  A    between atoms: C_15  and  C_17
REMARK                            x       y       z     vdW  Elec       q    Type
REMARK                         _______ _______ _______ _____ _____    ______ ____
ROOT
ATOM      1  C   UNL     1       5.024   5.236   0.180  0.00  0.00    +0.262 C 
ATOM      2  O   UNL     1       5.508   4.122   0.142  0.00  0.00    -0.269 OA
ATOM      3  N   UNL     1       3.692   5.389   0.315  0.00  0.00    -0.230 N 
ATOM      4  H   UNL     1       3.306   6.278   0.345  0.00  0.00    +0.173 HD
ENDROOT
BRANCH   1   7
ATOM      5  C   UNL     1       6.157   8.804  -0.112  0.00  0.00    +0.021 A 
ATOM      6  C   UNL     1       5.337   7.700  -0.016  0.00  0.00    +0.017 A 
ATOM      7  C   UNL     1       5.897   6.424   0.078  0.00  0.00    +0.068 A 
ATOM      8  C   UNL     1       7.286   6.276   0.080  0.00  0.00    +0.140 A 
ATOM      9  C   UNL     1       8.095   7.388  -0.021  0.00  0.00    +0.053 A 
ATOM     10  C   UNL     1       7.534   8.650  -0.114  0.00  0.00    +0.043 A 
ATOM     11 CL   UNL     1       8.559  10.046  -0.234  0.00  0.00    -0.083 Cl
BRANCH   8  12
ATOM     12  N   UNL     1       7.887   4.928   0.185  0.00  0.00    +0.057 N 
ATOM     13  O   UNL     1       7.530   4.169   1.069  0.00  0.00    -0.126 OA
ATOM     14  O   UNL     1       8.739   4.577  -0.611  0.00  0.00    -0.126 OA
ENDBRANCH   8  12
ENDBRANCH   1   7
BRANCH   3  15
ATOM     15  N   UNL     1       2.864   4.263   0.412  0.00  0.00    -0.229 N 
ATOM     16  C   UNL     1       1.532   4.415   0.547  0.00  0.00    +0.276 C 
ATOM     17  O   UNL     1       1.048   5.531   0.585  0.00  0.00    -0.267 OA
ATOM     18  H   UNL     1       3.250   3.373   0.382  0.00  0.00    +0.173 HD
BRANCH  16  19
ATOM     19  C   UNL     1       0.665   3.236   0.649  0.00  0.00    +0.104 A 
ATOM     20  C   UNL     1      -0.706   3.243   0.790  0.00  0.00    +0.047 A 
ATOM     21  C   UNL     1      -1.121   1.908   0.842  0.00  0.00    +0.036 A 
ATOM     22  C   UNL     1      -0.018   1.127   0.742  0.00  0.00    +0.098 A 
ATOM     23  N   UNL     1       1.073   1.922   0.621  0.00  0.00    -0.356 N 
ATOM     24  H   UNL     1       1.989   1.616   0.531  0.00  0.00    +0.166 HD
ATOM     25 BR   UNL     1      -2.903   1.301   1.022  0.00  0.00    -0.049 Br
ENDBRANCH  16  19
ENDBRANCH   3  15
TORSDOF 4
