REMARK  Name = ZINC60127466
REMARK  5 active torsions:
REMARK  status: ('A' for Active; 'I' for Inactive)
REMARK    1  A    between atoms: C_6  and  C_7
REMARK    2  A    between atoms: C_7  and  N_8
REMARK    3  A    between atoms: N_11  and  C_12
REMARK    4  A    between atoms: C_12  and  C_13
REMARK    5  A    between atoms: N_17  and  C_19
REMARK                            x       y       z     vdW  Elec       q    Type
REMARK                         _______ _______ _______ _____ _____    ______ ____
ROOT
ATOM      1  N   UNL     1      -1.727  -1.016  -1.368  0.00  0.00    -0.295 N 
ATOM      2  C   UNL     1      -2.868  -1.691  -1.607  0.00  0.00    +0.300 C 
ATOM      3  O   UNL     1      -3.539  -2.099  -0.679  0.00  0.00    -0.253 OA
ATOM      4  N   UNL     1      -3.267  -1.913  -2.875  0.00  0.00    -0.299 N 
ATOM      5  H   UNL     1      -1.192  -0.690  -2.109  0.00  0.00    +0.151 HD
ATOM      6  H   UNL     1      -2.732  -1.588  -3.616  0.00  0.00    +0.150 HD
ENDROOT
BRANCH   1   7
ATOM      7  C   UNL     1      -1.294  -0.774   0.010  0.00  0.00    +0.141 C 
BRANCH   7  13
ATOM      8  C   UNL     1      -0.017   1.378   0.010  0.00  0.00    +0.009 A 
ATOM      9  C   UNL     1       1.170   2.088   0.002  0.00  0.00    +0.050 A 
ATOM     10  C   UNL     1       2.380   1.416  -0.013  0.00  0.00    +0.166 A 
ATOM     11  C   UNL     1       2.399   0.023  -0.021  0.00  0.00    +0.167 A 
ATOM     12  C   UNL     1       1.207  -0.682  -0.014  0.00  0.00    +0.054 A 
ATOM     13  C   UNL     1       0.002  -0.004   0.002  0.00  0.00    -0.027 A 
ATOM     14  O   UNL     1       3.698  -0.395  -0.036  0.00  0.00    -0.453 OA
ATOM     15  C   UNL     1       4.466   0.750  -0.450  0.00  0.00    +0.466 C 
ATOM     16  O   UNL     1       3.668   1.870  -0.024  0.00  0.00    -0.453 OA
ENDBRANCH   7  13
ENDBRANCH   1   7
BRANCH   4  17
ATOM     17  C   UNL     1      -4.508  -2.648  -3.135  0.00  0.00    +0.110 C 
BRANCH  17  18
ATOM     18  C   UNL     1      -4.726  -2.761  -4.645  0.00  0.00    +0.025 C 
ATOM     19  C   UNL     1      -3.670  -3.700  -5.284  0.00  0.00    +0.025 C 
ATOM     20  C   UNL     1      -4.423  -4.207  -6.540  0.00  0.00    +0.105 C 
ATOM     21  N   UNL     1      -5.822  -4.362  -6.103  0.00  0.00    -0.329 N 
ATOM     22  C   UNL     1      -6.060  -3.475  -4.952  0.00  0.00    +0.110 C 
BRANCH  21  23
ATOM     23  C   UNL     1      -6.769  -5.207  -6.689  0.00  0.00    +0.033 A 
ATOM     24  C   UNL     1      -8.063  -5.257  -6.185  0.00  0.00    +0.026 A 
ATOM     25  C   UNL     1      -8.998  -6.093  -6.764  0.00  0.00    +0.043 A 
ATOM     26  C   UNL     1      -8.647  -6.882  -7.846  0.00  0.00    +0.159 A 
ATOM     27  C   UNL     1      -7.357  -6.835  -8.351  0.00  0.00    +0.160 A 
ATOM     28  C   UNL     1      -6.420  -5.994  -7.778  0.00  0.00    +0.064 A 
ATOM     29  F   UNL     1      -7.016  -7.606  -9.407  0.00  0.00    -0.202 F 
ATOM     30  F   UNL     1      -9.564  -7.699  -8.410  0.00  0.00    -0.202 F 
ENDBRANCH  21  23
ENDBRANCH  17  18
ENDBRANCH   4  17
TORSDOF 5
