REMARK  Name = ZINC61781558
REMARK  5 active torsions:
REMARK  status: ('A' for Active; 'I' for Inactive)
REMARK    1  A    between atoms: C_1  and  N_2
REMARK    2  A    between atoms: N_2  and  C_3
REMARK    3  A    between atoms: N_2  and  C_11
REMARK    4  A    between atoms: C_3  and  C_4
REMARK    5  A    between atoms: C_11  and  C_12
REMARK                            x       y       z     vdW  Elec       q    Type
REMARK                         _______ _______ _______ _____ _____    ______ ____
ROOT
ATOM      1  C   UNL     1       0.600  -0.516  -1.239  0.00  0.00    +0.139 C 
ENDROOT
BRANCH   1   2
ATOM      2  C   UNL     1      -0.286  -0.163  -2.406  0.00  0.00    +0.048 A 
ATOM      3  C   UNL     1      -1.234  -0.960  -2.945  0.00  0.00    +0.115 A 
ATOM      4  N   UNL     1      -1.806  -0.267  -3.977  0.00  0.00    -0.308 N 
ATOM      5  C   UNL     1      -2.800  -0.578  -4.859  0.00  0.00    +0.092 A 
ATOM      6  C   UNL     1      -3.183   0.307  -5.803  0.00  0.00    +0.018 A 
ATOM      7  C   UNL     1      -2.559   1.563  -5.891  0.00  0.00    +0.005 A 
ATOM      8  C   UNL     1      -1.567   1.886  -5.019  0.00  0.00    +0.045 A 
ATOM      9  C   UNL     1      -1.179   0.951  -4.038  0.00  0.00    +0.115 A 
ATOM     10  N   UNL     1      -0.269   0.992  -3.075  0.00  0.00    -0.342 N 
ATOM     11  H   UNL     1       0.318   1.742  -2.889  0.00  0.00    +0.167 HD
ENDBRANCH   1   2
BRANCH   1  13
ATOM     12  C   UNL     1      -0.018   1.465   0.010  0.00  0.00    +0.105 C 
ATOM     13  N   UNL     1       0.002  -0.004   0.002  0.00  0.00    -0.296 NA
BRANCH  13  14
ATOM     14  C   UNL     1       0.706  -0.527   1.180  0.00  0.00    +0.121 C 
BRANCH  14  15
ATOM     15  C   UNL     1      -0.073  -0.186   2.424  0.00  0.00    -0.015 A 
ATOM     16  C   UNL     1       0.304   0.892   3.202  0.00  0.00    +0.006 A 
ATOM     17  C   UNL     1      -0.411   1.205   4.343  0.00  0.00    +0.000 A 
ATOM     18  C   UNL     1      -1.504   0.440   4.706  0.00  0.00    +0.001 A 
ATOM     19  C   UNL     1      -1.882  -0.638   3.929  0.00  0.00    +0.020 A 
ATOM     20  C   UNL     1      -1.170  -0.949   2.784  0.00  0.00    +0.045 A 
ATOM     21 CL   UNL     1      -1.649  -2.299   1.803  0.00  0.00    -0.083 Cl
ENDBRANCH  14  15
ENDBRANCH  13  14
ENDBRANCH   1  13
TORSDOF 4
