REMARK  Name = ZINC14883541
REMARK  9 active torsions:
REMARK  status: ('A' for Active; 'I' for Inactive)
REMARK    1  A    between atoms: C_1  and  C_2
REMARK    2  A    between atoms: C_2  and  C_3
REMARK    3  A    between atoms: C_3  and  C_4
REMARK    4  A    between atoms: C_4  and  C_18
REMARK    5  A    between atoms: N_7  and  C_11
REMARK    6  A    between atoms: C_11  and  C_12
REMARK    7  A    between atoms: C_23  and  C_24
REMARK    8  A    between atoms: C_23  and  N_63
REMARK    9  A    between atoms: C_27  and  O_31
REMARK                            x       y       z     vdW  Elec       q    Type
REMARK                         _______ _______ _______ _____ _____    ______ ____
ROOT
ATOM      1  C   UNL     1      -2.956   1.630  -2.413  0.00  0.00    +0.115 C 
ATOM      2  C   UNL     1      -2.814   3.138  -2.487  0.00  0.00    +0.247 C 
ATOM      3  O   UNL     1      -3.178   3.949  -1.663  0.00  0.00    -0.273 OA
ATOM      4  N   UNL     1      -2.199   3.388  -3.660  0.00  0.00    -0.222 N 
ATOM      5  C   UNL     1      -1.935   2.260  -4.329  0.00  0.00    +0.309 C 
ATOM      6  O   UNL     1      -1.385   2.230  -5.413  0.00  0.00    -0.252 OA
ATOM      7  N   UNL     1      -2.349   1.159  -3.670  0.00  0.00    -0.285 N 
ATOM      8  H   UNL     1      -2.265   0.238  -3.963  0.00  0.00    +0.151 HD
ENDROOT
BRANCH   1   9
ATOM      9  C   UNL     1      -2.194   1.077  -1.207  0.00  0.00    +0.018 C 
ATOM     10  C   UNL     1      -0.752   1.593  -1.232  0.00  0.00    -0.013 C 
ATOM     11  C   UNL     1      -0.013   1.086   0.008  0.00  0.00    -0.078 C 
ATOM     12  C   UNL     1      -2.071   1.038   1.287  0.00  0.00    -0.078 C 
ATOM     13  C   UNL     1      -2.872   1.544   0.085  0.00  0.00    -0.013 C 
ATOM     14  N   UNL     1      -0.701   1.589   1.216  0.00  0.00    +0.382 N 
ATOM     15  H   UNL     1      -0.755   2.613   1.165  0.00  0.00    -0.081 HD
BRANCH  14  16
ATOM     16  C   UNL     1       0.059   1.209   2.425  0.00  0.00    -0.043 C 
BRANCH  16  17
ATOM     17  C   UNL     1      -0.538   1.914   3.615  0.00  0.00    -0.062 A 
ATOM     18  C   UNL     1      -0.079   3.167   3.977  0.00  0.00    +0.005 A 
ATOM     19  C   UNL     1      -0.627   3.818   5.064  0.00  0.00    +0.047 A 
ATOM     20  C   UNL     1      -1.633   3.210   5.801  0.00  0.00    +0.135 A 
ATOM     21  C   UNL     1      -2.089   1.950   5.440  0.00  0.00    +0.082 A 
ATOM     22  C   UNL     1      -1.540   1.305   4.347  0.00  0.00    +0.025 A 
ATOM     23 CL   UNL     1      -3.348   1.185   6.359  0.00  0.00    -0.080 Cl
BRANCH  20  24
ATOM     24  O   UNL     1      -2.171   3.846   6.875  0.00  0.00    -0.505 OA
ATOM     25  H   UNL     1      -1.718   3.661   7.709  0.00  0.00    +0.292 HD
ENDBRANCH  20  24
ENDBRANCH  16  17
ENDBRANCH  14  16
ENDBRANCH   1   9
BRANCH   1  26
ATOM     26  C   UNL     1      -4.432   1.231  -2.344  0.00  0.00    +0.035 C 
BRANCH  26  28
ATOM     27  C   UNL     1      -6.619   1.289  -3.551  0.00  0.00    +0.004 C 
ATOM     28  C   UNL     1      -5.143   1.688  -3.619  0.00  0.00    -0.001 C 
ENDBRANCH  26  28
ENDBRANCH   1  26
BRANCH   4  29
ATOM     29  C   UNL     1      -1.862   4.729  -4.143  0.00  0.00    +0.149 C 
BRANCH  29  30
ATOM     30  C   UNL     1      -0.462   5.109  -3.656  0.00  0.00    +0.136 C 
ATOM     31  C   UNL     1      -0.146   6.566  -4.057  0.00  0.00    +0.035 C 
ATOM     32  C   UNL     1       1.352   6.477  -4.463  0.00  0.00    +0.031 C 
ATOM     33  C   UNL     1       1.407   5.056  -5.079  0.00  0.00    +0.160 C 
ATOM     34  O   UNL     1       0.514   4.266  -4.278  0.00  0.00    -0.375 OA
ENDBRANCH  29  30
ENDBRANCH   4  29
TORSDOF 8
