REMARK  Name = ZINC20836414
REMARK  5 active torsions:
REMARK  status: ('A' for Active; 'I' for Inactive)
REMARK    1  A    between atoms: C_12  and  C_14
REMARK    2  A    between atoms: C_14  and  C_15
REMARK    3  A    between atoms: C_15  and  S_16
REMARK    4  A    between atoms: S_16  and  C_17
REMARK    5  A    between atoms: N_22  and  N_23
REMARK                            x       y       z     vdW  Elec       q    Type
REMARK                         _______ _______ _______ _____ _____    ______ ____
ROOT
ATOM      1  C   UNL     1       5.664   3.636   0.853  0.00  0.00    +0.086 C 
ENDROOT
BRANCH   1   2
ATOM      2  C   UNL     1       7.190   3.632   0.953  0.00  0.00    +0.107 C 
BRANCH   2  14
ATOM      3  C   UNL     1      12.367  10.190   2.532  0.00  0.00    +0.017 A 
ATOM      4  C   UNL     1      12.243   8.850   2.271  0.00  0.00    +0.030 A 
ATOM      5  C   UNL     1      10.970   8.266   2.078  0.00  0.00    +0.080 A 
ATOM      6  C   UNL     1       9.862   9.139   2.170  0.00  0.00    +0.042 A 
ATOM      7  C   UNL     1       9.995  10.479   2.431  0.00  0.00    +0.032 A 
ATOM      8  C   UNL     1      11.256  11.018   2.615  0.00  0.00    +0.019 A 
ATOM      9 BR   UNL     1      11.464  12.862   2.976  0.00  0.00    -0.050 Br
ATOM     10  S   UNL     1       8.494   8.047   1.865  0.00  0.00    -0.052 S 
ATOM     11  C   UNL     1       9.445   6.549   1.653  0.00  0.00    +0.165 A 
ATOM     12  N   UNL     1      10.677   6.974   1.814  0.00  0.00    -0.225 NA
ATOM     13  N   UNL     1       8.997   5.266   1.381  0.00  0.00    -0.265 N 
ATOM     14  C   UNL     1       7.678   5.027   1.249  0.00  0.00    +0.219 C 
ATOM     15  O   UNL     1       6.882   5.935   1.368  0.00  0.00    -0.275 OA
ATOM     16  H   UNL     1       9.719   4.443   1.272  0.00  0.00    +0.157 HD
ENDBRANCH   2  14
ENDBRANCH   1   2
BRANCH   1  17
ATOM     17  S   UNL     1       5.077   1.956   0.497  0.00  0.00    -0.084 S 
BRANCH  17  18
ATOM     18  C   UNL     1       3.325   2.125   0.414  0.00  0.00    +0.210 A 
ATOM     19  N   UNL     1       2.433   1.121   0.166  0.00  0.00    -0.186 NA
ATOM     20  C   UNL     1       1.176   1.659   0.184  0.00  0.00    +0.232 A 
ATOM     21  N   UNL     1       1.288   2.942   0.428  0.00  0.00    -0.245 N 
ATOM     22  N   UNL     1       2.649   3.237   0.579  0.00  0.00    -0.144 NA
ATOM     23  N   UNL     1      -0.010   0.969  -0.025  0.00  0.00    -0.205 N 
ATOM     24  H   UNL     1       0.011  -0.113  -0.224  0.00  0.00    +0.177 HD
ATOM     25  H   UNL     1       0.388   3.573   0.480  0.00  0.00    +0.192 HD
BRANCH  23  26
ATOM     26  N   UNL     1      -1.234   1.650   0.017  0.00  0.00    -0.189 NA
ATOM     27  C   UNL     1      -2.332   0.998  -0.073  0.00  0.00    +0.037 C 
ATOM     28  C   UNL     1      -2.338  -0.514  -0.083  0.00  0.00    +0.052 C 
ATOM     29  C   UNL     1      -3.337  -1.000   0.979  0.00  0.00    +0.006 C 
ATOM     30  C   UNL     1      -4.703  -0.363   0.720  0.00  0.00    +0.001 C 
ATOM     31  C   UNL     1      -4.606   1.155   0.883  0.00  0.00    +0.006 C 
ATOM     32  C   UNL     1      -3.657   1.722  -0.177  0.00  0.00    +0.052 C 
ENDBRANCH  23  26
ENDBRANCH  17  18
ENDBRANCH   1  17
TORSDOF 5
