REMARK  Name = ZINC05649553
REMARK  3 active torsions:
REMARK  status: ('A' for Active; 'I' for Inactive)
REMARK    1  A    between atoms: C_6  and  S_7
REMARK    2  A    between atoms: S_7  and  C_8
REMARK    3  A    between atoms: C_11  and  C_13
REMARK                            x       y       z     vdW  Elec       q    Type
REMARK                         _______ _______ _______ _____ _____    ______ ____
ROOT
ATOM      1  C   UNL     1       6.744  -0.229   0.175  0.00  0.00    +0.167 A 
ATOM      2  C   UNL     1       7.800   0.635   0.231  0.00  0.00    +0.057 A 
ATOM      3  C   UNL     1       7.279   1.930   0.167  0.00  0.00    +0.050 A 
ATOM      4  C   UNL     1       5.903   1.801   0.074  0.00  0.00    +0.131 A 
ATOM      5  O   UNL     1       5.607   0.481   0.086  0.00  0.00    -0.449 OA
ENDROOT
BRANCH   4   6
ATOM      6  C   UNL     1       4.976   2.856  -0.012  0.00  0.00    +0.066 C 
ATOM      7  C   UNL     1       3.625   2.590   0.009  0.00  0.00    +0.081 C 
ATOM      8  C   UNL     1       2.530   3.495   0.036  0.00  0.00    +0.257 C 
ATOM      9  O   UNL     1       2.717   4.699   0.044  0.00  0.00    -0.269 OA
ATOM     10  N   UNL     1       1.304   3.002   0.052  0.00  0.00    -0.261 N 
ATOM     11  C   UNL     1       1.109   1.634   0.043  0.00  0.00    +0.158 C 
ATOM     12  N   UNL     1      -0.013   0.966   0.055  0.00  0.00    -0.279 NA
ATOM     13  S   UNL     1       2.784   1.013   0.016  0.00  0.00    -0.049 S 
ATOM     14  H   UNL     1       0.438   3.681   0.073  0.00  0.00    +0.157 HD
ATOM     15  H   UNL     1      -0.973   1.502   0.077  0.00  0.00    +0.189 HD
ENDBRANCH   4   6
BRANCH   1  16
ATOM     16  S   UNL     1       6.855  -1.986   0.220  0.00  0.00    -0.052 S 
BRANCH  16  22
ATOM     17  C   UNL     1       4.331  -2.658   1.037  0.00  0.00    +0.016 A 
ATOM     18  C   UNL     1       3.006  -2.983   0.826  0.00  0.00    +0.021 A 
ATOM     19  C   UNL     1       2.510  -3.067  -0.464  0.00  0.00    +0.041 A 
ATOM     20  C   UNL     1       3.338  -2.821  -1.544  0.00  0.00    +0.021 A 
ATOM     21  C   UNL     1       4.664  -2.492  -1.339  0.00  0.00    +0.016 A 
ATOM     22  C   UNL     1       5.164  -2.406  -0.046  0.00  0.00    +0.016 A 
ATOM     23 CL   UNL     1       0.844  -3.482  -0.726  0.00  0.00    -0.084 Cl
ENDBRANCH  16  22
ENDBRANCH   1  16
TORSDOF 3
