REMARK  Name = ZINC03395653
REMARK  8 active torsions:
REMARK  status: ('A' for Active; 'I' for Inactive)
REMARK    1  A    between atoms: C_1  and  C_2
REMARK    2  A    between atoms: C_2  and  C_3
REMARK    3  A    between atoms: C_2  and  C_4
REMARK    4  A    between atoms: C_2  and  C_5
REMARK    5  A    between atoms: C_5  and  C_6
REMARK    6  A    between atoms: N_8  and  C_9
REMARK    7  A    between atoms: C_12  and  S_15
REMARK    8  A    between atoms: S_15  and  N_18
REMARK                            x       y       z     vdW  Elec       q    Type
REMARK                         _______ _______ _______ _____ _____    ______ ____
ROOT
ATOM      1  C   UNL     1       4.247   0.246  -2.390  0.00  0.00    +0.033 A 
ATOM      2  C   UNL     1       4.756   1.039  -1.370  0.00  0.00    +0.025 A 
ATOM      3  C   UNL     1       6.030   1.562  -1.473  0.00  0.00    +0.031 A 
ATOM      4  C   UNL     1       6.799   1.297  -2.592  0.00  0.00    +0.113 A 
ATOM      5  C   UNL     1       6.295   0.508  -3.610  0.00  0.00    +0.031 A 
ATOM      6  C   UNL     1       5.024  -0.023  -3.509  0.00  0.00    +0.025 A 
ENDROOT
BRANCH   1   9
ATOM      7  C   UNL     1       1.980   0.428  -1.692  0.00  0.00    +0.218 C 
ATOM      8  O   UNL     1       2.237   1.492  -1.171  0.00  0.00    -0.275 OA
ATOM      9  N   UNL     1       2.957  -0.285  -2.288  0.00  0.00    -0.285 N 
ATOM     10  H   UNL     1       2.765  -1.166  -2.646  0.00  0.00    +0.155 HD
BRANCH   7  11
ATOM     11  C   UNL     1       0.568  -0.098  -1.675  0.00  0.00    +0.102 C 
BRANCH  11  13
ATOM     12  C   UNL     1      -0.304   2.244  -1.664  0.00  0.00    +0.011 C 
ATOM     13  C   UNL     1      -0.337   0.895  -0.942  0.00  0.00    -0.029 C 
ATOM     14  C   UNL     1       0.159   1.073   0.494  0.00  0.00    +0.011 C 
ATOM     15  C   UNL     1      -1.771   0.362  -0.924  0.00  0.00    +0.011 C 
ENDBRANCH  11  13
ENDBRANCH   7  11
ENDBRANCH   1   9
BRANCH   4  16
ATOM     16  S   UNL     1       8.424   1.966  -2.720  0.00  0.00    +0.100 S 
ATOM     17  O   UNL     1       8.732   2.020  -4.107  0.00  0.00    -0.146 OA
ATOM     18  O   UNL     1       8.457   3.116  -1.887  0.00  0.00    -0.146 OA
BRANCH  16  19
ATOM     19  N   UNL     1       9.461   0.864  -2.048  0.00  0.00    -0.118 NA
ATOM     20  C   UNL     1      10.731   1.109  -2.012  0.00  0.00    +0.117 C 
ATOM     21  C   UNL     1      11.274   2.417  -2.583  0.00  0.00    +0.073 C 
ATOM     22  C   UNL     1      11.756   3.251  -1.415  0.00  0.00    +0.008 C 
ATOM     23  C   UNL     1      13.211   2.978  -1.031  0.00  0.00    +0.002 C 
ATOM     24  C   UNL     1      13.562   1.490  -1.029  0.00  0.00    +0.019 C 
ATOM     25  C   UNL     1      12.492   0.625  -0.400  0.00  0.00    +0.102 C 
ATOM     26  N   UNL     1      11.558   0.233  -1.477  0.00  0.00    -0.331 N 
ATOM     27  H   UNL     1      11.557  -0.683  -1.795  0.00  0.00    +0.147 HD
ENDBRANCH  16  19
ENDBRANCH   4  16
TORSDOF 5
