REMARK  Name = ZINC38727643
REMARK  10 active torsions:
REMARK  status: ('A' for Active; 'I' for Inactive)
REMARK    1  A    between atoms: C_1  and  C_2
REMARK    2  A    between atoms: C_2  and  O_3
REMARK    3  A    between atoms: O_3  and  C_4
REMARK    4  A    between atoms: C_15  and  C_27
REMARK    5  A    between atoms: C_22  and  C_26
REMARK    6  A    between atoms: C_23  and  C_25
REMARK    7  A    between atoms: C_30  and  C_33
REMARK    8  A    between atoms: C_33  and  C_34
REMARK    9  A    between atoms: C_33  and  C_35
REMARK   10  A    between atoms: C_33  and  C_36
REMARK                            x       y       z     vdW  Elec       q    Type
REMARK                         _______ _______ _______ _____ _____    ______ ____
ROOT
ATOM      1  C   UNL     1       0.777  -1.808  -1.336  0.00  0.00    +0.124 A 
ATOM      2  C   UNL     1       0.237  -2.664  -0.376  0.00  0.00    +0.046 A 
ATOM      3  C   UNL     1       0.335  -4.016  -0.531  0.00  0.00    +0.019 A 
ATOM      4  C   UNL     1       0.977  -4.542  -1.653  0.00  0.00    +0.065 A 
ATOM      5  C   UNL     1       1.530  -3.691  -2.626  0.00  0.00    +0.143 A 
ATOM      6  C   UNL     1       1.414  -2.314  -2.454  0.00  0.00    +0.092 A 
ATOM      7  O   UNL     1       2.171  -4.164  -3.720  0.00  0.00    -0.449 OA
ATOM      8  C   UNL     1       2.089  -5.474  -4.025  0.00  0.00    +0.199 A 
ATOM      9  C   UNL     1       1.581  -6.401  -3.160  0.00  0.00    +0.072 A 
ATOM     10  C   UNL     1       1.083  -6.010  -1.837  0.00  0.00    +0.199 A 
ATOM     11  O   UNL     1       0.785  -6.814  -0.972  0.00  0.00    -0.287 OA
ATOM     12  C   UNL     1       1.656  -7.735  -3.828  0.00  0.00    +0.151 C 
ATOM     13  N   UNL     1       2.245  -7.487  -5.154  0.00  0.00    -0.232 N 
ATOM     14  C   UNL     1       2.494  -6.166  -5.260  0.00  0.00    +0.289 C 
ATOM     15  O   UNL     1       2.981  -5.625  -6.233  0.00  0.00    -0.266 OA
ATOM     16  C   UNL     1       2.499  -8.445  -6.125  0.00  0.00    +0.169 A 
ATOM     17  N   UNL     1       2.272  -9.741  -6.076  0.00  0.00    -0.229 NA
ATOM     18  C   UNL     1       2.573 -10.525  -7.093  0.00  0.00    +0.050 A 
ATOM     19  C   UNL     1       3.124  -9.937  -8.184  0.00  0.00    +0.011 A 
ATOM     20  S   UNL     1       3.167  -8.232  -7.655  0.00  0.00    -0.057 S 
ATOM     21  C   UNL     1       3.571 -10.552  -9.485  0.00  0.00    +0.053 C 
ATOM     22  C   UNL     1       2.316 -12.010  -7.045  0.00  0.00    +0.066 C 
ENDROOT
BRANCH  12  23
ATOM     23  C   UNL     1       2.534  -8.666  -3.033  0.00  0.00    -0.022 A 
ATOM     24  C   UNL     1       3.910  -8.579  -3.140  0.00  0.00    +0.006 A 
ATOM     25  C   UNL     1       4.716  -9.433  -2.410  0.00  0.00    +0.004 A 
ATOM     26  C   UNL     1       4.146 -10.374  -1.574  0.00  0.00    -0.042 A 
ATOM     27  C   UNL     1       2.771 -10.461  -1.466  0.00  0.00    +0.004 A 
ATOM     28  C   UNL     1       1.965  -9.604  -2.192  0.00  0.00    +0.006 A 
BRANCH  26  29
ATOM     29  C   UNL     1       5.025 -11.306  -0.779  0.00  0.00    -0.013 C 
ATOM     30  C   UNL     1       5.930 -10.489   0.145  0.00  0.00    +0.015 C 
ATOM     31  C   UNL     1       4.150 -12.241   0.059  0.00  0.00    +0.015 C 
ATOM     32  C   UNL     1       5.886 -12.134  -1.736  0.00  0.00    +0.015 C 
ENDBRANCH  26  29
ENDBRANCH  12  23
BRANCH   1  33
ATOM     33  O   UNL     1       0.671  -0.465  -1.174  0.00  0.00    -0.492 OA
BRANCH  33  35
ATOM     34  C   UNL     1      -0.019   1.526   0.010  0.00  0.00    +0.048 C 
ATOM     35  C   UNL     1       0.002  -0.004   0.002  0.00  0.00    +0.225 C 
ENDBRANCH  33  35
ENDBRANCH   1  33
TORSDOF 4
