REMARK  Name = ZINC04210860
REMARK  8 active torsions:
REMARK  status: ('A' for Active; 'I' for Inactive)
REMARK    1  A    between atoms: C_1  and  N_2
REMARK    2  A    between atoms: N_2  and  C_3
REMARK    3  A    between atoms: N_2  and  C_4
REMARK    4  A    between atoms: C_7  and  C_10
REMARK    5  A    between atoms: N_11  and  N_12
REMARK    6  A    between atoms: C_13  and  C_15
REMARK    7  A    between atoms: C_15  and  N_16
REMARK    8  A    between atoms: C_17  and  C_19
REMARK                            x       y       z     vdW  Elec       q    Type
REMARK                         _______ _______ _______ _____ _____    ______ ____
ROOT
ATOM      1  N   UNL     1       3.848  11.258   0.029  0.00  0.00    -0.206 N 
ATOM      2  C   UNL     1       3.107  10.133   0.029  0.00  0.00    +0.249 C 
ATOM      3  O   UNL     1       1.896  10.204   0.041  0.00  0.00    -0.272 OA
ATOM      4  H   UNL     1       4.816  11.201   0.019  0.00  0.00    +0.177 HD
ENDROOT
BRANCH   1   6
ATOM      5  C   UNL     1       3.934  13.595   0.041  0.00  0.00    +0.138 C 
ATOM      6  N   UNL     1       3.220  12.511   0.042  0.00  0.00    -0.188 NA
BRANCH   5  10
ATOM      7  C   UNL     1       2.031  17.390   0.080  0.00  0.00    +0.029 A 
ATOM      8  C   UNL     1       3.420  17.310   0.067  0.00  0.00    +0.024 A 
ATOM      9  C   UNL     1       4.041  16.081   0.055  0.00  0.00    +0.011 A 
ATOM     10  C   UNL     1       3.273  14.912   0.055  0.00  0.00    -0.005 A 
ATOM     11  C   UNL     1       1.878  14.996   0.063  0.00  0.00    +0.011 A 
ATOM     12  C   UNL     1       1.264  16.229   0.080  0.00  0.00    +0.024 A 
BRANCH   7  14
ATOM     13  C   UNL     1       2.212  19.860   0.092  0.00  0.00    +0.129 C 
ATOM     14  N   UNL     1       1.406  18.637   0.092  0.00  0.00    -0.336 N 
ATOM     15  C   UNL     1      -0.056  18.723   0.106  0.00  0.00    +0.129 C 
ENDBRANCH   7  14
ENDBRANCH   5  10
ENDBRANCH   1   6
BRANCH   2  16
ATOM     16  C   UNL     1       3.782   8.786   0.015  0.00  0.00    +0.202 C 
BRANCH  16  17
ATOM     17  N   UNL     1       2.767   7.730   0.019  0.00  0.00    -0.302 N 
ATOM     18  C   UNL     1       3.140   6.435   0.008  0.00  0.00    +0.253 C 
ATOM     19  O   UNL     1       4.322   6.143  -0.005  0.00  0.00    -0.270 OA
ATOM     20  H   UNL     1       1.825   7.963   0.029  0.00  0.00    +0.150 HD
BRANCH  18  21
ATOM     21  C   UNL     1       2.122   5.377   0.011  0.00  0.00    +0.093 A 
ATOM     22  C   UNL     1       2.301   4.028   0.002  0.00  0.00    +0.068 A 
ATOM     23  C   UNL     1       1.184   3.173   0.008  0.00  0.00    +0.008 A 
ATOM     24  C   UNL     1       1.164   1.754   0.000  0.00  0.00    +0.010 A 
ATOM     25  C   UNL     1      -0.013   1.076   0.008  0.00  0.00    +0.001 A 
ATOM     26  C   UNL     1      -1.235   1.737   0.017  0.00  0.00    +0.001 A 
ATOM     27  C   UNL     1      -1.261   3.117   0.030  0.00  0.00    +0.016 A 
ATOM     28  C   UNL     1      -0.075   3.819   0.023  0.00  0.00    +0.021 A 
ATOM     29  S   UNL     1       0.346   5.544   0.029  0.00  0.00    -0.082 S 
ATOM     30 CL   UNL     1       3.905   3.364  -0.017  0.00  0.00    -0.082 Cl
ENDBRANCH  18  21
ENDBRANCH  16  17
ENDBRANCH   2  16
TORSDOF 6
