REMARK  Name = ZINC05343180
REMARK  9 active torsions:
REMARK  status: ('A' for Active; 'I' for Inactive)
REMARK    1  A    between atoms: C_1  and  C_2
REMARK    2  A    between atoms: C_5  and  C_9
REMARK    3  A    between atoms: C_6  and  O_8
REMARK    4  A    between atoms: C_11  and  C_15
REMARK    5  A    between atoms: N_17  and  C_18
REMARK    6  A    between atoms: C_18  and  C_19
REMARK    7  A    between atoms: C_19  and  C_20
REMARK    8  A    between atoms: C_23  and  S_26
REMARK    9  A    between atoms: S_26  and  N_29
REMARK                            x       y       z     vdW  Elec       q    Type
REMARK                         _______ _______ _______ _____ _____    ______ ____
ROOT
ATOM      1  C   UNL     1       0.104  -7.613  -1.490  0.00  0.00    +0.262 C 
ATOM      2  O   UNL     1       0.102  -7.554  -2.705  0.00  0.00    -0.269 OA
ATOM      3  N   UNL     1       0.120  -8.812  -0.874  0.00  0.00    -0.310 N 
ATOM      4  H   UNL     1       0.121  -8.859   0.095  0.00  0.00    +0.149 HD
ENDROOT
BRANCH   1   7
ATOM      5  C   UNL     1       0.059  -4.260  -0.033  0.00  0.00    +0.097 A 
ATOM      6  C   UNL     1       0.070  -5.081  -1.175  0.00  0.00    +0.062 A 
ATOM      7  C   UNL     1       0.088  -6.376  -0.693  0.00  0.00    +0.121 A 
ATOM      8  N   UNL     1       0.087  -6.281   0.671  0.00  0.00    -0.272 N 
ATOM      9  H   UNL     1       0.098  -7.035   1.282  0.00  0.00    +0.189 HD
ATOM     10  N   UNL     1       0.075  -5.046   1.023  0.00  0.00    -0.173 NA
BRANCH   5  15
ATOM     11  C   UNL     1      -0.018   1.503   0.010  0.00  0.00    +0.044 C 
ATOM     12  C   UNL     1       0.002  -0.004   0.002  0.00  0.00    -0.047 A 
ATOM     13  C   UNL     1       0.006  -0.686  -1.202  0.00  0.00    +0.004 A 
ATOM     14  C   UNL     1       0.024  -2.066  -1.219  0.00  0.00    +0.014 A 
ATOM     15  C   UNL     1       0.040  -2.776  -0.020  0.00  0.00    +0.044 A 
ATOM     16  C   UNL     1       0.036  -2.084   1.194  0.00  0.00    +0.126 A 
ATOM     17  C   UNL     1       0.023  -0.698   1.197  0.00  0.00    +0.049 A 
BRANCH  16  18
ATOM     18  O   UNL     1       0.051  -2.768   2.368  0.00  0.00    -0.506 OA
ATOM     19  H   UNL     1       0.938  -2.954   2.704  0.00  0.00    +0.292 HD
ENDBRANCH  16  18
ENDBRANCH   5  15
ENDBRANCH   1   7
BRANCH   3  20
ATOM     20  C   UNL     1       0.136 -10.043  -1.667  0.00  0.00    +0.109 C 
BRANCH  20  21
ATOM     21  C   UNL     1       0.153 -11.253  -0.731  0.00  0.00    +0.054 C 
BRANCH  21  22
ATOM     22  C   UNL     1       0.169 -12.520  -1.547  0.00  0.00    -0.046 A 
ATOM     23  C   UNL     1      -1.021 -13.114  -1.925  0.00  0.00    +0.005 A 
ATOM     24  C   UNL     1      -1.006 -14.275  -2.674  0.00  0.00    +0.029 A 
ATOM     25  C   UNL     1       0.199 -14.843  -3.045  0.00  0.00    +0.105 A 
ATOM     26  C   UNL     1       1.388 -14.249  -2.667  0.00  0.00    +0.029 A 
ATOM     27  C   UNL     1       1.373 -13.085  -1.922  0.00  0.00    +0.005 A 
BRANCH  25  28
ATOM     28  S   UNL     1       0.218 -16.325  -3.998  0.00  0.00    +0.056 S 
ATOM     29  O   UNL     1       1.470 -16.951  -3.752  0.00  0.00    -0.153 OA
ATOM     30  O   UNL     1      -1.021 -16.978  -3.758  0.00  0.00    -0.153 OA
BRANCH  28  31
ATOM     31  N   UNL     1       0.217 -15.881  -5.594  0.00  0.00    -0.204 NA
ATOM     32  H   UNL     1       0.207 -14.941  -5.835  0.00  0.00    +0.144 HD
ATOM     33  H   UNL     1       0.227 -16.560  -6.286  0.00  0.00    +0.144 HD
ENDBRANCH  28  31
ENDBRANCH  25  28
ENDBRANCH  21  22
ENDBRANCH  20  21
ENDBRANCH   3  20
TORSDOF 8
