REMARK  Name = ZINC21222255
REMARK  7 active torsions:
REMARK  status: ('A' for Active; 'I' for Inactive)
REMARK    1  A    between atoms: C_1  and  C_2
REMARK    2  A    between atoms: C_2  and  C_3
REMARK    3  A    between atoms: C_2  and  C_4
REMARK    4  A    between atoms: C_2  and  C_5
REMARK    5  A    between atoms: C_8  and  C_11
REMARK    6  A    between atoms: C_16  and  C_26
REMARK    7  A    between atoms: C_29  and  N_32
REMARK                            x       y       z     vdW  Elec       q    Type
REMARK                         _______ _______ _______ _____ _____    ______ ____
ROOT
ATOM      1  C   UNL     1       3.668   3.365   4.112  0.00  0.00    +0.032 C 
ATOM      2  C   UNL     1       4.103   4.466   3.147  0.00  0.00    +0.059 C 
ATOM      3  C   UNL     1       3.831   4.039   1.715  0.00  0.00    +0.017 C 
ATOM      4  C   UNL     1       3.905   2.744   1.363  0.00  0.00    +0.036 C 
ATOM      5  C   UNL     1       3.671   2.188  -0.021  0.00  0.00    +0.136 C 
ATOM      6  N   UNL     1       3.602   3.186  -1.068  0.00  0.00    -0.331 N 
ATOM      7  C   UNL     1       2.575   4.128  -1.094  0.00  0.00    +0.049 A 
ATOM      8  C   UNL     1       1.607   4.114  -2.085  0.00  0.00    +0.025 A 
ATOM      9  C   UNL     1       0.543   4.996  -2.008  0.00  0.00    +0.002 A 
ATOM     10  C   UNL     1       0.445   5.884  -0.952  0.00  0.00    +0.002 A 
ATOM     11  C   UNL     1       1.422   5.914   0.029  0.00  0.00    +0.025 A 
ATOM     12  C   UNL     1       2.496   5.046  -0.058  0.00  0.00    +0.052 A 
ATOM     13  N   UNL     1       3.537   5.055   0.864  0.00  0.00    -0.316 N 
ATOM     14  C   UNL     1       4.223   1.761   2.329  0.00  0.00    +0.163 C 
ATOM     15  O   UNL     1       4.301   0.599   1.980  0.00  0.00    -0.292 OA
ATOM     16  C   UNL     1       4.466   2.102   3.769  0.00  0.00    +0.088 C 
ATOM     17  H   UNL     1       4.368   3.208  -1.857  0.00  0.00    +0.147 HD
ATOM     18  H   UNL     1       4.143   5.972   0.872  0.00  0.00    +0.152 HD
ENDROOT
BRANCH   1  22
ATOM     19  C   UNL     1       4.491   4.553   8.132  0.00  0.00    -0.042 A 
ATOM     20  C   UNL     1       3.193   4.272   7.746  0.00  0.00    +0.004 A 
ATOM     21  C   UNL     1       2.927   3.887   6.446  0.00  0.00    +0.004 A 
ATOM     22  C   UNL     1       3.958   3.784   5.530  0.00  0.00    -0.043 A 
ATOM     23  C   UNL     1       5.256   4.061   5.918  0.00  0.00    +0.004 A 
ATOM     24  C   UNL     1       5.522   4.450   7.217  0.00  0.00    +0.004 A 
BRANCH  19  26
ATOM     25  C   UNL     1       4.342   3.865  10.510  0.00  0.00    +0.015 C 
ATOM     26  C   UNL     1       4.781   4.973   9.550  0.00  0.00    -0.013 C 
ATOM     27  C   UNL     1       6.282   5.221   9.711  0.00  0.00    +0.015 C 
ATOM     28  C   UNL     1       4.014   6.257   9.869  0.00  0.00    +0.015 C 
ENDBRANCH  19  26
ENDBRANCH   1  22
BRANCH   5  29
ATOM     29  C   UNL     1       2.377   1.415  -0.013  0.00  0.00    -0.023 A 
ATOM     30  C   UNL     1       2.385   0.055  -0.265  0.00  0.00    +0.007 A 
ATOM     31  C   UNL     1       1.201  -0.656  -0.258  0.00  0.00    +0.023 A 
ATOM     32  C   UNL     1       0.002  -0.004   0.002  0.00  0.00    +0.030 A 
ATOM     33  C   UNL     1      -0.002   1.362   0.254  0.00  0.00    +0.023 A 
ATOM     34  C   UNL     1       1.186   2.067   0.246  0.00  0.00    +0.007 A 
BRANCH  32  35
ATOM     35  N   UNL     1      -1.197  -0.720   0.009  0.00  0.00    -0.326 N 
ATOM     36  C   UNL     1      -1.399  -1.422  -1.267  0.00  0.00    +0.133 C 
ATOM     37  C   UNL     1      -2.691  -2.240  -1.194  0.00  0.00    +0.178 C 
ATOM     38  O   UNL     1      -3.782  -1.371  -0.875  0.00  0.00    -0.377 OA
ATOM     39  C   UNL     1      -3.619  -0.672   0.362  0.00  0.00    +0.178 C 
ATOM     40  C   UNL     1      -2.336   0.162   0.305  0.00  0.00    +0.133 C 
ENDBRANCH  32  35
ENDBRANCH   5  29
TORSDOF 4
