REMARK  Name = ZINC33810463
REMARK  9 active torsions:
REMARK  status: ('A' for Active; 'I' for Inactive)
REMARK    1  A    between atoms: C_1  and  C_2
REMARK    2  A    between atoms: C_2  and  C_3
REMARK    3  A    between atoms: C_6  and  C_9
REMARK    4  A    between atoms: C_14  and  S_18
REMARK    5  A    between atoms: S_18  and  C_19
REMARK    6  A    between atoms: C_19  and  C_20
REMARK    7  A    between atoms: C_19  and  C_21
REMARK    8  A    between atoms: C_28  and  C_30
REMARK    9  A    between atoms: C_28  and  C_31
REMARK                            x       y       z     vdW  Elec       q    Type
REMARK                         _______ _______ _______ _____ _____    ______ ____
ROOT
ATOM      1  C   UNL     1      -0.018   1.503   0.010  0.00  0.00    +0.092 C 
ATOM      2  C   UNL     1       1.392   2.013  -0.000  0.00  0.00    +0.069 A 
ATOM      3  C   UNL     1       1.949   2.507  -1.139  0.00  0.00    +0.135 A 
ATOM      4  N   UNL     1       3.242   2.958  -1.113  0.00  0.00    -0.208 NA
ATOM      5  C   UNL     1       3.958   2.912   0.046  0.00  0.00    +0.171 A 
ATOM      6  N   UNL     1       3.429   2.439   1.155  0.00  0.00    -0.302 N 
ATOM      7  C   UNL     1       2.166   1.986   1.180  0.00  0.00    +0.258 A 
ATOM      8  O   UNL     1       1.689   1.553   2.219  0.00  0.00    -0.267 OA
ATOM      9  N   UNL     1       1.219   2.551  -2.304  0.00  0.00    -0.302 N 
ATOM     10  C   UNL     1      -0.147   2.478  -2.275  0.00  0.00    +0.017 C 
ATOM     11  C   UNL     1      -0.788   1.993  -1.190  0.00  0.00    +0.024 C 
ATOM     12  C   UNL     1      -2.192   1.929  -1.146  0.00  0.00    +0.162 C 
ATOM     13  O   UNL     1      -2.737   1.483  -0.156  0.00  0.00    -0.292 OA
ATOM     14  C   UNL     1      -3.031   2.404  -2.300  0.00  0.00    +0.086 C 
ATOM     15  C   UNL     1      -2.272   3.505  -3.049  0.00  0.00    -0.023 C 
ATOM     16  C   UNL     1      -0.915   2.949  -3.486  0.00  0.00    +0.058 C 
ATOM     17  C   UNL     1      -2.062   4.705  -2.124  0.00  0.00    +0.011 C 
ATOM     18  C   UNL     1      -3.070   3.938  -4.280  0.00  0.00    +0.011 C 
ATOM     19  H   UNL     1       1.733   2.646  -3.272  0.00  0.00    +0.153 HD
ATOM     20  H   UNL     1       4.024   2.411   2.080  0.00  0.00    +0.171 HD
ENDROOT
BRANCH   1  24
ATOM     21  C   UNL     1       0.039  -2.768  -0.014  0.00  0.00    -0.048 A 
ATOM     22  C   UNL     1      -0.559  -2.091   1.033  0.00  0.00    +0.004 A 
ATOM     23  C   UNL     1      -0.577  -0.709   1.041  0.00  0.00    +0.005 A 
ATOM     24  C   UNL     1       0.002  -0.004   0.002  0.00  0.00    -0.035 A 
ATOM     25  C   UNL     1       0.595  -0.681  -1.047  0.00  0.00    +0.005 A 
ATOM     26  C   UNL     1       0.618  -2.064  -1.052  0.00  0.00    +0.004 A 
BRANCH  21  28
ATOM     27  C   UNL     1      -1.191  -4.798  -0.735  0.00  0.00    +0.009 C 
ATOM     28  C   UNL     1       0.059  -4.275  -0.022  0.00  0.00    +0.032 C 
ENDBRANCH  21  28
ENDBRANCH   1  24
BRANCH   5  29
ATOM     29  S   UNL     1       5.621   3.493   0.059  0.00  0.00    -0.085 S 
BRANCH  29  30
ATOM     30  C   UNL     1       6.045   3.195   1.794  0.00  0.00    +0.048 C 
ATOM     31  C   UNL     1       7.523   3.519   2.021  0.00  0.00    +0.019 C 
ATOM     32  C   UNL     1       5.183   4.087   2.689  0.00  0.00    +0.019 C 
ENDBRANCH  29  30
ENDBRANCH   5  29
TORSDOF 4
