REMARK  Name = ZINC64197646
REMARK  8 active torsions:
REMARK  status: ('A' for Active; 'I' for Inactive)
REMARK    1  A    between atoms: C_1  and  C_2
REMARK    2  A    between atoms: C_2  and  C_3
REMARK    3  A    between atoms: C_2  and  C_4
REMARK    4  A    between atoms: C_4  and  C_5
REMARK    5  A    between atoms: C_8  and  C_22
REMARK    6  A    between atoms: N_24  and  C_25
REMARK    7  A    between atoms: C_28  and  O_31
REMARK    8  A    between atoms: O_31  and  C_32
REMARK                            x       y       z     vdW  Elec       q    Type
REMARK                         _______ _______ _______ _____ _____    ______ ____
ROOT
ATOM      1  C   UNL     1      -1.972  -0.198  -1.493  0.00  0.00    +0.056 C 
ATOM      2  C   UNL     1      -3.423  -0.714  -1.317  0.00  0.00    +0.034 C 
ATOM      3  C   UNL     1      -3.977  -0.688  -2.762  0.00  0.00    +0.110 C 
ATOM      4  C   UNL     1      -2.735  -0.724  -3.660  0.00  0.00    +0.135 C 
ATOM      5  N   UNL     1      -1.548  -0.789  -2.790  0.00  0.00    -0.296 NA
ATOM      6  C   UNL     1      -2.783  -1.894  -4.605  0.00  0.00    +0.006 A 
ATOM      7  C   UNL     1      -2.843  -3.257  -4.418  0.00  0.00    +0.046 A 
ATOM      8  C   UNL     1      -2.877  -4.106  -5.512  0.00  0.00    +0.124 A 
ATOM      9  C   UNL     1      -2.850  -3.579  -6.793  0.00  0.00    +0.040 A 
ATOM     10  C   UNL     1      -2.790  -2.214  -6.982  0.00  0.00    +0.026 A 
ATOM     11  C   UNL     1      -2.756  -1.355  -5.886  0.00  0.00    +0.039 A 
ATOM     12  N   UNL     1      -2.696   0.040  -5.822  0.00  0.00    -0.283 N 
ATOM     13  C   UNL     1      -2.680   0.489  -4.553  0.00  0.00    +0.243 C 
ATOM     14  O   UNL     1      -2.631   1.648  -4.197  0.00  0.00    -0.273 OA
ATOM     15  F   UNL     1      -2.936  -5.443  -5.331  0.00  0.00    -0.205 F 
ATOM     16  H   UNL     1      -0.776  -0.274  -3.187  0.00  0.00    +0.123 HD
ATOM     17  H   UNL     1      -2.669   0.617  -6.601  0.00  0.00    +0.155 HD
ENDROOT
BRANCH   3  18
ATOM     18  C   UNL     1      -4.844  -1.895  -3.014  0.00  0.00    +0.223 C 
ATOM     19  O   UNL     1      -4.701  -2.894  -2.342  0.00  0.00    -0.275 OA
ATOM     20  N   UNL     1      -5.777  -1.863  -3.985  0.00  0.00    -0.285 N 
ATOM     21  H   UNL     1      -5.845  -1.091  -4.569  0.00  0.00    +0.155 HD
BRANCH  20  22
ATOM     22  C   UNL     1      -6.650  -2.946  -4.153  0.00  0.00    +0.034 A 
ATOM     23  C   UNL     1      -7.072  -3.676  -3.050  0.00  0.00    +0.027 A 
ATOM     24  C   UNL     1      -7.933  -4.742  -3.216  0.00  0.00    +0.047 A 
ATOM     25  C   UNL     1      -8.376  -5.085  -4.485  0.00  0.00    +0.120 A 
ATOM     26  C   UNL     1      -7.955  -4.357  -5.588  0.00  0.00    +0.047 A 
ATOM     27  C   UNL     1      -7.099  -3.286  -5.422  0.00  0.00    +0.027 A 
BRANCH  25  28
ATOM     28  O   UNL     1      -9.224  -6.136  -4.648  0.00  0.00    -0.495 OA
ATOM     29  C   UNL     1      -9.640  -6.433  -5.982  0.00  0.00    +0.277 C 
ENDBRANCH  25  28
ENDBRANCH  20  22
ENDBRANCH   3  18
BRANCH   1  30
ATOM     30  C   UNL     1      -1.080  -0.698  -0.355  0.00  0.00    +0.021 C 
BRANCH  30  32
ATOM     31  C   UNL     1       0.274   1.402  -0.351  0.00  0.00    +0.007 C 
ATOM     32  C   UNL     1       0.327  -0.118  -0.516  0.00  0.00    -0.016 C 
ATOM     33  C   UNL     1       1.250  -0.715   0.547  0.00  0.00    +0.007 C 
ENDBRANCH  30  32
ENDBRANCH   1  30
TORSDOF 5
