REMARK  Name = ZINC63066134
REMARK  5 active torsions:
REMARK  status: ('A' for Active; 'I' for Inactive)
REMARK    1  A    between atoms: C_1  and  C_2
REMARK    2  A    between atoms: C_2  and  C_18
REMARK    3  A    between atoms: N_6  and  S_7
REMARK    4  A    between atoms: S_7  and  C_10
REMARK    5  A    between atoms: C_15  and  N_16
REMARK                            x       y       z     vdW  Elec       q    Type
REMARK                         _______ _______ _______ _____ _____    ______ ____
ROOT
ATOM      1  S   UNL     1       1.886  -0.029   1.274  0.00  0.00    +0.063 S 
ATOM      2  O   UNL     1       2.519  -1.208   1.752  0.00  0.00    -0.153 OA
ATOM      3  O   UNL     1       2.106   0.477  -0.035  0.00  0.00    -0.153 OA
ENDROOT
BRANCH   1   9
ATOM      4  C   UNL     1      -0.722   1.960   1.141  0.00  0.00    +0.029 C 
ATOM      5  C   UNL     1      -0.792   0.489   0.726  0.00  0.00    +0.038 C 
ATOM      6  C   UNL     1      -2.151  -0.110   1.145  0.00  0.00    +0.025 C 
ATOM      7  C   UNL     1      -1.771  -1.541   1.609  0.00  0.00    +0.019 C 
ATOM      8  C   UNL     1      -0.388  -1.299   2.263  0.00  0.00    +0.110 C 
ATOM      9  N   UNL     1       0.255  -0.276   1.419  0.00  0.00    -0.171 NA
ATOM     10  C   UNL     1      -0.610   0.367  -0.788  0.00  0.00    +0.029 C 
ENDBRANCH   1   9
BRANCH   1  11
ATOM     11  C   UNL     1       2.318   1.263   2.392  0.00  0.00    +0.127 A 
ATOM     12  C   UNL     1       2.779   2.471   1.907  0.00  0.00    +0.045 A 
ATOM     13  C   UNL     1       3.119   3.486   2.784  0.00  0.00    +0.020 A 
ATOM     14  C   UNL     1       2.999   3.293   4.149  0.00  0.00    +0.017 A 
ATOM     15  C   UNL     1       2.539   2.087   4.640  0.00  0.00    +0.026 A 
ATOM     16  C   UNL     1       2.191   1.069   3.761  0.00  0.00    +0.051 A 
ATOM     17 BR   UNL     1       3.751   5.138   2.116  0.00  0.00    -0.050 Br
BRANCH  16  18
ATOM     18  N   UNL     1       1.720  -0.150   4.255  0.00  0.00    -0.356 N 
ATOM     19  H   UNL     1       1.578  -0.896   3.651  0.00  0.00    +0.142 HD
ATOM     20  H   UNL     1       1.534  -0.251   5.201  0.00  0.00    +0.142 HD
ENDBRANCH  16  18
ENDBRANCH   1  11
TORSDOF 3
