REMARK  Name = ZINC11496206
REMARK  15 active torsions:
REMARK  status: ('A' for Active; 'I' for Inactive)
REMARK    1  A    between atoms: C_1  and  C_2
REMARK    2  A    between atoms: C_6  and  O_8
REMARK    3  A    between atoms: O_8  and  C_9
REMARK    4  A    between atoms: C_9  and  C_10
REMARK    5  A    between atoms: C_13  and  S_18
REMARK    6  A    between atoms: N_14  and  C_15
REMARK    7  A    between atoms: C_15  and  C_16
REMARK    8  A    between atoms: S_18  and  C_19
REMARK    9  A    between atoms: C_19  and  C_20
REMARK   10  A    between atoms: C_20  and  C_22
REMARK   11  A    between atoms: C_23  and  N_35
REMARK   12  A    between atoms: N_24  and  C_31
REMARK   13  A    between atoms: C_31  and  C_32
REMARK   14  A    between atoms: C_32  and  C_33
REMARK   15  A    between atoms: C_32  and  C_34
REMARK                            x       y       z     vdW  Elec       q    Type
REMARK                         _______ _______ _______ _____ _____    ______ ____
ROOT
ATOM      1  C   UNL     1       0.354  12.118  -0.190  0.00  0.00    +0.157 C 
ENDROOT
BRANCH   1   2
ATOM      2  C   UNL     1       0.112  13.483  -0.782  0.00  0.00    +0.182 C 
ATOM      3  O   UNL     1       0.063  13.623  -1.987  0.00  0.00    -0.291 OA
BRANCH   2   4
ATOM      4  C   UNL     1      -0.058  14.599   0.065  0.00  0.00    +0.120 A 
ATOM      5  C   UNL     1      -0.162  15.899  -0.460  0.00  0.00    +0.116 A 
ATOM      6  N   UNL     1      -0.331  16.947   0.400  0.00  0.00    -0.281 N 
ATOM      7  C   UNL     1      -0.389  16.758   1.727  0.00  0.00    +0.331 A 
ATOM      8  O   UNL     1      -0.536  17.724   2.450  0.00  0.00    -0.246 OA
ATOM      9  N   UNL     1      -0.290  15.541   2.286  0.00  0.00    -0.274 N 
ATOM     10  H   UNL     1      -0.339  15.450   3.281  0.00  0.00    +0.173 HD
ATOM     11  C   UNL     1      -0.127  14.441   1.524  0.00  0.00    +0.266 A 
ATOM     12  O   UNL     1      -0.038  13.339   2.033  0.00  0.00    -0.267 OA
BRANCH   5  13
ATOM     13  N   UNL     1      -0.100  16.109  -1.802  0.00  0.00    -0.344 N 
ATOM     14  H   UNL     1      -0.067  15.354  -2.411  0.00  0.00    +0.144 HD
ATOM     15  H   UNL     1      -0.088  17.014  -2.152  0.00  0.00    +0.144 HD
ENDBRANCH   5  13
BRANCH   6  16
ATOM     16  C   UNL     1      -0.447  18.305  -0.138  0.00  0.00    +0.131 C 
BRANCH  16  17
ATOM     17  C   UNL     1       0.945  18.932  -0.241  0.00  0.00    +0.003 C 
ATOM     18  C   UNL     1       0.839  20.301  -0.917  0.00  0.00    +0.009 C 
ATOM     19  C   UNL     1       1.534  19.101   1.161  0.00  0.00    +0.009 C 
ENDBRANCH  16  17
ENDBRANCH   6  16
ENDBRANCH   2   4
ENDBRANCH   1   2
BRANCH   1  20
ATOM     20  S   UNL     1       0.530  10.906  -1.523  0.00  0.00    -0.078 S 
BRANCH  20  24
ATOM     21  C   UNL     1       1.157   7.385   0.035  0.00  0.00    +0.172 A 
ATOM     22  N   UNL     1       1.051   8.145   1.089  0.00  0.00    -0.130 NA
ATOM     23  N   UNL     1       0.838   9.362   0.736  0.00  0.00    -0.122 NA
ATOM     24  C   UNL     1       0.797   9.445  -0.574  0.00  0.00    +0.192 A 
ATOM     25  N   UNL     1       1.004   8.187  -1.062  0.00  0.00    -0.299 N 
BRANCH  21  26
ATOM     26  C   UNL     1       1.408   5.899   0.027  0.00  0.00    +0.305 C 
BRANCH  26  27
ATOM     27  O   UNL     1       0.160   5.205   0.052  0.00  0.00    -0.484 OA
BRANCH  27  33
ATOM     28  C   UNL     1      -2.189   0.926   0.079  0.00  0.00    +0.044 C 
ATOM     29  C   UNL     1      -0.913   1.728   0.061  0.00  0.00    -0.047 A 
ATOM     30  C   UNL     1       0.309   1.082   0.040  0.00  0.00    +0.003 A 
ATOM     31  C   UNL     1       1.481   1.815   0.018  0.00  0.00    +0.004 A 
ATOM     32  C   UNL     1       1.434   3.196   0.022  0.00  0.00    +0.045 A 
ATOM     33  C   UNL     1       0.209   3.847   0.049  0.00  0.00    +0.121 A 
ATOM     34  C   UNL     1      -0.966   3.109   0.072  0.00  0.00    +0.049 A 
ENDBRANCH  27  33
ENDBRANCH  26  27
ENDBRANCH  21  26
BRANCH  25  35
ATOM     35  C   UNL     1       1.050   7.780  -2.468  0.00  0.00    +0.152 C 
BRANCH  35  36
ATOM     36  C   UNL     1      -0.335   7.404  -2.928  0.00  0.00    -0.013 C 
ATOM     37  C   UNL     1      -0.856   7.986  -3.980  0.00  0.00    +0.005 C 
ENDBRANCH  35  36
ENDBRANCH  25  35
ENDBRANCH  20  24
ENDBRANCH   1  20
TORSDOF 12
