REMARK  Name = ZINC14770629
REMARK  9 active torsions:
REMARK  status: ('A' for Active; 'I' for Inactive)
REMARK    1  A    between atoms: C_1  and  C_2
REMARK    2  A    between atoms: C_2  and  O_3
REMARK    3  A    between atoms: O_3  and  C_4
REMARK    4  A    between atoms: C_7  and  C_11
REMARK    5  A    between atoms: N_13  and  C_14
REMARK    6  A    between atoms: C_14  and  N_16
REMARK    7  A    between atoms: N_16  and  C_17
REMARK    8  A    between atoms: C_17  and  C_18
REMARK    9  A    between atoms: C_18  and  C_19
REMARK                            x       y       z     vdW  Elec       q    Type
REMARK                         _______ _______ _______ _____ _____    ______ ____
ROOT
ATOM      1  C   UNL     1      -2.519   3.867   0.046  0.00  0.00    +0.250 C 
ATOM      2  O   UNL     1      -2.533   5.083   0.053  0.00  0.00    -0.270 OA
ATOM      3  N   UNL     1      -3.678   3.180   0.054  0.00  0.00    -0.264 N 
ATOM      4  H   UNL     1      -3.667   2.210   0.049  0.00  0.00    +0.157 HD
ENDROOT
BRANCH   1   8
ATOM      5  C   UNL     1       1.182   1.786   0.000  0.00  0.00    +0.134 A 
ATOM      6  C   UNL     1      -0.013   1.076   0.008  0.00  0.00    +0.047 A 
ATOM      7  C   UNL     1      -1.215   1.747   0.017  0.00  0.00    +0.017 A 
ATOM      8  C   UNL     1      -1.233   3.145   0.031  0.00  0.00    +0.038 A 
ATOM      9  C   UNL     1      -0.030   3.856   0.023  0.00  0.00    +0.032 A 
ATOM     10  C   UNL     1       1.169   3.177   0.008  0.00  0.00    +0.060 A 
ATOM     11 BR   UNL     1       2.798   4.137  -0.003  0.00  0.00    -0.046 Br
BRANCH   5  12
ATOM     12  O   UNL     1       2.365   1.121  -0.015  0.00  0.00    -0.491 OA
BRANCH  12  14
ATOM     13  C   UNL     1       3.726  -0.876  -0.040  0.00  0.00    +0.048 C 
ATOM     14  C   UNL     1       2.306  -0.307  -0.022  0.00  0.00    +0.226 C 
ENDBRANCH  12  14
ENDBRANCH   5  12
ENDBRANCH   1   8
BRANCH   3  15
ATOM     15  C   UNL     1      -4.853   3.840   0.068  0.00  0.00    +0.137 C 
ATOM     16  S   UNL     1      -4.873   5.552   0.077  0.00  0.00    -0.018 S 
BRANCH  15  17
ATOM     17  N   UNL     1      -6.013   3.153   0.075  0.00  0.00    -0.326 N 
ATOM     18  H   UNL     1      -6.001   2.183   0.070  0.00  0.00    +0.148 HD
BRANCH  17  19
ATOM     19  C   UNL     1      -7.290   3.870   0.091  0.00  0.00    +0.107 C 
BRANCH  19  20
ATOM     20  C   UNL     1      -8.441   2.863   0.097  0.00  0.00    +0.049 C 
BRANCH  20  21
ATOM     21  C   UNL     1      -9.755   3.601   0.113  0.00  0.00    -0.072 C 
ATOM     22  C   UNL     1     -10.343   3.817  -1.020  0.00  0.00    -0.028 C 
ATOM     23  C   UNL     1     -11.647   4.545  -1.164  0.00  0.00    +0.027 C 
ATOM     24  C   UNL     1     -12.368   4.608   0.185  0.00  0.00    +0.004 C 
ATOM     25  C   UNL     1     -11.375   5.109   1.242  0.00  0.00    +0.005 C 
ATOM     26  C   UNL     1     -10.302   4.034   1.441  0.00  0.00    +0.030 C 
ENDBRANCH  20  21
ENDBRANCH  19  20
ENDBRANCH  17  19
ENDBRANCH  15  17
ENDBRANCH   3  15
TORSDOF 8
