REMARK  Name = ZINC02542333
REMARK  6 active torsions:
REMARK  status: ('A' for Active; 'I' for Inactive)
REMARK    1  A    between atoms: C_4  and  N_7
REMARK    2  A    between atoms: N_7  and  N_8
REMARK    3  A    between atoms: C_11  and  C_18
REMARK    4  A    between atoms: C_13  and  C_16
REMARK    5  A    between atoms: C_14  and  N_15
REMARK    6  A    between atoms: C_21  and  N_24
REMARK                            x       y       z     vdW  Elec       q    Type
REMARK                         _______ _______ _______ _____ _____    ______ ____
ROOT
ATOM      1  N   UNL     1       4.855  -0.001   0.126  0.00  0.00    -0.211 N 
ATOM      2  C   UNL     1       5.598  -0.010   1.275  0.00  0.00    +0.039 C 
ATOM      3  C   UNL     1       6.543   0.929   1.491  0.00  0.00    +0.026 C 
ATOM      4  C   UNL     1       6.804   2.014   0.477  0.00  0.00    +0.097 C 
ATOM      5  C   UNL     1       6.237   1.648  -0.864  0.00  0.00    +0.078 C 
ATOM      6  C   UNL     1       5.300   0.670  -0.988  0.00  0.00    +0.119 C 
ATOM      7  C   UNL     1       7.311   0.926   2.669  0.00  0.00    +0.162 C 
ATOM      8  O   UNL     1       8.168   1.774   2.823  0.00  0.00    -0.292 OA
ATOM      9  C   UNL     1       7.093  -0.106   3.740  0.00  0.00    +0.080 C 
ATOM     10  C   UNL     1       5.633  -0.570   3.695  0.00  0.00    +0.014 C 
ATOM     11  C   UNL     1       5.335  -1.096   2.290  0.00  0.00    +0.053 C 
ENDROOT
BRANCH   4  12
ATOM     12  C   UNL     1       6.167   3.295   0.950  0.00  0.00    -0.035 A 
ATOM     13  C   UNL     1       4.813   3.335   1.222  0.00  0.00    +0.007 A 
ATOM     14  C   UNL     1       4.230   4.509   1.661  0.00  0.00    +0.033 A 
ATOM     15  C   UNL     1       5.000   5.646   1.816  0.00  0.00    +0.126 A 
ATOM     16  C   UNL     1       6.353   5.608   1.539  0.00  0.00    +0.033 A 
ATOM     17  C   UNL     1       6.937   4.433   1.105  0.00  0.00    +0.007 A 
BRANCH  15  18
ATOM     18  N   UNL     1       4.374   6.905   2.280  0.00  0.00    +0.056 N 
ATOM     19  O   UNL     1       5.053   7.908   2.417  0.00  0.00    -0.126 OA
ATOM     20  O   UNL     1       3.182   6.939   2.525  0.00  0.00    -0.126 OA
ENDBRANCH  15  18
ENDBRANCH   4  12
BRANCH   6  21
ATOM     21  N   UNL     1       4.794   0.355  -2.226  0.00  0.00    -0.344 N 
ATOM     22  H   UNL     1       5.150   0.891  -3.119  0.00  0.00    +0.144 HD
ATOM     23  H   UNL     1       4.034  -0.433  -2.325  0.00  0.00    +0.144 HD
ENDBRANCH   6  21
BRANCH   1  24
ATOM     24  N   UNL     1       3.634  -0.686   0.082  0.00  0.00    -0.259 N 
ATOM     25  H   UNL     1       2.739  -0.245   0.546  0.00  0.00    +0.171 HD
BRANCH  24  29
ATOM     26  C   UNL     1       3.391  -4.391  -1.802  0.00  0.00    +0.000 A 
ATOM     27  C   UNL     1       4.617  -3.769  -1.659  0.00  0.00    +0.002 A 
ATOM     28  C   UNL     1       4.702  -2.540  -1.035  0.00  0.00    +0.024 A 
ATOM     29  C   UNL     1       3.552  -1.929  -0.550  0.00  0.00    +0.045 A 
ATOM     30  C   UNL     1       2.322  -2.557  -0.695  0.00  0.00    +0.024 A 
ATOM     31  C   UNL     1       2.245  -3.785  -1.320  0.00  0.00    +0.002 A 
ENDBRANCH  24  29
ENDBRANCH   1  24
BRANCH   5  32
ATOM     32  C   UNL     1       6.694   2.337  -2.033  0.00  0.00    +0.099 C 
ATOM     33  N   UNL     1       7.057   2.884  -2.960  0.00  0.00    -0.191 NA
ENDBRANCH   5  32
TORSDOF 6
