REMARK  Name = ZINC21320147
REMARK  4 active torsions:
REMARK  status: ('A' for Active; 'I' for Inactive)
REMARK    1  A    between atoms: C_5  and  N_7
REMARK    2  A    between atoms: N_10  and  C_13
REMARK    3  A    between atoms: C_13  and  N_14
REMARK    4  A    between atoms: C_18  and  N_23
REMARK                            x       y       z     vdW  Elec       q    Type
REMARK                         _______ _______ _______ _____ _____    ______ ____
ROOT
ATOM      1  N   UNL     1       3.949  -3.975  -3.630  0.00  0.00    -0.325 N 
ATOM      2  C   UNL     1       5.255  -3.889  -2.960  0.00  0.00    +0.120 C 
ATOM      3  C   UNL     1       5.049  -3.490  -1.497  0.00  0.00    +0.105 C 
ATOM      4  N   UNL     1       4.343  -2.203  -1.437  0.00  0.00    -0.281 NA
ATOM      5  C   UNL     1       3.038  -2.290  -2.106  0.00  0.00    +0.105 C 
ATOM      6  C   UNL     1       3.243  -2.688  -3.570  0.00  0.00    +0.120 C 
ENDROOT
BRANCH   1  11
ATOM      7  C   UNL     1       4.804  -6.067  -6.530  0.00  0.00    +0.002 A 
ATOM      8  C   UNL     1       4.375  -5.263  -7.570  0.00  0.00    +0.003 A 
ATOM      9  C   UNL     1       3.805  -4.031  -7.306  0.00  0.00    +0.040 A 
ATOM     10  C   UNL     1       3.662  -3.600  -6.000  0.00  0.00    +0.144 A 
ATOM     11  C   UNL     1       4.092  -4.407  -4.952  0.00  0.00    +0.065 A 
ATOM     12  C   UNL     1       4.668  -5.641  -5.223  0.00  0.00    +0.026 A 
ATOM     13  F   UNL     1       3.105  -2.396  -5.741  0.00  0.00    -0.204 F 
ENDBRANCH   1  11
BRANCH   4  14
ATOM     14  C   UNL     1       4.193  -1.749  -0.048  0.00  0.00    +0.230 C 
BRANCH  14  15
ATOM     15  N   UNL     1       3.706  -0.367  -0.035  0.00  0.00    -0.249 N 
ATOM     16  C   UNL     1       2.389   0.011  -0.021  0.00  0.00    +0.071 A 
ATOM     17  C   UNL     1       1.185  -0.688  -0.013  0.00  0.00    +0.030 A 
ATOM     18  C   UNL     1       0.002  -0.004   0.002  0.00  0.00    +0.035 A 
ATOM     19  C   UNL     1      -0.017   1.385   0.010  0.00  0.00    +0.127 A 
ATOM     20  C   UNL     1       1.148   2.097   0.002  0.00  0.00    +0.044 A 
ATOM     21  C   UNL     1       2.372   1.419  -0.013  0.00  0.00    +0.022 A 
ATOM     22  C   UNL     1       3.768   1.846  -0.024  0.00  0.00    +0.143 A 
ATOM     23  N   UNL     1       4.511   0.777  -0.037  0.00  0.00    -0.177 NA
BRANCH  19  24
ATOM     24  N   UNL     1      -1.312   2.101   0.020  0.00  0.00    +0.056 N 
ATOM     25  O   UNL     1      -2.356   1.472   0.021  0.00  0.00    -0.126 OA
ATOM     26  O   UNL     1      -1.336   3.319   0.026  0.00  0.00    -0.126 OA
ENDBRANCH  19  24
ENDBRANCH  14  15
ENDBRANCH   4  14
TORSDOF 4
