REMARK  Name = ZINC44982449
REMARK  4 active torsions:
REMARK  status: ('A' for Active; 'I' for Inactive)
REMARK    1  A    between atoms: C_1  and  C_2
REMARK    2  A    between atoms: C_2  and  C_4
REMARK    3  A    between atoms: N_12  and  C_13
REMARK    4  A    between atoms: C_13  and  C_14
REMARK                            x       y       z     vdW  Elec       q    Type
REMARK                         _______ _______ _______ _____ _____    ______ ____
ROOT
ATOM      1  C   UNL     1       0.910  -0.611   1.300  0.00  0.00    +0.128 A 
ATOM      2  N   UNL     1       0.590  -0.731   2.556  0.00  0.00    -0.231 NA
ATOM      3  C   UNL     1       1.663  -1.173   3.261  0.00  0.00    +0.089 A 
ATOM      4  C   UNL     1       1.874  -1.467   4.610  0.00  0.00    +0.030 A 
ATOM      5  C   UNL     1       3.099  -1.905   5.027  0.00  0.00    +0.002 A 
ATOM      6  C   UNL     1       4.141  -2.061   4.124  0.00  0.00    +0.002 A 
ATOM      7  C   UNL     1       3.955  -1.776   2.788  0.00  0.00    +0.028 A 
ATOM      8  C   UNL     1       2.717  -1.331   2.345  0.00  0.00    +0.069 A 
ATOM      9  N   UNL     1       2.208  -0.973   1.113  0.00  0.00    -0.326 N 
ENDROOT
BRANCH   1  11
ATOM     10  C   UNL     1      -0.126   1.381   0.248  0.00  0.00    +0.033 C 
ATOM     11  C   UNL     1      -0.022  -0.145   0.212  0.00  0.00    +0.143 C 
ATOM     12 CL   UNL     1      -1.655  -0.865   0.470  0.00  0.00    -0.114 Cl
ENDBRANCH   1  11
BRANCH   9  13
ATOM     13  C   UNL     1       2.932  -0.979  -0.161  0.00  0.00    +0.129 C 
BRANCH  13  14
ATOM     14  C   UNL     1       2.658  -2.292  -0.897  0.00  0.00    +0.035 C 
ATOM     15  C   UNL     1       3.306  -2.245  -2.284  0.00  0.00    +0.010 C 
ATOM     16  C   UNL     1       3.091  -3.592  -2.982  0.00  0.00    +0.028 C 
ATOM     17  C   UNL     1       3.669  -4.708  -2.107  0.00  0.00    +0.160 C 
ATOM     18  O   UNL     1       3.046  -4.676  -0.822  0.00  0.00    -0.379 OA
ATOM     19  C   UNL     1       3.251  -3.458  -0.103  0.00  0.00    +0.165 C 
ENDBRANCH  13  14
ENDBRANCH   9  13
TORSDOF 3
