REMARK  Name = ZINC65060050
REMARK  12 active torsions:
REMARK  status: ('A' for Active; 'I' for Inactive)
REMARK    1  A    between atoms: C_1  and  C_2
REMARK    2  A    between atoms: C_2  and  N_3
REMARK    3  A    between atoms: C_5  and  C_13
REMARK    4  A    between atoms: C_13  and  N_14
REMARK    5  A    between atoms: C_17  and  C_20
REMARK    6  A    between atoms: N_22  and  C_23
REMARK    7  A    between atoms: C_23  and  C_24
REMARK    8  A    between atoms: C_24  and  N_25
REMARK    9  A    between atoms: N_25  and  C_26
REMARK   10  A    between atoms: N_25  and  C_28
REMARK   11  A    between atoms: C_26  and  C_27
REMARK   12  A    between atoms: C_28  and  C_29
REMARK                            x       y       z     vdW  Elec       q    Type
REMARK                         _______ _______ _______ _____ _____    ______ ____
ROOT
ATOM      1  N   UNL     1       1.103  -3.312  -4.444  0.00  0.00    +0.382 N 
ATOM      2  C   UNL     1      -0.104  -3.781  -3.753  0.00  0.00    -0.078 C 
ATOM      3  C   UNL     1      -0.144  -5.310  -3.770  0.00  0.00    -0.006 C 
ATOM      4  C   UNL     1      -0.164  -5.798  -5.222  0.00  0.00    +0.071 C 
ATOM      5  C   UNL     1       1.061  -5.242  -5.954  0.00  0.00    -0.006 C 
ATOM      6  C   UNL     1       1.057  -3.715  -5.855  0.00  0.00    -0.078 C 
ATOM      7  H   UNL     1       1.917  -3.716  -4.007  0.00  0.00    -0.081 HD
ENDROOT
BRANCH   4   8
ATOM      8  C   UNL     1      -0.125  -7.304  -5.248  0.00  0.00    +0.216 C 
ATOM      9  O   UNL     1      -0.086  -7.928  -4.208  0.00  0.00    -0.276 OA
ATOM     10  N   UNL     1      -0.135  -7.958  -6.426  0.00  0.00    -0.317 N 
ATOM     11  H   UNL     1      -0.166  -7.460  -7.257  0.00  0.00    +0.149 HD
BRANCH  10  12
ATOM     12  C   UNL     1      -0.097  -9.423  -6.451  0.00  0.00    +0.085 C 
BRANCH  12  13
ATOM     13  C   UNL     1      -0.117  -9.909  -7.902  0.00  0.00    -0.060 C 
BRANCH  13  14
ATOM     14  N   UNL     1       0.052 -11.368  -7.932  0.00  0.00    +0.380 N 
ATOM     15  H   UNL     1       0.886 -11.620  -7.424  0.00  0.00    -0.082 HD
BRANCH  14  16
ATOM     16  C   UNL     1      -1.114 -12.008  -7.309  0.00  0.00    -0.082 C 
ATOM     17  C   UNL     1      -0.883 -13.519  -7.228  0.00  0.00    -0.017 C 
ENDBRANCH  14  16
BRANCH  14  18
ATOM     18  C   UNL     1       0.172 -11.818  -9.325  0.00  0.00    -0.082 C 
ATOM     19  C   UNL     1       1.464 -11.264  -9.930  0.00  0.00    -0.017 C 
ENDBRANCH  14  18
ENDBRANCH  13  14
ENDBRANCH  12  13
ENDBRANCH  10  12
ENDBRANCH   4   8
BRANCH   1  20
ATOM     20  C   UNL     1       1.178  -1.847  -4.357  0.00  0.00    -0.041 C 
BRANCH  20  23
ATOM     21  N   UNL     1       0.916  -0.721  -0.862  0.00  0.00    -0.347 N 
ATOM     22  C   UNL     1       0.386  -0.994  -2.093  0.00  0.00    +0.088 A 
ATOM     23  C   UNL     1       1.349  -1.438  -2.917  0.00  0.00    -0.039 A 
ATOM     24  C   UNL     1       2.597  -1.450  -2.150  0.00  0.00    +0.003 A 
ATOM     25  C   UNL     1       2.268  -0.983  -0.864  0.00  0.00    +0.049 A 
ATOM     26  C   UNL     1       3.264  -0.877   0.100  0.00  0.00    +0.028 A 
ATOM     27  C   UNL     1       4.561  -1.225  -0.209  0.00  0.00    +0.022 A 
ATOM     28  C   UNL     1       4.887  -1.682  -1.480  0.00  0.00    +0.042 A 
ATOM     29  C   UNL     1       3.915  -1.802  -2.448  0.00  0.00    +0.030 A 
ATOM     30 CL   UNL     1       6.528  -2.113  -1.847  0.00  0.00    -0.084 Cl
BRANCH  21  32
ATOM     31  C   UNL     1       0.261   1.308   0.337  0.00  0.00    +0.027 C 
ATOM     32  C   UNL     1       0.158  -0.217   0.287  0.00  0.00    +0.118 C 
ENDBRANCH  21  32
ENDBRANCH  20  23
ENDBRANCH   1  20
TORSDOF 9
