REMARK  Name = ZINC38635672
REMARK  8 active torsions:
REMARK  status: ('A' for Active; 'I' for Inactive)
REMARK    1  A    between atoms: C_1  and  C_2
REMARK    2  A    between atoms: C_2  and  C_4
REMARK    3  A    between atoms: C_2  and  C_38
REMARK    4  A    between atoms: C_4  and  N_5
REMARK    5  A    between atoms: N_7  and  C_31
REMARK    6  A    between atoms: N_13  and  C_16
REMARK    7  A    between atoms: C_19  and  C_22
REMARK    8  A    between atoms: C_19  and  C_24
REMARK                            x       y       z     vdW  Elec       q    Type
REMARK                         _______ _______ _______ _____ _____    ______ ____
ROOT
ATOM      1  N   UNL     1      -2.105  -0.148  -1.230  0.00  0.00    -0.283 N 
ATOM      2  C   UNL     1      -2.856   1.092  -1.426  0.00  0.00    +0.217 C 
ATOM      3  N   UNL     1      -3.370   1.101  -2.801  0.00  0.00    -0.300 N 
ATOM      4  C   UNL     1      -2.910  -0.153  -3.409  0.00  0.00    +0.109 C 
ATOM      5  C   UNL     1      -2.116  -0.881  -2.357  0.00  0.00    +0.240 C 
ATOM      6  O   UNL     1      -1.575  -1.957  -2.502  0.00  0.00    -0.273 OA
ATOM      7  C   UNL     1      -4.110  -0.994  -3.845  0.00  0.00    +0.017 C 
ATOM      8  C   UNL     1      -3.611  -2.267  -4.533  0.00  0.00    -0.076 C 
ATOM      9  N   UNL     1      -2.801  -1.908  -5.704  0.00  0.00    +0.382 N 
ATOM     10  C   UNL     1      -1.605  -1.171  -5.277  0.00  0.00    -0.076 C 
ATOM     11  C   UNL     1      -2.023   0.147  -4.618  0.00  0.00    +0.017 C 
ATOM     12  H   UNL     1      -3.347  -1.330  -6.325  0.00  0.00    -0.081 HD
ENDROOT
BRANCH   3  13
ATOM     13  C   UNL     1      -4.140   2.098  -3.407  0.00  0.00    +0.032 A 
ATOM     14  C   UNL     1      -4.556   1.952  -4.724  0.00  0.00    +0.026 A 
ATOM     15  C   UNL     1      -5.317   2.939  -5.320  0.00  0.00    +0.040 A 
ATOM     16  C   UNL     1      -5.666   4.072  -4.605  0.00  0.00    +0.124 A 
ATOM     17  C   UNL     1      -5.253   4.220  -3.292  0.00  0.00    +0.040 A 
ATOM     18  C   UNL     1      -4.496   3.234  -2.690  0.00  0.00    +0.026 A 
ATOM     19  F   UNL     1      -6.410   5.036  -5.190  0.00  0.00    -0.205 F 
ENDBRANCH   3  13
BRANCH   9  20
ATOM     20  C   UNL     1      -2.394  -3.130  -6.409  0.00  0.00    -0.068 C 
ATOM     21  C   UNL     1      -1.549  -2.758  -7.629  0.00  0.00    -0.013 C 
ATOM     22  C   UNL     1      -2.373  -1.876  -8.570  0.00  0.00    +0.025 C 
ATOM     23  C   UNL     1      -3.618  -2.640  -9.025  0.00  0.00    +0.082 C 
ATOM     24  C   UNL     1      -4.462  -3.013  -7.805  0.00  0.00    +0.025 C 
ATOM     25  C   UNL     1      -3.638  -3.894  -6.865  0.00  0.00    -0.013 C 
BRANCH  23  26
ATOM     26  C   UNL     1      -4.429  -1.772  -9.952  0.00  0.00    -0.027 A 
ATOM     27  C   UNL     1      -3.993  -0.498 -10.264  0.00  0.00    +0.008 A 
ATOM     28  C   UNL     1      -4.736   0.299 -11.114  0.00  0.00    +0.038 A 
ATOM     29  C   UNL     1      -5.917  -0.179 -11.653  0.00  0.00    +0.123 A 
ATOM     30  C   UNL     1      -6.354  -1.455 -11.341  0.00  0.00    +0.038 A 
ATOM     31  C   UNL     1      -5.606  -2.252 -10.495  0.00  0.00    +0.008 A 
ATOM     32  F   UNL     1      -6.645   0.600 -12.484  0.00  0.00    -0.205 F 
ENDBRANCH  23  26
BRANCH  23  33
ATOM     33  C   UNL     1      -3.210  -3.865  -9.732  0.00  0.00    +0.074 C 
ATOM     34  N   UNL     1      -2.895  -4.811 -10.278  0.00  0.00    -0.196 NA
ENDBRANCH  23  33
ENDBRANCH   9  20
BRANCH   1  35
ATOM     35  C   UNL     1      -1.433  -0.534   0.013  0.00  0.00    +0.127 C 
BRANCH  35  37
ATOM     36  C   UNL     1      -0.019   1.526   0.010  0.00  0.00    +0.025 C 
ATOM     37  C   UNL     1       0.002  -0.004   0.002  0.00  0.00    +0.106 C 
BRANCH  37  38
ATOM     38  C   UNL     1       0.714  -0.492   1.195  0.00  0.00    +0.067 C 
ATOM     39  N   UNL     1       1.263  -0.868   2.115  0.00  0.00    -0.196 NA
ENDBRANCH  37  38
ENDBRANCH  35  37
ENDBRANCH   1  35
TORSDOF 7
