REMARK  Name = ZINC63294893
REMARK  5 active torsions:
REMARK  status: ('A' for Active; 'I' for Inactive)
REMARK    1  A    between atoms: C_7  and  C_10
REMARK    2  A    between atoms: C_10  and  C_11
REMARK    3  A    between atoms: C_14  and  C_18
REMARK    4  A    between atoms: N_20  and  C_21
REMARK    5  A    between atoms: C_21  and  C_22
REMARK                            x       y       z     vdW  Elec       q    Type
REMARK                         _______ _______ _______ _____ _____    ______ ____
ROOT
ATOM      1  C   UNL     1       0.457  -3.653  -1.462  0.00  0.00    +0.154 C 
ATOM      2  N   UNL     1      -0.507  -4.779  -1.494  0.00  0.00    -0.265 NA
ATOM      3  C   UNL     1      -1.360  -4.562  -2.679  0.00  0.00    +0.297 C 
ATOM      4  O   UNL     1      -0.896  -3.361  -3.323  0.00  0.00    -0.270 OA
ATOM      5  N   UNL     1      -0.217  -2.591  -2.255  0.00  0.00    -0.181 NA
ATOM      6  H   UNL     1      -0.026  -5.665  -1.551  0.00  0.00    +0.126 HD
ATOM      7  H   UNL     1       0.457  -1.947  -2.643  0.00  0.00    +0.156 HD
ENDROOT
BRANCH   3   8
ATOM      8  C   UNL     1      -1.237  -5.732  -3.621  0.00  0.00    +0.259 C 
ATOM      9  O   UNL     1      -2.170  -6.493  -3.767  0.00  0.00    -0.271 OA
ATOM     10  N   UNL     1      -0.091  -5.933  -4.300  0.00  0.00    -0.308 N 
ATOM     11  H   UNL     1       0.655  -5.324  -4.184  0.00  0.00    +0.149 HD
BRANCH  10  12
ATOM     12  C   UNL     1       0.028  -7.071  -5.216  0.00  0.00    +0.139 C 
BRANCH  12  13
ATOM     13  C   UNL     1       1.398  -7.068  -5.844  0.00  0.00    -0.030 A 
ATOM     14  C   UNL     1       1.614  -6.385  -7.026  0.00  0.00    +0.008 A 
ATOM     15  C   UNL     1       2.870  -6.381  -7.603  0.00  0.00    +0.038 A 
ATOM     16  C   UNL     1       3.912  -7.063  -6.998  0.00  0.00    +0.123 A 
ATOM     17  C   UNL     1       3.694  -7.748  -5.814  0.00  0.00    +0.038 A 
ATOM     18  C   UNL     1       2.438  -7.745  -5.236  0.00  0.00    +0.008 A 
ATOM     19  F   UNL     1       5.139  -7.061  -7.561  0.00  0.00    -0.205 F 
ENDBRANCH  12  13
ENDBRANCH  10  12
ENDBRANCH   3   8
BRANCH   1  20
ATOM     20  C   UNL     1       0.691  -3.186  -0.024  0.00  0.00    +0.070 C 
BRANCH  20  27
ATOM     21  C   UNL     1      -0.016   1.348   0.009  0.00  0.00    +0.001 A 
ATOM     22  C   UNL     1       1.166   2.101   0.002  0.00  0.00    +0.002 A 
ATOM     23  C   UNL     1       2.391   1.535  -0.013  0.00  0.00    +0.026 A 
ATOM     24  C   UNL     1       2.529   0.120  -0.022  0.00  0.00    +0.043 A 
ATOM     25  N   UNL     1       3.587  -0.654  -0.037  0.00  0.00    -0.380 N 
ATOM     26  C   UNL     1       3.143  -2.053  -0.041  0.00  0.00    +0.144 C 
ATOM     27  C   UNL     1       1.631  -2.008  -0.025  0.00  0.00    -0.039 C 
ATOM     28  C   UNL     1       1.295  -0.698  -0.014  0.00  0.00    -0.001 A 
ATOM     29  C   UNL     1       0.002  -0.004   0.002  0.00  0.00    +0.010 A 
ATOM     30  H   UNL     1       4.509  -0.353  -0.045  0.00  0.00    +0.160 HD
ENDBRANCH  20  27
ENDBRANCH   1  20
TORSDOF 5
