REMARK  Name = ZINC50164268
REMARK  5 active torsions:
REMARK  status: ('A' for Active; 'I' for Inactive)
REMARK    1  A    between atoms: C_1  and  C_2
REMARK    2  A    between atoms: C_2  and  C_4
REMARK    3  A    between atoms: C_2  and  N_11
REMARK    4  A    between atoms: N_11  and  C_12
REMARK    5  A    between atoms: C_15  and  N_19
REMARK                            x       y       z     vdW  Elec       q    Type
REMARK                         _______ _______ _______ _____ _____    ______ ____
ROOT
ATOM      1  N   UNL     1      -1.372  -0.511   0.012  0.00  0.00    -0.340 N 
ATOM      2  H   UNL     1      -1.794  -0.752   0.852  0.00  0.00    +0.146 HD
ENDROOT
BRANCH   1   3
ATOM      3  C   UNL     1      -2.076  -0.648  -1.187  0.00  0.00    +0.042 A 
ATOM      4  C   UNL     1      -1.472  -0.308  -2.391  0.00  0.00    +0.026 A 
ATOM      5  C   UNL     1      -2.169  -0.445  -3.575  0.00  0.00    +0.034 A 
ATOM      6  C   UNL     1      -3.469  -0.918  -3.563  0.00  0.00    +0.127 A 
ATOM      7  C   UNL     1      -4.074  -1.257  -2.367  0.00  0.00    +0.049 A 
ATOM      8  C   UNL     1      -3.380  -1.128  -1.179  0.00  0.00    +0.041 A 
ATOM      9 BR   UNL     1      -4.205  -1.599   0.456  0.00  0.00    -0.048 Br
BRANCH   6  10
ATOM     10  N   UNL     1      -4.213  -1.062  -4.834  0.00  0.00    +0.056 N 
ATOM     11  O   UNL     1      -3.686  -0.766  -5.881  0.00  0.00    -0.126 OA
ATOM     12  O   UNL     1      -5.349  -1.476  -4.826  0.00  0.00    -0.126 OA
ENDBRANCH   6  10
ENDBRANCH   1   3
BRANCH   1  14
ATOM     13  C   UNL     1      -0.019   1.526   0.010  0.00  0.00    +0.028 C 
ATOM     14  C   UNL     1       0.002  -0.004   0.002  0.00  0.00    +0.069 C 
BRANCH  14  15
ATOM     15  C   UNL     1       0.742  -0.511   1.242  0.00  0.00    -0.008 C 
ATOM     16  C   UNL     1       0.765  -2.042   1.233  0.00  0.00    +0.001 C 
ATOM     17  C   UNL     1       1.575  -2.537   2.435  0.00  0.00    -0.019 C 
ATOM     18  C   UNL     1       2.981  -1.936   2.379  0.00  0.00    -0.083 C 
ATOM     19  N   UNL     1       2.892  -0.471   2.417  0.00  0.00    +0.379 N 
ATOM     20  C   UNL     1       2.179   0.017   1.230  0.00  0.00    -0.077 C 
ATOM     21  H   UNL     1       2.394  -0.187   3.247  0.00  0.00    -0.086 HD
ATOM     22  H   UNL     1       3.821  -0.079   2.434  0.00  0.00    -0.086 HD
ENDBRANCH  14  15
ENDBRANCH   1  14
TORSDOF 4
