REMARK  Name = ZINC59565019
REMARK  12 active torsions:
REMARK  status: ('A' for Active; 'I' for Inactive)
REMARK    1  A    between atoms: C_1  and  C_2
REMARK    2  A    between atoms: C_2  and  C_3
REMARK    3  A    between atoms: C_3  and  C_5
REMARK    4  A    between atoms: C_3  and  O_18
REMARK    5  A    between atoms: N_7  and  C_8
REMARK    6  A    between atoms: C_11  and  S_14
REMARK    7  A    between atoms: S_14  and  N_17
REMARK    8  A    between atoms: O_18  and  C_19
REMARK    9  A    between atoms: C_19  and  C_21
REMARK   10  A    between atoms: N_23  and  C_33
REMARK   11  A    between atoms: C_30  and  C_32
REMARK   12  A    between atoms: C_33  and  C_34
REMARK                            x       y       z     vdW  Elec       q    Type
REMARK                         _______ _______ _______ _____ _____    ______ ____
ROOT
ATOM      1  C   UNL     1      -1.427  -0.534   0.010  0.00  0.00    +0.262 C 
ENDROOT
BRANCH   1   2
ATOM      2  C   UNL     1      -1.415  -2.036   0.129  0.00  0.00    +0.258 C 
ATOM      3  O   UNL     1      -1.839  -2.720  -0.778  0.00  0.00    -0.271 OA
ATOM      4  N   UNL     1      -0.933  -2.620   1.244  0.00  0.00    -0.282 N 
ATOM      5  H   UNL     1      -0.533  -2.077   1.942  0.00  0.00    +0.155 HD
BRANCH   4   6
ATOM      6  C   UNL     1      -1.011  -4.009   1.396  0.00  0.00    +0.034 A 
ATOM      7  C   UNL     1      -1.235  -4.560   2.651  0.00  0.00    +0.025 A 
ATOM      8  C   UNL     1      -1.311  -5.931   2.797  0.00  0.00    +0.030 A 
ATOM      9  C   UNL     1      -1.164  -6.755   1.696  0.00  0.00    +0.105 A 
ATOM     10  C   UNL     1      -0.940  -6.209   0.446  0.00  0.00    +0.030 A 
ATOM     11  C   UNL     1      -0.869  -4.838   0.291  0.00  0.00    +0.025 A 
BRANCH   9  12
ATOM     12  S   UNL     1      -1.261  -8.504   1.887  0.00  0.00    +0.056 S 
ATOM     13  O   UNL     1      -0.548  -9.072   0.798  0.00  0.00    -0.153 OA
ATOM     14  O   UNL     1      -0.933  -8.783   3.241  0.00  0.00    -0.153 OA
BRANCH  12  15
ATOM     15  N   UNL     1      -2.849  -8.931   1.687  0.00  0.00    -0.204 NA
ATOM     16  H   UNL     1      -3.075  -9.802   1.326  0.00  0.00    +0.144 HD
ATOM     17  H   UNL     1      -3.552  -8.309   1.931  0.00  0.00    +0.144 HD
ENDBRANCH  12  15
ENDBRANCH   9  12
ENDBRANCH   4   6
ENDBRANCH   1   2
BRANCH   1  19
ATOM     18  C   UNL     1      -0.001   1.518  -0.003  0.00  0.00    +0.008 C 
ATOM     19  C   UNL     1       0.011  -0.012  -0.008  0.00  0.00    +0.051 C 
ENDBRANCH   1  19
BRANCH   1  20
ATOM     20  O   UNL     1      -2.086  -0.157  -1.201  0.00  0.00    -0.448 OA
BRANCH  20  21
ATOM     21  C   UNL     1      -2.732   1.026  -1.203  0.00  0.00    +0.345 C 
ATOM     22  O   UNL     1      -2.735   1.719  -0.204  0.00  0.00    -0.245 OA
BRANCH  21  23
ATOM     23  C   UNL     1      -3.432   1.479  -2.414  0.00  0.00    +0.122 A 
ATOM     24  C   UNL     1      -4.092   2.690  -2.433  0.00  0.00    +0.106 A 
ATOM     25  N   UNL     1      -4.740   3.135  -3.517  0.00  0.00    -0.331 N 
ATOM     26  C   UNL     1      -4.802   2.427  -4.695  0.00  0.00    +0.145 A 
ATOM     27  C   UNL     1      -4.166   1.177  -4.798  0.00  0.00    +0.065 A 
ATOM     28  C   UNL     1      -3.436   0.651  -3.632  0.00  0.00    +0.205 A 
ATOM     29  O   UNL     1      -2.865  -0.425  -3.671  0.00  0.00    -0.286 OA
ATOM     30  C   UNL     1      -4.231   0.464  -5.997  0.00  0.00    +0.017 A 
ATOM     31  C   UNL     1      -4.930   1.027  -7.050  0.00  0.00    +0.024 A 
ATOM     32  C   UNL     1      -5.533   2.263  -6.880  0.00  0.00    +0.041 A 
ATOM     33  N   UNL     1      -5.459   2.917  -5.739  0.00  0.00    -0.234 NA
ATOM     34  C   UNL     1      -6.294   2.874  -8.028  0.00  0.00    +0.065 C 
BRANCH  25  35
ATOM     35  C   UNL     1      -5.414   4.434  -3.446  0.00  0.00    +0.120 C 
ATOM     36  C   UNL     1      -4.444   5.536  -3.875  0.00  0.00    +0.027 C 
ENDBRANCH  25  35
ENDBRANCH  21  23
ENDBRANCH  20  21
ENDBRANCH   1  20
TORSDOF 9
