REMARK  Name = ZINC00715913
REMARK  10 active torsions:
REMARK  status: ('A' for Active; 'I' for Inactive)
REMARK    1  A    between atoms: C_1  and  C_2
REMARK    2  A    between atoms: C_2  and  C_36
REMARK    3  A    between atoms: C_6  and  C_27
REMARK    4  A    between atoms: C_8  and  C_25
REMARK    5  A    between atoms: C_9  and  S_13
REMARK    6  A    between atoms: S_13  and  C_14
REMARK    7  A    between atoms: C_14  and  C_15
REMARK    8  A    between atoms: N_17  and  C_18
REMARK    9  A    between atoms: C_30  and  O_33
REMARK   10  A    between atoms: O_33  and  C_34
REMARK                            x       y       z     vdW  Elec       q    Type
REMARK                         _______ _______ _______ _____ _____    ______ ____
ROOT
ATOM      1  C   UNL     1      -0.020   1.572   0.019  0.00  0.00    +0.011 C 
ATOM      2  C   UNL     1      -0.009   0.043   0.005  0.00  0.00    -0.023 C 
ATOM      3  C   UNL     1       0.724  -0.456  -1.244  0.00  0.00    +0.086 C 
ATOM      4  C   UNL     1       2.153   0.006  -1.199  0.00  0.00    +0.162 C 
ATOM      5  C   UNL     1       2.803   0.208  -0.031  0.00  0.00    +0.029 C 
ATOM      6  C   UNL     1       4.236   0.673  -0.091  0.00  0.00    +0.097 C 
ATOM      7  C   UNL     1       4.803   0.852   1.285  0.00  0.00    +0.073 C 
ATOM      8  C   UNL     1       4.054   0.604   2.412  0.00  0.00    +0.112 C 
ATOM      9  N   UNL     1       2.785   0.191   2.338  0.00  0.00    -0.244 NA
ATOM     10  C   UNL     1       2.164  -0.007   1.199  0.00  0.00    +0.050 C 
ATOM     11  C   UNL     1       0.729  -0.478   1.241  0.00  0.00    +0.062 C 
ATOM     12  O   UNL     1       2.807   0.224  -2.358  0.00  0.00    -0.292 OA
ATOM     13  C   UNL     1      -1.447  -0.482   0.006  0.00  0.00    +0.011 C 
ENDROOT
BRANCH   6  14
ATOM     14  C   UNL     1       5.057  -0.350  -0.833  0.00  0.00    -0.034 A 
ATOM     15  C   UNL     1       5.135  -1.647  -0.361  0.00  0.00    +0.008 A 
ATOM     16  C   UNL     1       5.887  -2.586  -1.040  0.00  0.00    +0.046 A 
ATOM     17  C   UNL     1       6.564  -2.227  -2.196  0.00  0.00    +0.120 A 
ATOM     18  C   UNL     1       6.483  -0.925  -2.668  0.00  0.00    +0.046 A 
ATOM     19  C   UNL     1       5.726   0.009  -1.989  0.00  0.00    +0.008 A 
BRANCH  17  20
ATOM     20  O   UNL     1       7.305  -3.149  -2.865  0.00  0.00    -0.495 OA
ATOM     21  C   UNL     1       7.974  -2.709  -4.048  0.00  0.00    +0.277 C 
ENDBRANCH  17  20
ENDBRANCH   6  14
BRANCH   7  22
ATOM     22  C   UNL     1       6.158   1.292   1.430  0.00  0.00    +0.098 C 
ATOM     23  N   UNL     1       7.233   1.641   1.545  0.00  0.00    -0.191 NA
ENDBRANCH   7  22
BRANCH   8  24
ATOM     24  S   UNL     1       4.789   0.837   3.997  0.00  0.00    -0.096 S 
BRANCH  24  25
ATOM     25  C   UNL     1       3.467   0.402   5.161  0.00  0.00    +0.172 C 
BRANCH  25  26
ATOM     26  C   UNL     1       3.970   0.560   6.573  0.00  0.00    +0.227 C 
ATOM     27  O   UNL     1       5.107   0.930   6.774  0.00  0.00    -0.275 OA
ATOM     28  N   UNL     1       3.155   0.291   7.612  0.00  0.00    -0.285 N 
ATOM     29  H   UNL     1       2.226   0.061   7.453  0.00  0.00    +0.155 HD
BRANCH  28  30
ATOM     30  C   UNL     1       3.649   0.344   8.921  0.00  0.00    +0.034 A 
ATOM     31  C   UNL     1       3.184  -0.549   9.877  0.00  0.00    +0.026 A 
ATOM     32  C   UNL     1       3.673  -0.496  11.167  0.00  0.00    +0.040 A 
ATOM     33  C   UNL     1       4.626   0.449  11.509  0.00  0.00    +0.124 A 
ATOM     34  C   UNL     1       5.091   1.341  10.558  0.00  0.00    +0.040 A 
ATOM     35  C   UNL     1       4.609   1.287   9.264  0.00  0.00    +0.026 A 
ATOM     36  F   UNL     1       5.102   0.501  12.772  0.00  0.00    -0.205 F 
ENDBRANCH  28  30
ENDBRANCH  25  26
ENDBRANCH  24  25
ENDBRANCH   8  24
TORSDOF 7
