REMARK  Name = ZINC14922026
REMARK  5 active torsions:
REMARK  status: ('A' for Active; 'I' for Inactive)
REMARK    1  A    between atoms: C_1  and  C_2
REMARK    2  A    between atoms: C_2  and  C_18
REMARK    3  A    between atoms: N_3  and  N_4
REMARK    4  A    between atoms: C_5  and  C_7
REMARK    5  A    between atoms: C_7  and  C_8
REMARK                            x       y       z     vdW  Elec       q    Type
REMARK                         _______ _______ _______ _____ _____    ______ ____
ROOT
ATOM      1  C   UNL     1       4.906   4.303  -0.019  0.00  0.00    +0.068 C 
ATOM      2  C   UNL     1       3.694   3.408  -0.013  0.00  0.00    +0.064 C 
ATOM      3  N   UNL     1       3.840   2.117  -0.021  0.00  0.00    -0.185 NA
ENDROOT
BRANCH   2   4
ATOM      4  C   UNL     1       2.345   3.996   0.002  0.00  0.00    +0.005 A 
ATOM      5  C   UNL     1       2.162   5.377   0.011  0.00  0.00    +0.010 A 
ATOM      6  C   UNL     1       0.895   5.949   0.025  0.00  0.00    +0.005 A 
ATOM      7  C   UNL     1      -0.231   5.180   0.031  0.00  0.00    -0.039 A 
ATOM      8  C   UNL     1      -0.096   3.795   0.022  0.00  0.00    -0.011 A 
ATOM      9  C   UNL     1       1.153   3.151   0.008  0.00  0.00    -0.008 A 
ATOM     10  C   UNL     1       1.175   1.752   0.000  0.00  0.00    +0.009 A 
ATOM     11  C   UNL     1      -0.013   1.076   0.008  0.00  0.00    +0.001 A 
ATOM     12  C   UNL     1      -1.244   1.734   0.018  0.00  0.00    +0.004 A 
ATOM     13  C   UNL     1      -1.298   3.094   0.030  0.00  0.00    -0.039 A 
ATOM     14  C   UNL     1      -2.413   4.111   0.045  0.00  0.00    +0.040 C 
ATOM     15  C   UNL     1      -1.711   5.486   0.046  0.00  0.00    +0.040 C 
ENDBRANCH   2   4
BRANCH   3  16
ATOM     16  N   UNL     1       5.124   1.557  -0.034  0.00  0.00    -0.206 N 
ATOM     17  C   UNL     1       5.275   0.218  -0.042  0.00  0.00    +0.237 C 
ATOM     18  O   UNL     1       4.299  -0.503  -0.037  0.00  0.00    -0.274 OA
ATOM     19  H   UNL     1       5.904   2.133  -0.038  0.00  0.00    +0.177 HD
BRANCH  17  20
ATOM     20  C   UNL     1       6.656  -0.385  -0.057  0.00  0.00    +0.133 C 
BRANCH  20  21
ATOM     21  C   UNL     1       6.549  -1.888  -0.064  0.00  0.00    -0.031 A 
ATOM     22  C   UNL     1       6.612  -2.583   1.105  0.00  0.00    +0.005 A 
ATOM     23  C   UNL     1       6.515  -3.973   1.118  0.00  0.00    +0.001 A 
ATOM     24  C   UNL     1       6.353  -4.676  -0.036  0.00  0.00    +0.008 A 
ATOM     25  C   UNL     1       6.282  -3.992  -1.262  0.00  0.00    -0.018 A 
ATOM     26  C   UNL     1       6.377  -2.578  -1.275  0.00  0.00    -0.014 A 
ATOM     27  C   UNL     1       6.311  -1.895  -2.502  0.00  0.00    +0.009 A 
ATOM     28  C   UNL     1       6.149  -2.597  -3.656  0.00  0.00    +0.001 A 
ATOM     29  C   UNL     1       6.053  -3.988  -3.642  0.00  0.00    +0.001 A 
ATOM     30  C   UNL     1       6.116  -4.683  -2.474  0.00  0.00    +0.008 A 
ENDBRANCH  20  21
ENDBRANCH  17  20
ENDBRANCH   3  16
TORSDOF 4
