REMARK  Name = ZINC15065849
REMARK  7 active torsions:
REMARK  status: ('A' for Active; 'I' for Inactive)
REMARK    1  A    between atoms: C_4  and  C_7
REMARK    2  A    between atoms: C_7  and  C_8
REMARK    3  A    between atoms: C_8  and  C_9
REMARK    4  A    between atoms: C_9  and  C_10
REMARK    5  A    between atoms: N_13  and  C_17
REMARK    6  A    between atoms: N_20  and  C_23
REMARK    7  A    between atoms: C_23  and  C_24
REMARK                            x       y       z     vdW  Elec       q    Type
REMARK                         _______ _______ _______ _____ _____    ______ ____
ROOT
ATOM      1  C   UNL     1      -3.544   3.343   2.922  0.00  0.00    +0.132 C 
ATOM      2  C   UNL     1      -4.934   3.983   2.935  0.00  0.00    +0.116 C 
ATOM      3  N   UNL     1      -5.317   4.283   4.322  0.00  0.00    -0.295 NA
ATOM      4  C   UNL     1      -4.341   5.186   4.949  0.00  0.00    +0.113 C 
ATOM      5  C   UNL     1      -2.956   4.534   4.916  0.00  0.00    +0.175 C 
ATOM      6  O   UNL     1      -2.614   4.221   3.563  0.00  0.00    -0.374 OA
ENDROOT
BRANCH   3   7
ATOM      7  C   UNL     1      -6.672   4.848   4.384  0.00  0.00    +0.053 C 
ATOM      8  C   UNL     1      -6.695   6.203   3.671  0.00  0.00    +0.000 C 
ATOM      9  C   UNL     1      -8.092   6.814   3.793  0.00  0.00    -0.077 C 
ATOM     10  N   UNL     1      -8.435   6.980   5.211  0.00  0.00    +0.384 N 
ATOM     11  C   UNL     1      -8.467   5.686   5.904  0.00  0.00    -0.077 C 
ATOM     12  C   UNL     1      -7.080   5.041   5.847  0.00  0.00    +0.000 C 
ATOM     13  H   UNL     1      -7.648   7.591   5.677  0.00  0.00    -0.081 HD
BRANCH  10  14
ATOM     14  C   UNL     1      -9.712   7.690   5.365  0.00  0.00    -0.003 C 
BRANCH  14  15
ATOM     15  C   UNL     1      -9.565   9.102   4.859  0.00  0.00    +0.089 A 
ATOM     16  C   UNL     1      -9.789   9.513   3.598  0.00  0.00    +0.042 A 
ATOM     17  C   UNL     1      -9.532  10.903   3.568  0.00  0.00    +0.041 A 
ATOM     18  C   UNL     1      -9.166  11.258   4.813  0.00  0.00    +0.195 A 
ATOM     19  O   UNL     1      -9.193  10.164   5.592  0.00  0.00    -0.470 OA
ENDBRANCH  14  15
ENDBRANCH  10  14
ENDBRANCH   3   7
BRANCH   1  20
ATOM     20  C   UNL     1      -3.105   3.102   1.476  0.00  0.00    +0.033 C 
BRANCH  20  21
ATOM     21  C   UNL     1      -1.770   2.355   1.466  0.00  0.00    +0.007 C 
BRANCH  21  22
ATOM     22  C   UNL     1      -1.332   2.114   0.020  0.00  0.00    +0.035 C 
BRANCH  22  26
ATOM     23  C   UNL     1       2.396   0.029  -0.021  0.00  0.00    +0.000 A 
ATOM     24  C   UNL     1       1.208  -0.679  -0.013  0.00  0.00    +0.000 A 
ATOM     25  C   UNL     1       0.002  -0.004   0.002  0.00  0.00    +0.003 A 
ATOM     26  C   UNL     1      -0.017   1.378   0.010  0.00  0.00    -0.047 A 
ATOM     27  C   UNL     1       1.171   2.086   0.002  0.00  0.00    +0.003 A 
ATOM     28  C   UNL     1       2.377   1.411  -0.015  0.00  0.00    +0.000 A 
ENDBRANCH  22  26
ENDBRANCH  21  22
ENDBRANCH  20  21
ENDBRANCH   1  20
TORSDOF 7
