REMARK  Name = ZINC22451348
REMARK  6 active torsions:
REMARK  status: ('A' for Active; 'I' for Inactive)
REMARK    1  A    between atoms: C_1  and  C_2
REMARK    2  A    between atoms: C_5  and  S_8
REMARK    3  A    between atoms: S_8  and  C_9
REMARK    4  A    between atoms: C_9  and  C_10
REMARK    5  A    between atoms: C_20  and  C_27
REMARK    6  A    between atoms: C_23  and  C_26
REMARK                            x       y       z     vdW  Elec       q    Type
REMARK                         _______ _______ _______ _____ _____    ______ ____
ROOT
ATOM      1  C   UNL     1       1.322  -0.398  -3.318  0.00  0.00    +0.060 A 
ATOM      2  C   UNL     1       0.900  -0.020  -4.559  0.00  0.00    +0.094 A 
ATOM      3  C   UNL     1      -0.120   0.942  -4.666  0.00  0.00    +0.253 A 
ATOM      4  O   UNL     1      -0.522   1.303  -5.760  0.00  0.00    -0.268 OA
ATOM      5  N   UNL     1      -0.646   1.459  -3.535  0.00  0.00    -0.295 N 
ATOM      6  H   UNL     1      -1.444   2.213  -3.594  0.00  0.00    +0.172 HD
ATOM      7  C   UNL     1      -0.185   1.043  -2.324  0.00  0.00    +0.198 A 
ATOM      8  N   UNL     1       0.775   0.144  -2.232  0.00  0.00    -0.220 NA
ATOM      9  N   UNL     1      -0.723   1.572  -1.182  0.00  0.00    -0.301 N 
ATOM     10  C   UNL     1      -0.013   1.086   0.008  0.00  0.00    +0.111 C 
ATOM     11  C   UNL     1      -0.729   1.579   1.267  0.00  0.00    +0.004 C 
ATOM     12  C   UNL     1      -0.764   3.110   1.262  0.00  0.00    +0.009 C 
ATOM     13  C   UNL     1      -1.466   3.591  -0.011  0.00  0.00    +0.004 C 
ATOM     14  C   UNL     1      -0.729   3.040  -1.234  0.00  0.00    +0.111 C 
ATOM     15  C   UNL     1      -1.453   5.121  -0.054  0.00  0.00    +0.009 C 
ATOM     16  C   UNL     1      -2.158   1.035   1.289  0.00  0.00    +0.009 C 
ENDROOT
BRANCH   1  17
ATOM     17  C   UNL     1       2.413  -1.428  -3.176  0.00  0.00    +0.130 C 
BRANCH  17  18
ATOM     18  S   UNL     1       3.960  -0.609  -2.699  0.00  0.00    -0.119 S 
BRANCH  18  23
ATOM     19  C   UNL     1       7.937  -5.129  -2.273  0.00  0.00    +0.044 C 
ATOM     20  C   UNL     1       6.944  -4.000  -2.379  0.00  0.00    -0.050 A 
ATOM     21  C   UNL     1       7.346  -2.702  -2.125  0.00  0.00    +0.004 A 
ATOM     22  C   UNL     1       6.439  -1.665  -2.221  0.00  0.00    +0.015 A 
ATOM     23  C   UNL     1       5.121  -1.928  -2.575  0.00  0.00    +0.008 A 
ATOM     24  C   UNL     1       4.719  -3.235  -2.825  0.00  0.00    +0.015 A 
ATOM     25  C   UNL     1       5.633  -4.266  -2.731  0.00  0.00    +0.004 A 
ENDBRANCH  18  23
ENDBRANCH  17  18
ENDBRANCH   1  17
TORSDOF 3
