REMARK  Name = ZINC41515071
REMARK  7 active torsions:
REMARK  status: ('A' for Active; 'I' for Inactive)
REMARK    1  A    between atoms: C_1  and  C_2
REMARK    2  A    between atoms: C_2  and  N_3
REMARK    3  A    between atoms: N_6  and  C_9
REMARK    4  A    between atoms: C_9  and  C_10
REMARK    5  A    between atoms: C_11  and  O_32
REMARK    6  A    between atoms: C_17  and  C_28
REMARK    7  A    between atoms: C_18  and  C_21
REMARK                            x       y       z     vdW  Elec       q    Type
REMARK                         _______ _______ _______ _____ _____    ______ ____
ROOT
ATOM      1  C   UNL     1      -4.278  -4.449  -1.349  0.00  0.00    +0.051 A 
ATOM      2  C   UNL     1      -4.326  -5.187  -2.520  0.00  0.00    +0.125 A 
ATOM      3  C   UNL     1      -4.610  -6.551  -2.490  0.00  0.00    +0.046 A 
ATOM      4  C   UNL     1      -4.841  -7.180  -1.299  0.00  0.00    +0.019 A 
ATOM      5  C   UNL     1      -4.794  -6.450  -0.112  0.00  0.00    +0.065 A 
ATOM      6  C   UNL     1      -4.509  -5.073  -0.131  0.00  0.00    +0.147 A 
ATOM      7  O   UNL     1      -4.474  -4.370   1.018  0.00  0.00    -0.449 OA
ATOM      8  C   UNL     1      -4.397  -4.970   2.207  0.00  0.00    +0.219 A 
ATOM      9  C   UNL     1      -4.655  -6.293   2.381  0.00  0.00    +0.076 A 
ATOM     10  C   UNL     1      -5.029  -7.091   1.196  0.00  0.00    +0.201 A 
ATOM     11  O   UNL     1      -5.492  -8.215   1.291  0.00  0.00    -0.286 OA
ENDROOT
BRANCH   9  12
ATOM     12  C   UNL     1      -4.573  -6.915   3.725  0.00  0.00    -0.011 A 
ATOM     13  C   UNL     1      -5.580  -6.690   4.662  0.00  0.00    +0.010 A 
ATOM     14  C   UNL     1      -5.499  -7.271   5.911  0.00  0.00    +0.016 A 
ATOM     15  C   UNL     1      -4.421  -8.077   6.234  0.00  0.00    +0.018 A 
ATOM     16  C   UNL     1      -3.418  -8.303   5.307  0.00  0.00    +0.016 A 
ATOM     17  C   UNL     1      -3.492  -7.731   4.054  0.00  0.00    +0.010 A 
ATOM     18 BR   UNL     1      -4.317  -8.870   7.947  0.00  0.00    -0.050 Br
ENDBRANCH   9  12
BRANCH   8  19
ATOM     19  C   UNL     1      -4.009  -4.146   3.408  0.00  0.00    +0.451 C 
ATOM     20  F   UNL     1      -3.810  -4.989   4.507  0.00  0.00    -0.163 F 
ATOM     21  F   UNL     1      -2.826  -3.451   3.133  0.00  0.00    -0.163 F 
ATOM     22  F   UNL     1      -5.029  -3.234   3.698  0.00  0.00    -0.163 F 
ENDBRANCH   8  19
BRANCH   2  23
ATOM     23  O   UNL     1      -4.095  -4.575  -3.710  0.00  0.00    -0.506 OA
ATOM     24  H   UNL     1      -3.166  -4.575  -3.978  0.00  0.00    +0.292 HD
ENDBRANCH   2  23
BRANCH   1  25
ATOM     25  C   UNL     1      -3.970  -2.975  -1.397  0.00  0.00    +0.126 C 
BRANCH  25  29
ATOM     26  N   UNL     1      -0.152  -1.616  -0.196  0.00  0.00    +0.381 N 
ATOM     27  C   UNL     1      -0.637  -1.224  -1.526  0.00  0.00    -0.063 C 
ATOM     28  C   UNL     1      -2.159  -1.377  -1.579  0.00  0.00    +0.066 C 
ATOM     29  N   UNL     1      -2.518  -2.775  -1.299  0.00  0.00    -0.301 NA
ATOM     30  C   UNL     1      -2.017  -3.189   0.019  0.00  0.00    +0.066 C 
ATOM     31  C   UNL     1      -0.496  -3.021   0.059  0.00  0.00    -0.063 C 
ATOM     32  H   UNL     1      -0.583  -1.032   0.505  0.00  0.00    -0.082 HD
BRANCH  26  34
ATOM     33  C   UNL     1       1.659   0.031  -0.280  0.00  0.00    -0.017 C 
ATOM     34  C   UNL     1       1.307  -1.452  -0.139  0.00  0.00    -0.082 C 
ENDBRANCH  26  34
ENDBRANCH  25  29
ENDBRANCH   1  25
TORSDOF 6
