REMARK  Name = ZINC56003562
REMARK  6 active torsions:
REMARK  status: ('A' for Active; 'I' for Inactive)
REMARK    1  A    between atoms: C_4  and  C_7
REMARK    2  A    between atoms: C_10  and  S_13
REMARK    3  A    between atoms: S_13  and  N_16
REMARK    4  A    between atoms: N_16  and  C_17
REMARK    5  A    between atoms: C_17  and  C_19
REMARK    6  A    between atoms: C_17  and  C_25
REMARK                            x       y       z     vdW  Elec       q    Type
REMARK                         _______ _______ _______ _____ _____    ______ ____
ROOT
ATOM      1  S   UNL     1       7.657  -2.892  -0.088  0.00  0.00    +0.059 S 
ATOM      2  O   UNL     1       7.402  -4.172  -0.649  0.00  0.00    -0.153 OA
ATOM      3  O   UNL     1       8.613  -1.996  -0.637  0.00  0.00    -0.153 OA
ENDROOT
BRANCH   1   7
ATOM      4  C   UNL     1       3.699  -0.689  -0.037  0.00  0.00    -0.018 A 
ATOM      5  C   UNL     1       4.896   0.024  -0.040  0.00  0.00    +0.010 A 
ATOM      6  C   UNL     1       6.099  -0.652  -0.055  0.00  0.00    +0.029 A 
ATOM      7  C   UNL     1       6.118  -2.035  -0.068  0.00  0.00    +0.105 A 
ATOM      8  C   UNL     1       4.932  -2.748  -0.066  0.00  0.00    +0.029 A 
ATOM      9  C   UNL     1       3.724  -2.082  -0.045  0.00  0.00    +0.010 A 
BRANCH   4  13
ATOM     10  C   UNL     1      -0.017   1.379   0.010  0.00  0.00    +0.000 A 
ATOM     11  C   UNL     1       1.169   2.092   0.002  0.00  0.00    +0.001 A 
ATOM     12  C   UNL     1       2.377   1.426  -0.013  0.00  0.00    +0.008 A 
ATOM     13  C   UNL     1       2.402   0.033  -0.021  0.00  0.00    -0.018 A 
ATOM     14  C   UNL     1       1.205  -0.680  -0.013  0.00  0.00    +0.008 A 
ATOM     15  C   UNL     1       0.002  -0.004   0.002  0.00  0.00    +0.001 A 
ENDBRANCH   4  13
ENDBRANCH   1   7
BRANCH   1  16
ATOM     16  N   UNL     1       8.097  -3.145   1.489  0.00  0.00    -0.174 NA
ATOM     17  H   UNL     1       8.891  -2.718   1.845  0.00  0.00    +0.149 HD
BRANCH  16  18
ATOM     18  C   UNL     1       7.286  -4.014   2.345  0.00  0.00    +0.192 C 
BRANCH  18  19
ATOM     19  C   UNL     1       7.289  -3.477   3.753  0.00  0.00    -0.020 A 
ATOM     20  C   UNL     1       8.451  -2.956   4.291  0.00  0.00    +0.006 A 
ATOM     21  C   UNL     1       8.454  -2.464   5.583  0.00  0.00    +0.000 A 
ATOM     22  C   UNL     1       7.295  -2.491   6.336  0.00  0.00    +0.000 A 
ATOM     23  C   UNL     1       6.133  -3.011   5.797  0.00  0.00    +0.000 A 
ATOM     24  C   UNL     1       6.129  -3.500   4.504  0.00  0.00    +0.006 A 
ENDBRANCH  18  19
BRANCH  18  25
ATOM     25  C   UNL     1       7.862  -5.407   2.337  0.00  0.00    +0.234 C 
ATOM     26  O   UNL     1       8.853  -5.649   1.681  0.00  0.00    -0.274 OA
ATOM     27  N   UNL     1       7.277  -6.383   3.059  0.00  0.00    -0.328 N 
ATOM     28  H   UNL     1       6.484  -6.189   3.584  0.00  0.00    +0.145 HD
ATOM     29  H   UNL     1       7.647  -7.279   3.054  0.00  0.00    +0.145 HD
ENDBRANCH  18  25
ENDBRANCH  16  18
ENDBRANCH   1  16
TORSDOF 6
