REMARK  Name = ZINC62650369
REMARK  9 active torsions:
REMARK  status: ('A' for Active; 'I' for Inactive)
REMARK    1  A    between atoms: C_1  and  C_2
REMARK    2  A    between atoms: C_2  and  C_3
REMARK    3  A    between atoms: C_3  and  O_4
REMARK    4  A    between atoms: O_4  and  C_5
REMARK    5  A    between atoms: N_13  and  C_14
REMARK    6  A    between atoms: C_14  and  C_15
REMARK    7  A    between atoms: C_14  and  C_16
REMARK    8  A    between atoms: C_20  and  S_22
REMARK    9  A    between atoms: S_22  and  N_25
REMARK                            x       y       z     vdW  Elec       q    Type
REMARK                         _______ _______ _______ _____ _____    ______ ____
ROOT
ATOM      1  C   UNL     1       1.390  -2.490  -2.405  0.00  0.00    +0.136 C 
ATOM      2  C   UNL     1       2.013  -3.834  -2.022  0.00  0.00    +0.035 C 
ATOM      3  C   UNL     1       2.737  -4.426  -3.234  0.00  0.00    +0.022 C 
ATOM      4  C   UNL     1       1.726  -4.665  -4.360  0.00  0.00    +0.109 C 
ATOM      5  N   UNL     1       1.019  -3.408  -4.636  0.00  0.00    -0.283 N 
ATOM      6  C   UNL     1       0.364  -2.707  -3.522  0.00  0.00    +0.140 C 
ATOM      7  C   UNL     1       0.971  -2.906  -5.886  0.00  0.00    +0.303 C 
ATOM      8  O   UNL     1       0.307  -1.914  -6.118  0.00  0.00    -0.253 OA
ATOM      9  N   UNL     1       1.660  -3.503  -6.878  0.00  0.00    -0.293 N 
ATOM     10  H   UNL     1       2.130  -4.335  -6.710  0.00  0.00    +0.151 HD
ENDROOT
BRANCH   9  11
ATOM     11  C   UNL     1       1.699  -2.896  -8.211  0.00  0.00    +0.102 C 
ATOM     12  C   UNL     1       2.815  -1.851  -8.263  0.00  0.00    +0.033 C 
BRANCH  11  13
ATOM     13  C   UNL     1       1.962  -3.963  -9.242  0.00  0.00    -0.026 A 
ATOM     14  C   UNL     1       2.866  -4.975  -8.975  0.00  0.00    +0.005 A 
ATOM     15  C   UNL     1       3.107  -5.954  -9.920  0.00  0.00    +0.002 A 
ATOM     16  C   UNL     1       2.443  -5.922 -11.132  0.00  0.00    +0.028 A 
ATOM     17  C   UNL     1       1.538  -4.912 -11.399  0.00  0.00    +0.105 A 
ATOM     18  C   UNL     1       1.294  -3.935 -10.451  0.00  0.00    +0.034 A 
BRANCH  17  19
ATOM     19  S   UNL     1       0.693  -4.872 -12.944  0.00  0.00    +0.056 S 
ATOM     20  O   UNL     1       0.306  -3.522 -13.161  0.00  0.00    -0.153 OA
ATOM     21  O   UNL     1       1.499  -5.591 -13.867  0.00  0.00    -0.153 OA
BRANCH  19  22
ATOM     22  N   UNL     1      -0.705  -5.740 -12.760  0.00  0.00    -0.204 NA
ATOM     23  H   UNL     1      -0.912  -6.151 -11.906  0.00  0.00    +0.144 HD
ATOM     24  H   UNL     1      -1.317  -5.838 -13.506  0.00  0.00    +0.144 HD
ENDBRANCH  19  22
ENDBRANCH  17  19
ENDBRANCH  11  13
ENDBRANCH   9  11
BRANCH   1  25
ATOM     25  O   UNL     1       0.741  -1.923  -1.265  0.00  0.00    -0.375 OA
BRANCH  25  26
ATOM     26  C   UNL     1       0.721  -0.494  -1.258  0.00  0.00    +0.160 C 
BRANCH  26  28
ATOM     27  C   UNL     1      -0.016   1.530   0.008  0.00  0.00    +0.006 C 
ATOM     28  C   UNL     1       0.006  -0.000   0.001  0.00  0.00    +0.025 C 
ENDBRANCH  26  28
ENDBRANCH  25  26
ENDBRANCH   1  25
TORSDOF 7
