REMARK  Name = ZINC62189041
REMARK  7 active torsions:
REMARK  status: ('A' for Active; 'I' for Inactive)
REMARK    1  A    between atoms: C_1  and  C_2
REMARK    2  A    between atoms: C_2  and  N_3
REMARK    3  A    between atoms: N_6  and  C_9
REMARK    4  A    between atoms: C_15  and  C_22
REMARK    5  A    between atoms: C_19  and  O_21
REMARK    6  A    between atoms: C_22  and  C_23
REMARK    7  A    between atoms: C_22  and  C_24
REMARK                            x       y       z     vdW  Elec       q    Type
REMARK                         _______ _______ _______ _____ _____    ______ ____
ROOT
ATOM      1  C   UNL     1      -4.853  -2.639  -1.111  0.00  0.00    +0.122 C 
ATOM      2  C   UNL     1      -5.542  -2.175  -2.369  0.00  0.00    +0.014 A 
ATOM      3  C   UNL     1      -5.372  -0.862  -2.777  0.00  0.00    +0.009 A 
ATOM      4  C   UNL     1      -5.991  -0.403  -3.923  0.00  0.00    +0.001 A 
ATOM      5  C   UNL     1      -6.786  -1.255  -4.668  0.00  0.00    +0.007 A 
ATOM      6  C   UNL     1      -6.958  -2.564  -4.267  0.00  0.00    -0.003 A 
ATOM      7  C   UNL     1      -6.334  -3.031  -3.115  0.00  0.00    +0.129 A 
ATOM      8  O   UNL     1      -6.519  -4.328  -2.758  0.00  0.00    -0.489 OA
ATOM      9  C   UNL     1      -6.198  -4.704  -1.418  0.00  0.00    +0.262 C 
ATOM     10  C   UNL     1      -4.799  -4.168  -1.087  0.00  0.00    +0.173 C 
ENDROOT
BRANCH   1  14
ATOM     11  N   UNL     1      -0.650  -2.306  -0.805  0.00  0.00    +0.381 N 
ATOM     12  C   UNL     1      -1.469  -1.698   0.252  0.00  0.00    -0.063 C 
ATOM     13  C   UNL     1      -2.866  -2.324   0.238  0.00  0.00    +0.066 C 
ATOM     14  N   UNL     1      -3.486  -2.101  -1.076  0.00  0.00    -0.296 NA
ATOM     15  C   UNL     1      -2.664  -2.682  -2.147  0.00  0.00    +0.066 C 
ATOM     16  C   UNL     1      -1.269  -2.054  -2.113  0.00  0.00    -0.063 C 
ATOM     17  H   UNL     1      -0.585  -3.301  -0.650  0.00  0.00    -0.082 HD
BRANCH  11  19
ATOM     18  C   UNL     1       1.389  -2.087   0.535  0.00  0.00    -0.017 C 
ATOM     19  C   UNL     1       0.696  -1.718  -0.779  0.00  0.00    -0.082 C 
ENDBRANCH  11  19
ENDBRANCH   1  14
BRANCH   6  20
ATOM     20  C   UNL     1      -7.825  -3.490  -5.080  0.00  0.00    +0.016 C 
ATOM     21  C   UNL     1      -9.248  -2.932  -5.145  0.00  0.00    +0.012 C 
ATOM     22  C   UNL     1      -7.258  -3.608  -6.496  0.00  0.00    +0.012 C 
ENDBRANCH   6  20
BRANCH  10  23
ATOM     23  O   UNL     1      -4.407  -4.616   0.212  0.00  0.00    -0.387 OA
ATOM     24  H   UNL     1      -4.353  -5.578   0.296  0.00  0.00    +0.210 HD
ENDBRANCH  10  23
TORSDOF 4
