REMARK  Name = ZINC66262420
REMARK  5 active torsions:
REMARK  status: ('A' for Active; 'I' for Inactive)
REMARK    1  A    between atoms: C_1  and  C_2
REMARK    2  A    between atoms: C_2  and  C_4
REMARK    3  A    between atoms: C_2  and  S_13
REMARK    4  A    between atoms: N_9  and  C_10
REMARK    5  A    between atoms: S_13  and  C_14
REMARK                            x       y       z     vdW  Elec       q    Type
REMARK                         _______ _______ _______ _____ _____    ______ ____
ROOT
ATOM      1  C   UNL     1       0.096   1.513  -0.086  0.00  0.00    +0.029 C 
ATOM      2  C   UNL     1       0.294  -0.002  -0.167  0.00  0.00    +0.134 C 
ENDROOT
BRANCH   2   3
ATOM      3  C   UNL     1       1.229  -0.327  -1.304  0.00  0.00    +0.233 C 
ATOM      4  O   UNL     1       2.397  -0.563  -1.079  0.00  0.00    -0.274 OA
ATOM      5  N   UNL     1       0.767  -0.353  -2.570  0.00  0.00    -0.239 N 
ATOM      6  C   UNL     1       1.603  -0.643  -3.586  0.00  0.00    +0.306 C 
ATOM      7  O   UNL     1       2.774  -0.880  -3.361  0.00  0.00    -0.252 OA
ATOM      8  N   UNL     1       1.141  -0.670  -4.852  0.00  0.00    -0.296 N 
ATOM      9  H   UNL     1      -0.167  -0.164  -2.749  0.00  0.00    +0.159 HD
ATOM     10  H   UNL     1       0.207  -0.481  -5.031  0.00  0.00    +0.151 HD
BRANCH   8  11
ATOM     11  C   UNL     1       2.050  -0.986  -5.957  0.00  0.00    +0.075 C 
ATOM     12  C   UNL     1       1.950  -0.129  -7.220  0.00  0.00    +0.024 C 
ATOM     13  C   UNL     1       1.437  -1.570  -7.231  0.00  0.00    +0.024 C 
ENDBRANCH   8  11
ENDBRANCH   2   3
BRANCH   2  14
ATOM     14  S   UNL     1       1.004  -0.603   1.390  0.00  0.00    -0.111 S 
BRANCH  14  15
ATOM     15  C   UNL     1       0.931  -2.357   1.244  0.00  0.00    +0.031 A 
ATOM     16  C   UNL     1       0.297  -2.938   0.153  0.00  0.00    +0.065 A 
ATOM     17  C   UNL     1       0.240  -4.318   0.037  0.00  0.00    +0.163 A 
ATOM     18  C   UNL     1       0.820  -5.120   1.014  0.00  0.00    +0.164 A 
ATOM     19  C   UNL     1       1.450  -4.538   2.104  0.00  0.00    +0.070 A 
ATOM     20  C   UNL     1       1.511  -3.161   2.217  0.00  0.00    +0.058 A 
ATOM     21 CL   UNL     1       2.308  -2.438   3.579  0.00  0.00    -0.082 Cl
ATOM     22  O   UNL     1       0.780  -6.478   0.913  0.00  0.00    -0.485 OA
ATOM     23  C   UNL     1      -0.180  -7.028   0.005  0.00  0.00    +0.270 C 
ATOM     24  C   UNL     1      -0.099  -6.246  -1.312  0.00  0.00    +0.270 C 
ATOM     25  O   UNL     1      -0.388  -4.871  -1.036  0.00  0.00    -0.485 OA
ENDBRANCH  14  15
ENDBRANCH   2  14
TORSDOF 4
