REMARK  Name = ZINC09695183
REMARK  14 active torsions:
REMARK  status: ('A' for Active; 'I' for Inactive)
REMARK    1  A    between atoms: C_1  and  C_2
REMARK    2  A    between atoms: C_2  and  C_3
REMARK    3  A    between atoms: C_3  and  C_4
REMARK    4  A    between atoms: C_4  and  O_5
REMARK    5  A    between atoms: O_5  and  C_6
REMARK    6  A    between atoms: C_6  and  C_8
REMARK    7  A    between atoms: C_9  and  N_32
REMARK    8  A    between atoms: C_11  and  C_31
REMARK    9  A    between atoms: C_12  and  C_24
REMARK   10  A    between atoms: C_24  and  O_26
REMARK   11  A    between atoms: O_26  and  C_27
REMARK   12  A    between atoms: C_27  and  C_28
REMARK   13  A    between atoms: C_28  and  O_29
REMARK   14  A    between atoms: O_29  and  C_30
REMARK                            x       y       z     vdW  Elec       q    Type
REMARK                         _______ _______ _______ _____ _____    ______ ____
ROOT
ATOM      1  C   UNL     1       1.063   3.581   0.412  0.00  0.00    +0.117 C 
ATOM      2  C   UNL     1      -0.192   4.101   0.481  0.00  0.00    +0.195 C 
ATOM      3  O   UNL     1      -1.270   3.392   0.110  0.00  0.00    -0.446 OA
ATOM      4  C   UNL     1      -1.190   2.056   0.017  0.00  0.00    +0.116 C 
ATOM      5  C   UNL     1      -0.016   1.416  -0.073  0.00  0.00    +0.098 C 
ATOM      6  C   UNL     1       1.277   2.179  -0.083  0.00  0.00    +0.145 C 
ATOM      7  C   UNL     1       1.869   2.196  -1.470  0.00  0.00    -0.001 A 
ATOM      8  C   UNL     1       1.425   2.688  -2.676  0.00  0.00    +0.022 A 
ATOM      9  C   UNL     1       2.208   2.552  -3.810  0.00  0.00    +0.018 A 
ATOM     10  C   UNL     1       3.436   1.920  -3.725  0.00  0.00    +0.017 A 
ATOM     11  C   UNL     1       3.884   1.426  -2.518  0.00  0.00    +0.025 A 
ATOM     12  C   UNL     1       3.101   1.559  -1.373  0.00  0.00    +0.038 A 
ATOM     13  N   UNL     1       3.331   1.150  -0.058  0.00  0.00    -0.284 N 
ATOM     14  C   UNL     1       2.313   1.475   0.760  0.00  0.00    +0.237 C 
ATOM     15  O   UNL     1       2.241   1.245   1.949  0.00  0.00    -0.274 OA
ATOM     16 BR   UNL     1       1.602   3.227  -5.469  0.00  0.00    -0.050 Br
ATOM     17  C   UNL     1      -2.462   1.248   0.019  0.00  0.00    +0.087 C 
ATOM     18  H   UNL     1       4.131   0.686   0.233  0.00  0.00    +0.155 HD
ENDROOT
BRANCH   2  19
ATOM     19  N   UNL     1      -0.359   5.380   0.940  0.00  0.00    -0.329 N 
ATOM     20  H   UNL     1       0.415   5.929   1.140  0.00  0.00    +0.145 HD
ATOM     21  H   UNL     1      -1.253   5.738   1.064  0.00  0.00    +0.145 HD
ENDBRANCH   2  19
BRANCH   1  22
ATOM     22  C   UNL     1       2.163   4.358   0.806  0.00  0.00    +0.342 C 
ATOM     23  O   UNL     1       2.840   4.925  -0.034  0.00  0.00    -0.245 OA
BRANCH  22  24
ATOM     24  O   UNL     1       2.472   4.476   2.115  0.00  0.00    -0.461 OA
BRANCH  24  25
ATOM     25  C   UNL     1       3.606   5.283   2.444  0.00  0.00    +0.232 C 
BRANCH  25  26
ATOM     26  C   UNL     1       3.798   5.298   3.961  0.00  0.00    +0.041 C 
BRANCH  26  28
ATOM     27  C   UNL     1       5.203   6.177   5.831  0.00  0.00    +0.004 C 
ATOM     28  C   UNL     1       5.011   6.162   4.313  0.00  0.00    -0.000 C 
ENDBRANCH  26  28
ENDBRANCH  25  26
ENDBRANCH  24  25
ENDBRANCH  22  24
ENDBRANCH   1  22
BRANCH   5  29
ATOM     29  C   UNL     1       0.006   0.002  -0.164  0.00  0.00    +0.340 C 
ATOM     30  O   UNL     1       0.164  -0.535  -1.244  0.00  0.00    -0.245 OA
BRANCH  29  31
ATOM     31  O   UNL     1      -0.150  -0.748   0.946  0.00  0.00    -0.459 OA
BRANCH  31  32
ATOM     32  C   UNL     1      -0.118  -2.167   0.780  0.00  0.00    +0.260 C 
BRANCH  32  33
ATOM     33  C   UNL     1      -0.309  -2.844   2.139  0.00  0.00    +0.200 C 
BRANCH  33  34
ATOM     34  O   UNL     1      -1.616  -2.551   2.637  0.00  0.00    -0.380 OA
ATOM     35  C   UNL     1      -1.899  -3.139   3.908  0.00  0.00    +0.194 C 
ENDBRANCH  33  34
ENDBRANCH  32  33
ENDBRANCH  31  32
ENDBRANCH  29  31
ENDBRANCH   5  29
TORSDOF 11
