REMARK  Name = ZINC01934901
REMARK  10 active torsions:
REMARK  status: ('A' for Active; 'I' for Inactive)
REMARK    1  A    between atoms: C_1  and  C_2
REMARK    2  A    between atoms: C_9  and  N_14
REMARK    3  A    between atoms: C_10  and  C_11
REMARK    4  A    between atoms: C_15  and  C_17
REMARK    5  A    between atoms: C_17  and  O_18
REMARK    6  A    between atoms: O_18  and  C_19
REMARK    7  A    between atoms: C_24  and  C_25
REMARK    8  A    between atoms: C_25  and  C_26
REMARK    9  A    between atoms: C_25  and  C_27
REMARK   10  A    between atoms: C_25  and  C_28
REMARK                            x       y       z     vdW  Elec       q    Type
REMARK                         _______ _______ _______ _____ _____    ______ ____
ROOT
ATOM      1  N   UNL     1      -2.739   5.367   0.044  0.00  0.00    -0.277 N 
ATOM      2  C   UNL     1      -2.546   4.033   0.036  0.00  0.00    +0.255 C 
ATOM      3  O   UNL     1      -3.498   3.282   0.036  0.00  0.00    -0.272 OA
ATOM      4  H   UNL     1      -1.875   6.048   0.044  0.00  0.00    +0.155 HD
ENDROOT
BRANCH   1  12
ATOM      5  C   UNL     1     -10.155   7.857  -0.004  0.00  0.00    +0.008 C 
ATOM      6  C   UNL     1      -8.655   7.765  -0.295  0.00  0.00    -0.009 C 
ATOM      7  C   UNL     1      -7.902   8.801   0.544  0.00  0.00    +0.008 C 
ATOM      8  C   UNL     1      -6.446   8.887   0.082  0.00  0.00    +0.037 C 
ATOM      9  C   UNL     1      -5.852   7.483   0.070  0.00  0.00    -0.023 A 
ATOM     10  C   UNL     1      -6.647   6.391   0.068  0.00  0.00    -0.004 A 
ATOM     11  S   UNL     1      -5.530   5.018   0.048  0.00  0.00    -0.077 S 
ATOM     12  C   UNL     1      -4.027   5.881   0.053  0.00  0.00    +0.084 A 
ATOM     13  C   UNL     1      -4.425   7.210   0.062  0.00  0.00    +0.068 A 
ATOM     14  C   UNL     1      -8.145   6.364   0.074  0.00  0.00    +0.046 C 
BRANCH  13  15
ATOM     15  C   UNL     1      -3.443   8.298   0.063  0.00  0.00    +0.244 C 
ATOM     16  O   UNL     1      -3.040   8.755  -0.991  0.00  0.00    -0.270 OA
ATOM     17  N   UNL     1      -2.985   8.792   1.231  0.00  0.00    -0.325 N 
ATOM     18  H   UNL     1      -2.248   9.608   1.231  0.00  0.00    +0.145 HD
ATOM     19  H   UNL     1      -3.349   8.379   2.183  0.00  0.00    +0.145 HD
ENDBRANCH  13  15
ENDBRANCH   1  12
BRANCH   2  20
ATOM     20  C   UNL     1      -1.146   3.475   0.026  0.00  0.00    +0.324 C 
BRANCH  20  21
ATOM     21  O   UNL     1      -1.202   2.047   0.019  0.00  0.00    -0.482 OA
BRANCH  21  22
ATOM     22  C   UNL     1      -0.017   1.383   0.010  0.00  0.00    +0.125 A 
ATOM     23  C   UNL     1       1.176   2.091   0.002  0.00  0.00    +0.047 A 
ATOM     24  C   UNL     1       2.380   1.414  -0.013  0.00  0.00    +0.019 A 
ATOM     25  C   UNL     1       2.397   0.030  -0.021  0.00  0.00    +0.018 A 
ATOM     26  C   UNL     1       1.208  -0.678  -0.013  0.00  0.00    +0.023 A 
ATOM     27  C   UNL     1       0.002  -0.004   0.002  0.00  0.00    +0.001 A 
ATOM     28 BR   UNL     1       4.046  -0.894  -0.042  0.00  0.00    -0.050 Br
BRANCH  27  29
ATOM     29  C   UNL     1      -1.292  -0.776   0.011  0.00  0.00    -0.009 C 
ATOM     30  C   UNL     1      -0.992  -2.276  -0.000  0.00  0.00    +0.015 C 
ATOM     31  C   UNL     1      -2.087  -0.424   1.270  0.00  0.00    +0.015 C 
ATOM     32  C   UNL     1      -2.112  -0.411  -1.228  0.00  0.00    +0.015 C 
ENDBRANCH  27  29
ENDBRANCH  21  22
ENDBRANCH  20  21
ENDBRANCH   2  20
TORSDOF 6
