REMARK  Name = ZINC07437396
REMARK  8 active torsions:
REMARK  status: ('A' for Active; 'I' for Inactive)
REMARK    1  A    between atoms: C_1  and  C_2
REMARK    2  A    between atoms: C_2  and  O_3
REMARK    3  A    between atoms: O_3  and  C_4
REMARK    4  A    between atoms: C_4  and  C_6
REMARK    5  A    between atoms: C_12  and  C_13
REMARK    6  A    between atoms: C_12  and  N_54
REMARK    7  A    between atoms: N_15  and  C_16
REMARK    8  A    between atoms: C_17  and  C_25
REMARK                            x       y       z     vdW  Elec       q    Type
REMARK                         _______ _______ _______ _____ _____    ______ ____
ROOT
ATOM      1  C   UNL     1       4.977   5.401   0.992  0.00  0.00    +0.201 C 
ATOM      2  O   UNL     1       4.479   4.668   1.819  0.00  0.00    -0.278 OA
ATOM      3  N   UNL     1       6.289   5.702   1.062  0.00  0.00    -0.281 N 
ATOM      4  H   UNL     1       6.688   6.289   0.400  0.00  0.00    +0.155 HD
ENDROOT
BRANCH   3   5
ATOM      5  C   UNL     1       7.069   5.173   2.079  0.00  0.00    +0.084 A 
ATOM      6  C   UNL     1       8.423   5.364   2.316  0.00  0.00    +0.068 A 
ATOM      7  C   UNL     1       9.006   4.689   3.462  0.00  0.00    -0.023 A 
ATOM      8  C   UNL     1       8.148   3.935   4.184  0.00  0.00    -0.004 A 
ATOM      9  S   UNL     1       6.588   4.119   3.367  0.00  0.00    -0.077 S 
ATOM     10  C   UNL     1       8.461   3.131   5.407  0.00  0.00    +0.043 C 
ATOM     11  C   UNL     1       9.986   2.985   5.513  0.00  0.00    +0.005 C 
ATOM     12  C   UNL     1      10.628   4.361   5.313  0.00  0.00    +0.005 C 
ATOM     13  C   UNL     1      10.474   4.799   3.855  0.00  0.00    +0.037 C 
BRANCH   6  14
ATOM     14  C   UNL     1       9.235   6.216   1.441  0.00  0.00    +0.244 C 
ATOM     15  O   UNL     1       9.349   7.403   1.683  0.00  0.00    -0.270 OA
ATOM     16  N   UNL     1       9.855   5.684   0.369  0.00  0.00    -0.325 N 
ATOM     17  H   UNL     1       9.764   4.737   0.177  0.00  0.00    +0.145 HD
ATOM     18  H   UNL     1      10.392   6.247  -0.209  0.00  0.00    +0.145 HD
ENDBRANCH   6  14
ENDBRANCH   3   5
BRANCH   1  19
ATOM     19  C   UNL     1       4.130   5.976  -0.113  0.00  0.00    +0.019 C 
BRANCH  19  25
ATOM     20  C   UNL     1       1.228   3.579   0.010  0.00  0.00    +0.081 C 
ATOM     21  C   UNL     1       0.539   4.111   1.269  0.00  0.00    +0.011 C 
ATOM     22  C   UNL     1       0.655   5.638   1.299  0.00  0.00    -0.018 C 
ATOM     23  C   UNL     1       2.133   6.033   1.255  0.00  0.00    -0.078 C 
ATOM     24  C   UNL     1       2.690   4.034   0.003  0.00  0.00    -0.064 C 
ATOM     25  N   UNL     1       2.732   5.511   0.008  0.00  0.00    +0.386 N 
ATOM     26  H   UNL     1       2.194   5.863  -0.793  0.00  0.00    -0.081 HD
BRANCH  20  27
ATOM     27  C   UNL     1       1.170   2.073   0.002  0.00  0.00    +0.308 C 
ATOM     28  O   UNL     1       2.192   1.429  -0.011  0.00  0.00    -0.251 OA
BRANCH  27  29
ATOM     29  O   UNL     1      -0.018   1.448   0.010  0.00  0.00    -0.465 OA
BRANCH  29  31
ATOM     30  C   UNL     1      -1.433  -0.534   0.013  0.00  0.00    +0.048 C 
ATOM     31  C   UNL     1       0.002  -0.004   0.002  0.00  0.00    +0.229 C 
ENDBRANCH  29  31
ENDBRANCH  27  29
ENDBRANCH  20  27
ENDBRANCH  19  25
ENDBRANCH   1  19
TORSDOF 7
