REMARK  Name = ZINC36642298
REMARK  14 active torsions:
REMARK  status: ('A' for Active; 'I' for Inactive)
REMARK    1  A    between atoms: C_1  and  C_2
REMARK    2  A    between atoms: C_2  and  N_3
REMARK    3  A    between atoms: N_3  and  C_4
REMARK    4  A    between atoms: N_3  and  C_6
REMARK    5  A    between atoms: C_4  and  C_5
REMARK    6  A    between atoms: C_6  and  C_7
REMARK    7  A    between atoms: C_7  and  N_8
REMARK    8  A    between atoms: C_14  and  O_18
REMARK    9  A    between atoms: O_18  and  C_19
REMARK   10  A    between atoms: C_19  and  C_20
REMARK   11  A    between atoms: C_21  and  C_23
REMARK   12  A    between atoms: C_23  and  N_24
REMARK   13  A    between atoms: N_31  and  C_36
REMARK   14  A    between atoms: N_34  and  C_35
REMARK                            x       y       z     vdW  Elec       q    Type
REMARK                         _______ _______ _______ _____ _____    ______ ____
ROOT
ATOM      1  N   UNL     1      -1.382  -3.580  -1.830  0.00  0.00    -0.251 N 
ATOM      2  C   UNL     1      -1.542  -4.436  -0.751  0.00  0.00    +0.168 A 
ATOM      3  N   UNL     1      -1.529  -4.155   0.530  0.00  0.00    -0.224 NA
ATOM      4  C   UNL     1      -1.701  -5.099   1.482  0.00  0.00    +0.081 A 
ATOM      5  C   UNL     1      -1.708  -4.931   2.886  0.00  0.00    +0.032 A 
ATOM      6  C   UNL     1      -1.896  -6.001   3.721  0.00  0.00    +0.048 A 
ATOM      7  C   UNL     1      -2.087  -7.286   3.221  0.00  0.00    +0.122 A 
ATOM      8  C   UNL     1      -2.087  -7.486   1.849  0.00  0.00    +0.063 A 
ATOM      9  C   UNL     1      -1.898  -6.417   1.009  0.00  0.00    +0.044 A 
ATOM     10  S   UNL     1      -1.829  -6.200  -0.753  0.00  0.00    -0.052 S 
ATOM     11  C   UNL     1      -1.435  -4.063  -3.087  0.00  0.00    +0.241 C 
ATOM     12  O   UNL     1      -1.623  -5.247  -3.274  0.00  0.00    -0.273 OA
ENDROOT
BRANCH   1  13
ATOM     13  C   UNL     1      -1.155  -2.151  -1.603  0.00  0.00    +0.097 C 
BRANCH  13  14
ATOM     14  C   UNL     1       0.348  -1.884  -1.496  0.00  0.00    -0.059 C 
BRANCH  14  15
ATOM     15  N   UNL     1       0.576  -0.451  -1.269  0.00  0.00    +0.380 N 
ATOM     16  H   UNL     1       0.124   0.081  -1.998  0.00  0.00    -0.082 HD
BRANCH  15  18
ATOM     17  C   UNL     1       0.128   1.449   0.210  0.00  0.00    -0.017 C 
ATOM     18  C   UNL     1       0.019  -0.067   0.035  0.00  0.00    -0.082 C 
ENDBRANCH  15  18
BRANCH  15  19
ATOM     19  C   UNL     1       2.019  -0.176  -1.285  0.00  0.00    -0.082 C 
ATOM     20  C   UNL     1       2.573  -0.440  -2.687  0.00  0.00    -0.017 C 
ENDBRANCH  15  19
ENDBRANCH  14  15
ENDBRANCH  13  14
ENDBRANCH   1  13
BRANCH   7  21
ATOM     21  O   UNL     1      -2.272  -8.333   4.069  0.00  0.00    -0.492 OA
BRANCH  21  22
ATOM     22  C   UNL     1      -2.258  -8.045   5.469  0.00  0.00    +0.225 C 
ATOM     23  C   UNL     1      -2.480  -9.337   6.258  0.00  0.00    +0.048 C 
ENDBRANCH  21  22
ENDBRANCH   7  21
BRANCH  11  24
ATOM     24  C   UNL     1      -1.260  -3.133  -4.260  0.00  0.00    +0.219 C 
BRANCH  24  25
ATOM     25  N   UNL     1      -1.359  -3.896  -5.507  0.00  0.00    -0.316 N 
ATOM     26  C   UNL     1      -0.334  -4.412  -6.214  0.00  0.00    +0.202 A 
ATOM     27  N   UNL     1      -0.795  -5.030  -7.271  0.00  0.00    -0.218 NA
ATOM     28  C   UNL     1      -2.127  -4.945  -7.300  0.00  0.00    +0.168 A 
ATOM     29  C   UNL     1      -2.519  -4.227  -6.177  0.00  0.00    +0.152 A 
ATOM     30  C   UNL     1      -3.893  -3.993  -5.955  0.00  0.00    +0.282 A 
ATOM     31  O   UNL     1      -4.261  -3.364  -4.980  0.00  0.00    -0.265 OA
ATOM     32  N   UNL     1      -4.794  -4.473  -6.837  0.00  0.00    -0.262 N 
ATOM     33  C   UNL     1      -4.402  -5.169  -7.918  0.00  0.00    +0.333 A 
ATOM     34  O   UNL     1      -5.242  -5.587  -8.692  0.00  0.00    -0.246 OA
ATOM     35  N   UNL     1      -3.101  -5.408  -8.171  0.00  0.00    -0.280 N 
ATOM     36  C   UNL     1      -2.715  -6.172  -9.360  0.00  0.00    +0.155 C 
ATOM     37  C   UNL     1      -6.222  -4.234  -6.613  0.00  0.00    +0.157 C 
ENDBRANCH  24  25
ENDBRANCH  11  24
TORSDOF 9
