REMARK  Name = ZINC12795031
REMARK  6 active torsions:
REMARK  status: ('A' for Active; 'I' for Inactive)
REMARK    1  A    between atoms: C_1  and  N_2
REMARK    2  A    between atoms: N_4  and  N_16
REMARK    3  A    between atoms: C_5  and  C_8
REMARK    4  A    between atoms: C_11  and  O_15
REMARK    5  A    between atoms: C_13  and  O_14
REMARK    6  A    between atoms: C_17  and  C_18
REMARK                            x       y       z     vdW  Elec       q    Type
REMARK                         _______ _______ _______ _____ _____    ______ ____
ROOT
ATOM      1  C   UNL     1       4.891   1.332  -0.384  0.00  0.00    +0.173 C 
ATOM      2  N   UNL     1       3.687   2.111  -0.088  0.00  0.00    -0.263 NA
ATOM      3  C   UNL     1       2.505   1.560  -0.204  0.00  0.00    +0.189 A 
ATOM      4  N   UNL     1       1.258   2.112   0.024  0.00  0.00    -0.208 N 
ATOM      5  C   UNL     1       0.153   1.326  -0.169  0.00  0.00    +0.085 A 
ATOM      6  C   UNL     1       0.304   0.048  -0.570  0.00  0.00    +0.077 A 
ATOM      7  S   UNL     1       2.079  -0.102  -0.698  0.00  0.00    -0.056 S 
ENDROOT
BRANCH   5   8
ATOM      8  C   UNL     1      -1.200   1.878   0.058  0.00  0.00    +0.043 A 
ATOM      9  C   UNL     1      -1.471   3.212  -0.246  0.00  0.00    +0.017 A 
ATOM     10  C   UNL     1      -2.734   3.725  -0.035  0.00  0.00    +0.046 A 
ATOM     11  C   UNL     1      -3.738   2.916   0.481  0.00  0.00    +0.120 A 
ATOM     12  C   UNL     1      -3.477   1.587   0.785  0.00  0.00    +0.091 A 
ATOM     13  C   UNL     1      -2.215   1.062   0.572  0.00  0.00    +0.129 A 
BRANCH  13  14
ATOM     14  O   UNL     1      -1.960  -0.239   0.865  0.00  0.00    -0.506 OA
ATOM     15  H   UNL     1      -1.655  -0.386   1.771  0.00  0.00    +0.292 HD
ENDBRANCH  13  14
BRANCH  11  16
ATOM     16  O   UNL     1      -4.980   3.427   0.687  0.00  0.00    -0.507 OA
ATOM     17  H   UNL     1      -5.572   3.341  -0.073  0.00  0.00    +0.292 HD
ENDBRANCH  11  16
ENDBRANCH   5   8
BRANCH   4  18
ATOM     18  N   UNL     1       1.128   3.443   0.440  0.00  0.00    -0.170 NA
ATOM     19  C   UNL     1       2.091   4.015   1.097  0.00  0.00    +0.161 C 
BRANCH  19  20
ATOM     20  C   UNL     1       2.012   5.451   1.419  0.00  0.00    +0.084 A 
ATOM     21  C   UNL     1       3.048   6.060   2.132  0.00  0.00    +0.029 A 
ATOM     22  C   UNL     1       2.961   7.410   2.421  0.00  0.00    +0.004 A 
ATOM     23  C   UNL     1       1.837   8.107   1.999  0.00  0.00    +0.020 A 
ATOM     24  C   UNL     1       0.845   7.441   1.303  0.00  0.00    +0.111 A 
ATOM     25  N   UNL     1       0.953   6.156   1.034  0.00  0.00    -0.254 NA
ENDBRANCH  19  20
ENDBRANCH   4  18
TORSDOF 5
