REMARK  Name = ZINC14475977
REMARK  6 active torsions:
REMARK  status: ('A' for Active; 'I' for Inactive)
REMARK    1  A    between atoms: C_5  and  C_7
REMARK    2  A    between atoms: N_9  and  C_10
REMARK    3  A    between atoms: C_10  and  C_11
REMARK    4  A    between atoms: C_18  and  C_27
REMARK    5  A    between atoms: C_29  and  N_34
REMARK    6  A    between atoms: C_32  and  O_33
REMARK                            x       y       z     vdW  Elec       q    Type
REMARK                         _______ _______ _______ _____ _____    ______ ____
ROOT
ATOM      1  C   UNL     1      -0.016   1.373  -0.017  0.00  0.00    +0.001 A 
ATOM      2  C   UNL     1       1.172   2.087   0.002  0.00  0.00    +0.006 A 
ATOM      3  C   UNL     1       2.383   1.433   0.017  0.00  0.00    -0.019 A 
ATOM      4  C   UNL     1       2.426   0.033   0.023  0.00  0.00    +0.044 A 
ATOM      5  C   UNL     1       1.221  -0.685  -0.005  0.00  0.00    +0.058 A 
ATOM      6  C   UNL     1       0.002  -0.004  -0.025  0.00  0.00    +0.015 A 
ATOM      7  N   UNL     1       3.631  -0.660   0.080  0.00  0.00    -0.336 N 
ATOM      8  C   UNL     1       4.928   0.052   0.099  0.00  0.00    +0.108 C 
ATOM      9  C   UNL     1       4.681   1.333   0.877  0.00  0.00    +0.029 C 
ATOM     10  C   UNL     1       3.675   2.153   0.015  0.00  0.00    +0.049 C 
ATOM     11  C   UNL     1       3.809   3.530   0.554  0.00  0.00    -0.023 C 
ATOM     12  C   UNL     1       5.034   3.675   1.046  0.00  0.00    -0.030 C 
ATOM     13  C   UNL     1       5.824   2.355   0.923  0.00  0.00    +0.033 C 
ATOM     14  H   UNL     1       3.621  -1.629   0.107  0.00  0.00    +0.147 HD
ENDROOT
BRANCH   8  15
ATOM     15  C   UNL     1       5.368   0.370  -1.306  0.00  0.00    +0.017 A 
ATOM     16  C   UNL     1       4.430   0.492  -2.314  0.00  0.00    +0.041 A 
ATOM     17  C   UNL     1       4.833   0.784  -3.603  0.00  0.00    +0.127 A 
ATOM     18  C   UNL     1       6.176   0.954  -3.889  0.00  0.00    +0.036 A 
ATOM     19  C   UNL     1       7.117   0.833  -2.886  0.00  0.00    +0.048 A 
ATOM     20  C   UNL     1       6.715   0.546  -1.589  0.00  0.00    +0.122 A 
BRANCH  17  21
ATOM     21  N   UNL     1       3.827   0.914  -4.681  0.00  0.00    +0.056 N 
ATOM     22  O   UNL     1       2.653   0.765  -4.432  0.00  0.00    -0.126 OA
ATOM     23  O   UNL     1       4.178   1.169  -5.809  0.00  0.00    -0.126 OA
ENDBRANCH  17  21
BRANCH  20  24
ATOM     24  O   UNL     1       7.639   0.431  -0.599  0.00  0.00    -0.506 OA
ATOM     25  H   UNL     1       7.983  -0.465  -0.484  0.00  0.00    +0.292 HD
ENDBRANCH  20  24
ENDBRANCH   8  15
BRANCH   5  26
ATOM     26  C   UNL     1       1.241  -2.160  -0.016  0.00  0.00    +0.246 C 
ATOM     27  O   UNL     1       2.299  -2.752  -0.114  0.00  0.00    -0.270 OA
ATOM     28  N   UNL     1       0.088  -2.850   0.084  0.00  0.00    -0.309 N 
ATOM     29  H   UNL     1      -0.755  -2.378   0.162  0.00  0.00    +0.149 HD
BRANCH  28  30
ATOM     30  C   UNL     1       0.109  -4.315   0.073  0.00  0.00    +0.136 C 
BRANCH  30  31
ATOM     31  C   UNL     1      -1.321  -4.846   0.198  0.00  0.00    +0.135 C 
ATOM     32  C   UNL     1      -1.319  -6.395   0.224  0.00  0.00    +0.035 C 
ATOM     33  C   UNL     1      -2.648  -6.679   0.975  0.00  0.00    +0.031 C 
ATOM     34  C   UNL     1      -2.723  -5.498   1.967  0.00  0.00    +0.160 C 
ATOM     35  O   UNL     1      -1.892  -4.448   1.455  0.00  0.00    -0.375 OA
ENDBRANCH  30  31
ENDBRANCH  28  30
ENDBRANCH   5  26
TORSDOF 6
