REMARK  Name = ZINC33452536
REMARK  9 active torsions:
REMARK  status: ('A' for Active; 'I' for Inactive)
REMARK    1  A    between atoms: C_1  and  C_2
REMARK    2  A    between atoms: C_3  and  C_22
REMARK    3  A    between atoms: C_4  and  N_12
REMARK    4  A    between atoms: N_5  and  C_11
REMARK    5  A    between atoms: C_8  and  C_9
REMARK    6  A    between atoms: C_14  and  C_21
REMARK    7  A    between atoms: C_17  and  C_20
REMARK    8  A    between atoms: N_26  and  C_30
REMARK    9  A    between atoms: C_30  and  C_31
REMARK                            x       y       z     vdW  Elec       q    Type
REMARK                         _______ _______ _______ _____ _____    ______ ____
ROOT
ATOM      1  C   UNL     1      -0.006   1.528   0.075  0.00  0.00    +0.046 C 
ATOM      2  C   UNL     1       0.012   0.021   0.035  0.00  0.00    -0.017 A 
ATOM      3  C   UNL     1      -1.186  -0.709   0.107  0.00  0.00    +0.019 A 
ATOM      4  C   UNL     1      -1.143  -2.113   0.067  0.00  0.00    +0.112 A 
ATOM      5  N   UNL     1       0.044  -2.764  -0.040  0.00  0.00    -0.298 N 
ATOM      6  C   UNL     1       1.205  -2.087  -0.111  0.00  0.00    +0.270 A 
ATOM      7  O   UNL     1       2.255  -2.697  -0.207  0.00  0.00    -0.266 OA
ATOM      8  C   UNL     1       1.215  -0.669  -0.081  0.00  0.00    +0.120 A 
ATOM      9  C   UNL     1       0.061  -4.228  -0.079  0.00  0.00    +0.154 C 
ENDROOT
BRANCH   4  10
ATOM     10  N   UNL     1      -2.302  -2.828   0.137  0.00  0.00    -0.311 N 
ATOM     11  C   UNL     1      -2.983  -3.289  -1.084  0.00  0.00    +0.137 C 
ATOM     12  C   UNL     1      -4.457  -2.877  -1.000  0.00  0.00    +0.133 C 
ATOM     13  O   UNL     1      -5.003  -3.332   0.241  0.00  0.00    -0.371 OA
ATOM     14  C   UNL     1      -4.387  -2.756   1.396  0.00  0.00    +0.133 C 
ATOM     15  C   UNL     1      -2.906  -3.167   1.435  0.00  0.00    +0.137 C 
ATOM     16  C   UNL     1      -5.091  -3.264   2.656  0.00  0.00    +0.039 C 
ATOM     17  C   UNL     1      -5.230  -3.507  -2.160  0.00  0.00    +0.039 C 
ENDBRANCH   4  10
BRANCH   3  18
ATOM     18  C   UNL     1      -2.469  -0.014   0.224  0.00  0.00    +0.032 C 
ATOM     19  C   UNL     1      -2.924   0.752  -0.805  0.00  0.00    +0.077 C 
ATOM     20  C   UNL     1      -4.072   1.598  -0.869  0.00  0.00    +0.259 C 
ATOM     21  O   UNL     1      -4.816   1.719   0.088  0.00  0.00    -0.269 OA
ATOM     22  N   UNL     1      -4.303   2.247  -1.997  0.00  0.00    -0.248 N 
ATOM     23  C   UNL     1      -3.477   2.112  -3.058  0.00  0.00    +0.121 C 
ATOM     24  S   UNL     1      -3.583   2.849  -4.600  0.00  0.00    -0.027 S 
ATOM     25  S   UNL     1      -2.243   0.977  -2.442  0.00  0.00    -0.061 S 
BRANCH  22  26
ATOM     26  C   UNL     1      -5.472   3.124  -2.099  0.00  0.00    +0.189 C 
BRANCH  26  27
ATOM     27  C   UNL     1      -5.095   4.517  -1.666  0.00  0.00    +0.122 A 
ATOM     28  C   UNL     1      -4.629   5.491  -2.468  0.00  0.00    +0.046 A 
ATOM     29  C   UNL     1      -4.407   6.623  -1.650  0.00  0.00    +0.041 A 
ATOM     30  C   UNL     1      -4.750   6.273  -0.398  0.00  0.00    +0.195 A 
ATOM     31  O   UNL     1      -5.172   4.998  -0.414  0.00  0.00    -0.466 OA
ENDBRANCH  26  27
ENDBRANCH  22  26
ENDBRANCH   3  18
BRANCH   8  32
ATOM     32  C   UNL     1       2.453   0.046  -0.162  0.00  0.00    +0.105 C 
ATOM     33  N   UNL     1       3.436   0.613  -0.227  0.00  0.00    -0.191 NA
ENDBRANCH   8  32
TORSDOF 5
