REMARK  Name = ZINC10947213
REMARK  6 active torsions:
REMARK  status: ('A' for Active; 'I' for Inactive)
REMARK    1  A    between atoms: C_4  and  C_7
REMARK    2  A    between atoms: C_7  and  C_9
REMARK    3  A    between atoms: C_7  and  N_14
REMARK    4  A    between atoms: C_15  and  C_17
REMARK    5  A    between atoms: C_17  and  N_18
REMARK    6  A    between atoms: N_18  and  C_19
REMARK                            x       y       z     vdW  Elec       q    Type
REMARK                         _______ _______ _______ _____ _____    ______ ____
ROOT
ATOM      1  N   UNL     1       1.929  -2.490   0.859  0.00  0.00    -0.303 N 
ATOM      2  C   UNL     1       2.209  -2.483   2.177  0.00  0.00    +0.231 C 
ATOM      3  O   UNL     1       2.986  -1.669   2.628  0.00  0.00    -0.274 OA
ATOM      4  H   UNL     1       1.307  -3.141   0.498  0.00  0.00    +0.150 HD
ENDROOT
BRANCH   1   5
ATOM      5  C   UNL     1       2.565  -1.514  -0.030  0.00  0.00    +0.140 C 
BRANCH   5   9
ATOM      6  C   UNL     1       2.681  -3.072  -4.006  0.00  0.00    +0.000 A 
ATOM      7  C   UNL     1       3.762  -2.369  -3.507  0.00  0.00    +0.000 A 
ATOM      8  C   UNL     1       3.724  -1.865  -2.220  0.00  0.00    +0.006 A 
ATOM      9  C   UNL     1       2.606  -2.064  -1.433  0.00  0.00    -0.022 A 
ATOM     10  C   UNL     1       1.527  -2.771  -1.930  0.00  0.00    +0.006 A 
ATOM     11  C   UNL     1       1.563  -3.271  -3.218  0.00  0.00    +0.000 A 
ENDBRANCH   5   9
BRANCH   5  12
ATOM     12  C   UNL     1       1.773  -0.232  -0.016  0.00  0.00    +0.014 A 
ATOM     13  C   UNL     1       2.220   1.048  -0.013  0.00  0.00    +0.013 A 
ATOM     14  C   UNL     1       1.300   2.079   0.001  0.00  0.00    +0.008 A 
ATOM     15  C   UNL     1      -0.022   1.781   0.012  0.00  0.00    +0.045 A 
ATOM     16  S   UNL     1       0.002  -0.004   0.002  0.00  0.00    -0.099 S 
ENDBRANCH   5  12
ENDBRANCH   1   5
BRANCH   2  17
ATOM     17  C   UNL     1       1.555  -3.487   3.091  0.00  0.00    +0.197 C 
BRANCH  17  18
ATOM     18  N   UNL     1       2.020  -3.273   4.464  0.00  0.00    -0.333 N 
ATOM     19  H   UNL     1       2.655  -2.565   4.656  0.00  0.00    +0.147 HD
BRANCH  18  20
ATOM     20  C   UNL     1       1.549  -4.090   5.497  0.00  0.00    +0.063 A 
ATOM     21  C   UNL     1       0.640  -5.103   5.224  0.00  0.00    +0.027 A 
ATOM     22  C   UNL     1       0.177  -5.908   6.246  0.00  0.00    +0.017 A 
ATOM     23  C   UNL     1       0.616  -5.706   7.542  0.00  0.00    +0.021 A 
ATOM     24  C   UNL     1       1.521  -4.697   7.820  0.00  0.00    +0.055 A 
ATOM     25  C   UNL     1       1.993  -3.891   6.800  0.00  0.00    +0.145 A 
ATOM     26  F   UNL     1       2.881  -2.909   7.070  0.00  0.00    -0.204 F 
ATOM     27 BR   UNL     1      -0.023  -6.810   8.938  0.00  0.00    -0.050 Br
ENDBRANCH  18  20
ENDBRANCH  17  18
ENDBRANCH   2  17
TORSDOF 6
