REMARK  Name = ZINC39421463
REMARK  8 active torsions:
REMARK  status: ('A' for Active; 'I' for Inactive)
REMARK    1  A    between atoms: C_1  and  C_2
REMARK    2  A    between atoms: C_4  and  C_15
REMARK    3  A    between atoms: N_8  and  C_9
REMARK    4  A    between atoms: C_15  and  C_17
REMARK    5  A    between atoms: C_15  and  N_18
REMARK    6  A    between atoms: N_18  and  C_19
REMARK    7  A    between atoms: C_19  and  C_20
REMARK    8  A    between atoms: C_25  and  C_26
REMARK                            x       y       z     vdW  Elec       q    Type
REMARK                         _______ _______ _______ _____ _____    ______ ____
ROOT
ATOM      1  N   UNL     1      -3.112  -1.909  -1.102  0.00  0.00    +0.382 N 
ATOM      2  H   UNL     1      -3.276  -2.480  -0.286  0.00  0.00    -0.085 HD
ATOM      3  H   UNL     1      -3.711  -1.097  -1.069  0.00  0.00    -0.085 HD
ENDROOT
BRANCH   1   4
ATOM      4  C   UNL     1      -1.707  -1.482  -1.126  0.00  0.00    -0.065 C 
ATOM      5  C   UNL     1      -0.799  -2.710  -1.049  0.00  0.00    -0.013 C 
BRANCH   4   8
ATOM      6  C   UNL     1      -0.019   1.526   0.010  0.00  0.00    +0.030 C 
ATOM      7  C   UNL     1       0.002  -0.004   0.002  0.00  0.00    +0.102 C 
ATOM      8  C   UNL     1      -1.432  -0.568   0.070  0.00  0.00    +0.040 C 
ATOM      9  C   UNL     1      -1.448  -1.357   1.360  0.00  0.00    +0.107 C 
ATOM     10  N   UNL     1      -0.311  -1.284   1.922  0.00  0.00    -0.192 NA
ATOM     11  N   UNL     1       0.631  -0.522   1.228  0.00  0.00    -0.221 N 
BRANCH  11  12
ATOM     12  C   UNL     1       1.948  -0.288   1.628  0.00  0.00    +0.052 A 
ATOM     13  C   UNL     1       2.785   0.499   0.846  0.00  0.00    +0.025 A 
ATOM     14  C   UNL     1       4.087   0.728   1.244  0.00  0.00    +0.002 A 
ATOM     15  C   UNL     1       4.559   0.176   2.421  0.00  0.00    +0.000 A 
ATOM     16  C   UNL     1       3.729  -0.608   3.203  0.00  0.00    +0.002 A 
ATOM     17  C   UNL     1       2.424  -0.836   2.813  0.00  0.00    +0.025 A 
ENDBRANCH  11  12
ENDBRANCH   4   8
ENDBRANCH   1   4
BRANCH   1  18
ATOM     18  C   UNL     1      -3.408  -2.688  -2.312  0.00  0.00    -0.067 C 
BRANCH  18  19
ATOM     19  C   UNL     1      -4.872  -3.133  -2.287  0.00  0.00    +0.066 C 
ATOM     20  C   UNL     1      -5.099  -4.160  -1.196  0.00  0.00    +0.115 C 
ATOM     21  N   UNL     1      -5.493  -5.237  -1.793  0.00  0.00    -0.161 NA
ATOM     22  N   UNL     1      -5.568  -5.084  -3.173  0.00  0.00    -0.153 NA
ATOM     23  C   UNL     1      -5.224  -3.881  -3.557  0.00  0.00    +0.077 C 
BRANCH  23  24
ATOM     24  C   UNL     1      -5.186  -3.362  -4.933  0.00  0.00    -0.001 A 
ATOM     25  C   UNL     1      -4.785  -2.044  -5.176  0.00  0.00    +0.011 A 
ATOM     26  C   UNL     1      -4.752  -1.564  -6.467  0.00  0.00    +0.020 A 
ATOM     27  C   UNL     1      -5.113  -2.384  -7.524  0.00  0.00    +0.041 A 
ATOM     28  C   UNL     1      -5.511  -3.690  -7.292  0.00  0.00    +0.020 A 
ATOM     29  C   UNL     1      -5.544  -4.185  -6.005  0.00  0.00    +0.011 A 
ATOM     30 CL   UNL     1      -5.067  -1.770  -9.148  0.00  0.00    -0.084 Cl
ENDBRANCH  23  24
ENDBRANCH  18  19
ENDBRANCH   1  18
TORSDOF 6
