REMARK  Name = ZINC18183665
REMARK  4 active torsions:
REMARK  status: ('A' for Active; 'I' for Inactive)
REMARK    1  A    between atoms: C_1  and  C_2
REMARK    2  A    between atoms: C_12  and  C_14
REMARK    3  A    between atoms: C_14  and  C_15
REMARK    4  A    between atoms: C_15  and  N_16
REMARK                            x       y       z     vdW  Elec       q    Type
REMARK                         _______ _______ _______ _____ _____    ______ ____
ROOT
ATOM      1  C   UNL     1       7.742   3.576  -0.053  0.00  0.00    +0.118 C 
ENDROOT
BRANCH   1  13
ATOM      2  C   UNL     1      -1.288  -0.783   0.011  0.00  0.00    +0.044 C 
ATOM      3  C   UNL     1       0.002  -0.004   0.002  0.00  0.00    -0.049 A 
ATOM      4  C   UNL     1      -0.017   1.383   0.010  0.00  0.00    +0.005 A 
ATOM      5  C   UNL     1       1.142   2.115   0.003  0.00  0.00    +0.029 A 
ATOM      6  C   UNL     1       2.402   1.474  -0.013  0.00  0.00    +0.080 A 
ATOM      7  C   UNL     1       2.382   0.060  -0.020  0.00  0.00    +0.041 A 
ATOM      8  C   UNL     1       1.217  -0.665  -0.013  0.00  0.00    +0.020 A 
ATOM      9  S   UNL     1       4.113  -0.342  -0.039  0.00  0.00    -0.052 S 
ATOM     10  C   UNL     1       4.733   1.335  -0.036  0.00  0.00    +0.165 A 
ATOM     11  N   UNL     1       3.627   2.042  -0.021  0.00  0.00    -0.225 NA
ATOM     12  N   UNL     1       6.046   1.775  -0.046  0.00  0.00    -0.265 N 
ATOM     13  C   UNL     1       6.314   3.096  -0.042  0.00  0.00    +0.220 C 
ATOM     14  O   UNL     1       5.405   3.899  -0.029  0.00  0.00    -0.275 OA
ATOM     15  H   UNL     1       6.773   1.133  -0.057  0.00  0.00    +0.157 HD
ENDBRANCH   1  13
BRANCH   1  16
ATOM     16  C   UNL     1       7.767   5.106  -0.045  0.00  0.00    +0.135 C 
BRANCH  16  17
ATOM     17  N   UNL     1       9.155   5.572  -0.056  0.00  0.00    -0.298 N 
ATOM     18  C   UNL     1       9.796   5.782   1.123  0.00  0.00    +0.203 A 
ATOM     19  N   UNL     1      11.035   6.193   1.155  0.00  0.00    -0.230 NA
ATOM     20  C   UNL     1      11.707   6.428   0.031  0.00  0.00    +0.116 A 
ATOM     21  C   UNL     1      11.128   6.245  -1.235  0.00  0.00    +0.076 A 
ATOM     22  C   UNL     1       9.769   5.788  -1.235  0.00  0.00    +0.262 A 
ATOM     23  O   UNL     1       9.179   5.598  -2.284  0.00  0.00    -0.267 OA
ATOM     24  C   UNL     1      11.986   6.542  -2.381  0.00  0.00    -0.023 A 
ATOM     25  C   UNL     1      13.240   6.962  -2.114  0.00  0.00    -0.004 A 
ATOM     26  S   UNL     1      13.350   6.984  -0.344  0.00  0.00    -0.073 S 
ATOM     27  C   UNL     1      14.305   7.328  -3.102  0.00  0.00    +0.043 C 
ATOM     28  C   UNL     1      13.885   6.803  -4.483  0.00  0.00    +0.005 C 
ATOM     29  C   UNL     1      12.427   7.198  -4.736  0.00  0.00    +0.005 C 
ATOM     30  C   UNL     1      11.504   6.393  -3.821  0.00  0.00    +0.037 C 
ENDBRANCH  16  17
ENDBRANCH   1  16
TORSDOF 3
