REMARK  Name = ZINC15882785
REMARK  5 active torsions:
REMARK  status: ('A' for Active; 'I' for Inactive)
REMARK    1  A    between atoms: C_3  and  S_6
REMARK    2  A    between atoms: S_6  and  N_9
REMARK    3  A    between atoms: C_12  and  C_15
REMARK    4  A    between atoms: N_17  and  C_18
REMARK    5  A    between atoms: C_19  and  C_26
REMARK                            x       y       z     vdW  Elec       q    Type
REMARK                         _______ _______ _______ _____ _____    ______ ____
ROOT
ATOM      1  C   UNL     1      -0.049   5.258   2.229  0.00  0.00    +0.221 C 
ATOM      2  O   UNL     1       0.868   5.276   3.022  0.00  0.00    -0.275 OA
ATOM      3  N   UNL     1      -1.071   6.127   2.360  0.00  0.00    -0.279 N 
ATOM      4  H   UNL     1      -1.804   6.112   1.726  0.00  0.00    +0.155 HD
ENDROOT
BRANCH   3   5
ATOM      5  C   UNL     1      -1.074   7.041   3.403  0.00  0.00    +0.084 A 
ATOM      6  C   UNL     1      -2.024   8.002   3.701  0.00  0.00    +0.068 A 
ATOM      7  C   UNL     1      -1.786   8.849   4.870  0.00  0.00    -0.023 A 
ATOM      8  C   UNL     1      -0.646   8.595   5.537  0.00  0.00    -0.004 A 
ATOM      9  S   UNL     1       0.106   7.252   4.651  0.00  0.00    -0.077 S 
ATOM     10  C   UNL     1      -0.471   9.506   6.721  0.00  0.00    +0.043 C 
ATOM     11  C   UNL     1      -1.455  10.670   6.467  0.00  0.00    +0.010 C 
ATOM     12  C   UNL     1      -2.515   9.995   5.574  0.00  0.00    +0.037 C 
BRANCH   6  13
ATOM     13  C   UNL     1      -3.224   8.166   2.876  0.00  0.00    +0.244 C 
ATOM     14  O   UNL     1      -4.234   7.540   3.140  0.00  0.00    -0.270 OA
ATOM     15  N   UNL     1      -3.210   9.009   1.825  0.00  0.00    -0.325 N 
ATOM     16  H   UNL     1      -2.405   9.508   1.614  0.00  0.00    +0.145 HD
ATOM     17  H   UNL     1      -4.004   9.117   1.278  0.00  0.00    +0.145 HD
ENDBRANCH   6  13
ENDBRANCH   3   5
BRANCH   1  21
ATOM     18  N   UNL     1      -0.020   1.652   0.011  0.00  0.00    -0.176 NA
ATOM     19  C   UNL     1      -1.295   2.383   0.021  0.00  0.00    +0.110 C 
ATOM     20  C   UNL     1      -1.283   3.369   1.199  0.00  0.00    +0.030 C 
ATOM     21  C   UNL     1      -0.046   4.264   1.096  0.00  0.00    +0.078 C 
ATOM     22  C   UNL     1       1.217   3.403   1.176  0.00  0.00    +0.030 C 
ATOM     23  C   UNL     1       1.234   2.417   0.003  0.00  0.00    +0.110 C 
BRANCH  18  24
ATOM     24  S   UNL     1       0.002  -0.004   0.002  0.00  0.00    +0.067 S 
ATOM     25  O   UNL     1      -1.243  -0.424  -0.539  0.00  0.00    -0.152 OA
ATOM     26  O   UNL     1       1.248  -0.390  -0.563  0.00  0.00    -0.152 OA
BRANCH  24  29
ATOM     27  C   UNL     1      -0.758  -1.211   3.802  0.00  0.00    +0.010 A 
ATOM     28  C   UNL     1      -1.016  -0.800   2.508  0.00  0.00    +0.036 A 
ATOM     29  C   UNL     1       0.025  -0.534   1.682  0.00  0.00    +0.143 A 
ATOM     30  S   UNL     1       1.427  -0.853   2.741  0.00  0.00    -0.077 S 
ATOM     31  C   UNL     1       0.529  -1.326   4.211  0.00  0.00    +0.047 A 
ENDBRANCH  24  29
ENDBRANCH  18  24
ENDBRANCH   1  21
TORSDOF 5
