REMARK  Name = ZINC49211673
REMARK  7 active torsions:
REMARK  status: ('A' for Active; 'I' for Inactive)
REMARK    1  A    between atoms: C_1  and  C_2
REMARK    2  A    between atoms: C_3  and  C_21
REMARK    3  A    between atoms: C_5  and  N_9
REMARK    4  A    between atoms: C_6  and  C_7
REMARK    5  A    between atoms: C_16  and  C_18
REMARK    6  A    between atoms: C_18  and  C_19
REMARK    7  A    between atoms: C_18  and  C_20
REMARK                            x       y       z     vdW  Elec       q    Type
REMARK                         _______ _______ _______ _____ _____    ______ ____
ROOT
ATOM      1  N   UNL     1       0.136  -3.141   1.929  0.00  0.00    -0.263 N 
ATOM      2  C   UNL     1       0.130  -4.462   1.664  0.00  0.00    +0.307 C 
ATOM      3  O   UNL     1       0.134  -4.851   0.512  0.00  0.00    -0.252 OA
ATOM      4  N   UNL     1       0.118  -5.352   2.676  0.00  0.00    -0.282 N 
ATOM      5  C   UNL     1       0.211  -5.024   4.110  0.00  0.00    +0.110 C 
ATOM      6  C   UNL     1       0.770  -6.307   4.775  0.00  0.00    +0.021 C 
ATOM      7  C   UNL     1       0.065  -7.417   3.951  0.00  0.00    +0.024 C 
ATOM      8  C   UNL     1       0.005  -6.811   2.533  0.00  0.00    +0.080 C 
ATOM      9  H   UNL     1       0.132  -2.830   2.848  0.00  0.00    +0.157 HD
ENDROOT
BRANCH   1  14
ATOM     10  C   UNL     1       0.176   1.388  -0.337  0.00  0.00    +0.046 C 
ATOM     11  C   UNL     1       0.167  -0.118  -0.282  0.00  0.00    -0.021 A 
ATOM     12  C   UNL     1       0.169  -0.874  -1.396  0.00  0.00    -0.007 A 
ATOM     13  S   UNL     1       0.155  -2.536  -0.761  0.00  0.00    -0.077 S 
ATOM     14  C   UNL     1       0.147  -2.224   0.887  0.00  0.00    +0.091 A 
ATOM     15  C   UNL     1       0.161  -0.840   0.970  0.00  0.00    +0.083 A 
ATOM     16  C   UNL     1       0.179  -0.421  -2.833  0.00  0.00    +0.052 C 
BRANCH  15  17
ATOM     17  C   UNL     1       0.165  -0.161   2.231  0.00  0.00    +0.102 C 
ATOM     18  N   UNL     1       0.167   0.377   3.231  0.00  0.00    -0.191 NA
ENDBRANCH  15  17
ENDBRANCH   1  14
BRANCH   8  19
ATOM     19  C   UNL     1      -1.327  -7.167   1.869  0.00  0.00    +0.003 C 
ATOM     20  C   UNL     1      -1.460  -8.688   1.774  0.00  0.00    +0.009 C 
ATOM     21  C   UNL     1      -2.479  -6.604   2.703  0.00  0.00    +0.009 C 
ENDBRANCH   8  19
TORSDOF 3
