REMARK  Name = ZINC46781171
REMARK  6 active torsions:
REMARK  status: ('A' for Active; 'I' for Inactive)
REMARK    1  A    between atoms: C_1  and  C_2
REMARK    2  A    between atoms: N_8  and  C_9
REMARK    3  A    between atoms: C_9  and  C_10
REMARK    4  A    between atoms: C_13  and  C_16
REMARK    5  A    between atoms: C_16  and  N_17
REMARK    6  A    between atoms: C_18  and  C_20
REMARK                            x       y       z     vdW  Elec       q    Type
REMARK                         _______ _______ _______ _____ _____    ______ ____
ROOT
ATOM      1  N   UNL     1       3.805  -2.278   6.927  0.00  0.00    -0.311 N 
ATOM      2  C   UNL     1       4.211  -2.754   8.121  0.00  0.00    +0.221 C 
ATOM      3  O   UNL     1       5.321  -2.491   8.533  0.00  0.00    -0.275 OA
ATOM      4  H   UNL     1       2.918  -2.488   6.597  0.00  0.00    +0.149 HD
ENDROOT
BRANCH   2   5
ATOM      5  C   UNL     1       3.285  -3.612   8.944  0.00  0.00    +0.115 C 
ATOM      6  C   UNL     1       2.016  -2.824   9.271  0.00  0.00    +0.113 C 
ATOM      7  C   UNL     1       2.327  -1.748  10.277  0.00  0.00    +0.218 C 
ATOM      8  O   UNL     1       1.749  -0.683  10.213  0.00  0.00    -0.275 OA
ATOM      9  N   UNL     1       3.238  -1.953  11.246  0.00  0.00    -0.285 N 
ATOM     10  C   UNL     1       3.926  -3.167  11.326  0.00  0.00    +0.040 A 
ATOM     11  C   UNL     1       3.974  -4.010  10.223  0.00  0.00    -0.014 A 
ATOM     12  C   UNL     1       4.653  -5.210  10.301  0.00  0.00    +0.009 A 
ATOM     13  C   UNL     1       5.286  -5.573  11.476  0.00  0.00    +0.039 A 
ATOM     14  C   UNL     1       5.240  -4.735  12.578  0.00  0.00    +0.125 A 
ATOM     15  C   UNL     1       4.561  -3.532  12.505  0.00  0.00    +0.062 A 
ATOM     16  F   UNL     1       5.858  -5.093  13.724  0.00  0.00    -0.205 F 
ATOM     17  H   UNL     1       3.418  -1.253  11.893  0.00  0.00    +0.155 HD
ENDBRANCH   2   5
BRANCH   1  18
ATOM     18  C   UNL     1       4.705  -1.444   6.127  0.00  0.00    +0.139 C 
BRANCH  18  22
ATOM     19  C   UNL     1       2.754  -0.315   2.498  0.00  0.00    -0.064 A 
ATOM     20  C   UNL     1       2.638   0.481   3.622  0.00  0.00    +0.002 A 
ATOM     21  C   UNL     1       3.269   0.116   4.796  0.00  0.00    +0.005 A 
ATOM     22  C   UNL     1       4.016  -1.046   4.847  0.00  0.00    -0.030 A 
ATOM     23  C   UNL     1       4.131  -1.843   3.723  0.00  0.00    +0.005 A 
ATOM     24  C   UNL     1       3.497  -1.480   2.550  0.00  0.00    +0.002 A 
BRANCH  19  25
ATOM     25  C   UNL     1       2.066   0.083   1.218  0.00  0.00    -0.043 C 
BRANCH  25  32
ATOM     26  C   UNL     1      -0.019   1.526   0.010  0.00  0.00    -0.013 C 
ATOM     27  C   UNL     1       0.002  -0.004   0.002  0.00  0.00    -0.071 C 
ATOM     28  C   UNL     1      -1.434  -0.533   0.011  0.00  0.00    -0.016 C 
ATOM     29  C   UNL     1      -1.408  -2.064   0.003  0.00  0.00    -0.003 C 
ATOM     30  C   UNL     1      -0.600  -2.558   1.206  0.00  0.00    -0.019 C 
ATOM     31  C   UNL     1       0.805  -1.954   1.152  0.00  0.00    -0.078 C 
ATOM     32  N   UNL     1       0.713  -0.490   1.191  0.00  0.00    +0.384 N 
ATOM     33  H   UNL     1       0.213  -0.206   2.020  0.00  0.00    -0.081 HD
ENDBRANCH  25  32
ENDBRANCH  19  25
ENDBRANCH  18  22
ENDBRANCH   1  18
TORSDOF 5
