REMARK  Name = ZINC01080349
REMARK  8 active torsions:
REMARK  status: ('A' for Active; 'I' for Inactive)
REMARK    1  A    between atoms: C_1  and  C_2
REMARK    2  A    between atoms: C_2  and  C_3
REMARK    3  A    between atoms: C_2  and  C_4
REMARK    4  A    between atoms: C_7  and  C_10
REMARK    5  A    between atoms: N_11  and  N_12
REMARK    6  A    between atoms: C_13  and  C_15
REMARK    7  A    between atoms: C_20  and  O_21
REMARK    8  A    between atoms: O_21  and  C_22
REMARK                            x       y       z     vdW  Elec       q    Type
REMARK                         _______ _______ _______ _____ _____    ______ ____
ROOT
ATOM      1  N   UNL     1      -3.496   4.665   6.105  0.00  0.00    -0.203 N 
ATOM      2  C   UNL     1      -3.635   5.988   6.327  0.00  0.00    +0.267 C 
ATOM      3  O   UNL     1      -3.191   6.788   5.527  0.00  0.00    -0.268 OA
ATOM      4  H   UNL     1      -3.851   4.027   6.743  0.00  0.00    +0.178 HD
ENDROOT
BRANCH   2   5
ATOM      5  C   UNL     1      -4.327   6.463   7.540  0.00  0.00    +0.081 A 
ATOM      6  C   UNL     1      -4.839   5.547   8.461  0.00  0.00    +0.032 A 
ATOM      7  C   UNL     1      -5.483   5.998   9.594  0.00  0.00    +0.019 A 
ATOM      8  C   UNL     1      -5.626   7.358   9.822  0.00  0.00    +0.019 A 
ATOM      9  C   UNL     1      -5.125   8.274   8.918  0.00  0.00    +0.047 A 
ATOM     10  C   UNL     1      -4.468   7.837   7.777  0.00  0.00    +0.132 A 
ATOM     11 BR   UNL     1      -6.176   4.756  10.841  0.00  0.00    -0.050 Br
BRANCH  10  12
ATOM     12  O   UNL     1      -3.970   8.736   6.891  0.00  0.00    -0.494 OA
ATOM     13  C   UNL     1      -4.153  10.120   7.200  0.00  0.00    +0.277 C 
ENDBRANCH  10  12
ENDBRANCH   2   5
BRANCH   1  15
ATOM     14  C   UNL     1      -2.706   2.941   4.739  0.00  0.00    +0.138 C 
ATOM     15  N   UNL     1      -2.840   4.214   4.953  0.00  0.00    -0.187 NA
BRANCH  14  19
ATOM     16  C   UNL     1      -0.718   1.572   1.248  0.00  0.00    -0.045 A 
ATOM     17  C   UNL     1      -0.854   2.930   1.475  0.00  0.00    +0.004 A 
ATOM     18  C   UNL     1      -1.503   3.382   2.605  0.00  0.00    +0.010 A 
ATOM     19  C   UNL     1      -2.015   2.465   3.526  0.00  0.00    -0.005 A 
ATOM     20  C   UNL     1      -1.869   1.095   3.293  0.00  0.00    +0.010 A 
ATOM     21  C   UNL     1      -1.222   0.658   2.156  0.00  0.00    +0.004 A 
BRANCH  16  23
ATOM     22  C   UNL     1       1.423   1.615  -0.003  0.00  0.00    +0.012 C 
ATOM     23  C   UNL     1      -0.013   1.086   0.008  0.00  0.00    +0.013 C 
ATOM     24  C   UNL     1      -0.753   1.593  -1.232  0.00  0.00    +0.012 C 
ENDBRANCH  16  23
ENDBRANCH  14  19
ENDBRANCH   1  15
TORSDOF 5
