REMARK  Name = ZINC32802813
REMARK  6 active torsions:
REMARK  status: ('A' for Active; 'I' for Inactive)
REMARK    1  A    between atoms: C_4  and  C_7
REMARK    2  A    between atoms: C_8  and  C_9
REMARK    3  A    between atoms: C_9  and  N_10
REMARK    4  A    between atoms: N_13  and  C_14
REMARK    5  A    between atoms: C_14  and  C_15
REMARK    6  A    between atoms: C_18  and  C_20
REMARK                            x       y       z     vdW  Elec       q    Type
REMARK                         _______ _______ _______ _____ _____    ______ ____
ROOT
ATOM      1  N   UNL     1       5.505  11.607   2.912  0.00  0.00    -0.289 N 
ATOM      2  C   UNL     1       5.152  11.322   1.643  0.00  0.00    +0.301 C 
ATOM      3  O   UNL     1       5.743  11.841   0.716  0.00  0.00    -0.253 OA
ATOM      4  N   UNL     1       4.144  10.460   1.401  0.00  0.00    -0.292 N 
ATOM      5  H   UNL     1       4.971  11.137   3.750  0.00  0.00    +0.151 HD
ATOM      6  H   UNL     1       3.610   9.990   2.240  0.00  0.00    +0.151 HD
ENDROOT
BRANCH   1   7
ATOM      7  C   UNL     1       6.601  12.543   3.174  0.00  0.00    +0.195 C 
BRANCH   7   9
ATOM      8  C   UNL     1       6.939  12.797   5.786  0.00  0.00    -0.065 C 
ATOM      9  C   UNL     1       6.789  12.684   4.627  0.00  0.00    -0.078 C 
BRANCH   8  13
ATOM     10  C   UNL     1       7.474  13.200   9.933  0.00  0.00    +0.000 A 
ATOM     11  C   UNL     1       8.285  13.906   9.062  0.00  0.00    +0.001 A 
ATOM     12  C   UNL     1       8.114  13.778   7.699  0.00  0.00    +0.017 A 
ATOM     13  C   UNL     1       7.122  12.934   7.199  0.00  0.00    +0.025 A 
ATOM     14  C   UNL     1       6.304  12.228   8.083  0.00  0.00    +0.017 A 
ATOM     15  C   UNL     1       6.489  12.361   9.444  0.00  0.00    +0.001 A 
ENDBRANCH   8  13
ENDBRANCH   7   9
ENDBRANCH   1   7
BRANCH   4  16
ATOM     16  C   UNL     1       3.760  10.150   0.022  0.00  0.00    +0.180 C 
BRANCH  16  17
ATOM     17  C   UNL     1       2.616   9.168   0.028  0.00  0.00    +0.123 A 
ATOM     18  C   UNL     1       1.306   9.489   0.043  0.00  0.00    +0.047 A 
ATOM     19  C   UNL     1       0.585   8.281   0.043  0.00  0.00    +0.052 A 
ATOM     20  C   UNL     1       1.505   7.275   0.028  0.00  0.00    +0.160 A 
ATOM     21  O   UNL     1       2.733   7.832   0.025  0.00  0.00    -0.456 OA
BRANCH  20  22
ATOM     22  C   UNL     1       1.210   5.835   0.023  0.00  0.00    +0.144 A 
ATOM     23  N   UNL     1       0.039   5.231   0.031  0.00  0.00    -0.236 NA
ATOM     24  C   UNL     1      -0.083   3.889   0.024  0.00  0.00    +0.079 A 
ATOM     25  C   UNL     1      -1.270   3.119   0.031  0.00  0.00    +0.029 A 
ATOM     26  C   UNL     1      -1.220   1.760   0.017  0.00  0.00    +0.002 A 
ATOM     27  C   UNL     1      -0.013   1.076   0.008  0.00  0.00    +0.001 A 
ATOM     28  C   UNL     1       1.171   1.790   0.001  0.00  0.00    +0.017 A 
ATOM     29  C   UNL     1       1.132   3.163   0.008  0.00  0.00    +0.040 A 
ATOM     30  S   UNL     1       2.348   4.457   0.005  0.00  0.00    -0.064 S 
ENDBRANCH  20  22
ENDBRANCH  16  17
ENDBRANCH   4  16
TORSDOF 6
