REMARK  Name = ZINC29120560
REMARK  8 active torsions:
REMARK  status: ('A' for Active; 'I' for Inactive)
REMARK    1  A    between atoms: C_1  and  O_2
REMARK    2  A    between atoms: O_2  and  C_3
REMARK    3  A    between atoms: C_7  and  C_10
REMARK    4  A    between atoms: C_8  and  O_9
REMARK    5  A    between atoms: C_10  and  O_12
REMARK    6  A    between atoms: O_12  and  C_13
REMARK    7  A    between atoms: C_13  and  C_14
REMARK    8  A    between atoms: C_27  and  C_29
REMARK                            x       y       z     vdW  Elec       q    Type
REMARK                         _______ _______ _______ _____ _____    ______ ____
ROOT
ATOM      1  C   UNL     1       2.785  -6.617   4.497  0.00  0.00    +0.258 C 
ATOM      2  O   UNL     1       3.234  -5.819   5.292  0.00  0.00    -0.271 OA
ATOM      3  N   UNL     1       2.939  -7.939   4.710  0.00  0.00    -0.255 N 
ATOM      4  C   UNL     1       2.429  -8.873   3.797  0.00  0.00    +0.058 A 
ATOM      5  C   UNL     1       3.024  -9.046   2.558  0.00  0.00    +0.025 A 
ATOM      6  C   UNL     1       2.522  -9.988   1.679  0.00  0.00    +0.002 A 
ATOM      7  C   UNL     1       1.429 -10.759   2.033  0.00  0.00    +0.002 A 
ATOM      8  C   UNL     1       0.824 -10.586   3.264  0.00  0.00    +0.025 A 
ATOM      9  C   UNL     1       1.315  -9.637   4.146  0.00  0.00    +0.055 A 
ATOM     10  N   UNL     1       0.685  -9.405   5.374  0.00  0.00    -0.284 N 
ATOM     11  C   UNL     1       1.409  -9.340   6.513  0.00  0.00    +0.219 C 
ATOM     12  O   UNL     1       0.863  -9.056   7.558  0.00  0.00    -0.275 OA
ATOM     13  C   UNL     1       2.889  -9.618   6.494  0.00  0.00    +0.128 C 
ATOM     14  C   UNL     1       3.646  -8.426   5.896  0.00  0.00    +0.194 C 
ATOM     15  H   UNL     1      -0.277  -9.289   5.408  0.00  0.00    +0.155 HD
ENDROOT
BRANCH  14  16
ATOM     16  C   UNL     1       5.059  -8.861   5.503  0.00  0.00    +0.409 C 
ATOM     17  F   UNL     1       5.749  -7.770   4.963  0.00  0.00    -0.169 F 
ATOM     18  F   UNL     1       5.736  -9.326   6.635  0.00  0.00    -0.169 F 
ATOM     19  F   UNL     1       4.984  -9.883   4.551  0.00  0.00    -0.169 F 
ENDBRANCH  14  16
BRANCH   1  20
ATOM     20  C   UNL     1       2.055  -6.131   3.272  0.00  0.00    +0.328 C 
BRANCH  20  21
ATOM     21  O   UNL     1       2.023  -4.702   3.272  0.00  0.00    -0.452 OA
BRANCH  21  22
ATOM     22  C   UNL     1       1.402  -4.104   2.236  0.00  0.00    +0.343 C 
ATOM     23  O   UNL     1       0.901  -4.777   1.358  0.00  0.00    -0.245 OA
BRANCH  22  28
ATOM     24  C   UNL     1       0.626  -0.619   1.042  0.00  0.00    +0.162 A 
ATOM     25  C   UNL     1       1.201   0.138   2.050  0.00  0.00    +0.049 A 
ATOM     26  C   UNL     1       1.838  -0.481   3.112  0.00  0.00    +0.005 A 
ATOM     27  C   UNL     1       1.907  -1.855   3.179  0.00  0.00    +0.019 A 
ATOM     28  C   UNL     1       1.331  -2.633   2.170  0.00  0.00    +0.104 A 
ATOM     29  C   UNL     1       0.682  -2.008   1.097  0.00  0.00    +0.173 A 
BRANCH  24  31
ATOM     30  C   UNL     1      -0.017   1.425   0.010  0.00  0.00    +0.277 C 
ATOM     31  O   UNL     1       0.002  -0.004   0.002  0.00  0.00    -0.491 OA
ENDBRANCH  24  31
BRANCH  29  32
ATOM     32  O   UNL     1       0.115  -2.753   0.115  0.00  0.00    -0.503 OA
ATOM     33  H   UNL     1       0.711  -2.956  -0.619  0.00  0.00    +0.292 HD
ENDBRANCH  29  32
ENDBRANCH  22  28
ENDBRANCH  21  22
ENDBRANCH  20  21
ENDBRANCH   1  20
TORSDOF 7
