REMARK  Name = ZINC43224125
REMARK  13 active torsions:
REMARK  status: ('A' for Active; 'I' for Inactive)
REMARK    1  A    between atoms: C_1  and  C_2
REMARK    2  A    between atoms: C_2  and  C_3
REMARK    3  A    between atoms: C_3  and  C_4
REMARK    4  A    between atoms: C_4  and  C_5
REMARK    5  A    between atoms: C_5  and  C_6
REMARK    6  A    between atoms: C_9  and  C_12
REMARK    7  A    between atoms: C_14  and  C_29
REMARK    8  A    between atoms: C_15  and  C_28
REMARK    9  A    between atoms: N_16  and  C_17
REMARK   10  A    between atoms: C_17  and  C_19
REMARK   11  A    between atoms: C_17  and  C_20
REMARK   12  A    between atoms: C_20  and  C_21
REMARK   13  A    between atoms: C_21  and  C_22
REMARK                            x       y       z     vdW  Elec       q    Type
REMARK                         _______ _______ _______ _____ _____    ______ ____
ROOT
ATOM      1  C   UNL     1       1.812  -8.153   2.782  0.00  0.00    +0.050 A 
ATOM      2  C   UNL     1       0.815  -8.837   3.400  0.00  0.00    +0.041 A 
ATOM      3  C   UNL     1       0.934 -10.194   3.005  0.00  0.00    +0.057 A 
ATOM      4  C   UNL     1       2.015 -10.271   2.153  0.00  0.00    +0.029 A 
ATOM      5  N   UNL     1       2.536  -9.035   2.018  0.00  0.00    -0.341 N 
ATOM      6  C   UNL     1       2.523 -11.521   1.482  0.00  0.00    +0.064 C 
ENDROOT
BRANCH   1  10
ATOM      7  C   UNL     1       2.555  -3.985   3.135  0.00  0.00    -0.047 A 
ATOM      8  C   UNL     1       2.053  -4.689   4.215  0.00  0.00    +0.004 A 
ATOM      9  C   UNL     1       1.809  -6.043   4.107  0.00  0.00    +0.010 A 
ATOM     10  C   UNL     1       2.070  -6.702   2.905  0.00  0.00    -0.001 A 
ATOM     11  C   UNL     1       2.576  -5.986   1.819  0.00  0.00    +0.010 A 
ATOM     12  C   UNL     1       2.811  -4.632   1.939  0.00  0.00    +0.004 A 
BRANCH   7  13
ATOM     13  C   UNL     1       2.819  -2.507   3.261  0.00  0.00    +0.035 C 
BRANCH  13  14
ATOM     14  C   UNL     1       1.562  -1.729   2.865  0.00  0.00    +0.005 C 
BRANCH  14  15
ATOM     15  C   UNL     1       1.830  -0.228   2.993  0.00  0.00    +0.000 C 
BRANCH  15  17
ATOM     16  C   UNL     1       0.841   2.050   2.725  0.00  0.00    +0.004 C 
ATOM     17  C   UNL     1       0.573   0.549   2.598  0.00  0.00    -0.003 C 
ENDBRANCH  15  17
ENDBRANCH  14  15
ENDBRANCH  13  14
ENDBRANCH   7  13
ENDBRANCH   1  10
BRANCH   3  18
ATOM     18  C   UNL     1       0.068 -11.309   3.426  0.00  0.00    +0.243 C 
ATOM     19  O   UNL     1       0.280 -12.433   3.012  0.00  0.00    -0.270 OA
ATOM     20  N   UNL     1      -0.959 -11.084   4.269  0.00  0.00    -0.325 N 
ATOM     21  H   UNL     1      -1.127 -10.187   4.599  0.00  0.00    +0.145 HD
ATOM     22  H   UNL     1      -1.529 -11.818   4.546  0.00  0.00    +0.145 HD
ENDBRANCH   3  18
BRANCH   5  23
ATOM     23  C   UNL     1       3.694  -8.689   1.191  0.00  0.00    +0.085 C 
ATOM     24  C   UNL     1       3.459  -9.168  -0.243  0.00  0.00    +0.031 C 
BRANCH  23  25
ATOM     25  C   UNL     1       4.945  -9.365   1.756  0.00  0.00    +0.029 C 
BRANCH  25  26
ATOM     26  C   UNL     1       6.177  -8.879   0.990  0.00  0.00    +0.037 C 
BRANCH  26  27
ATOM     27  C   UNL     1       7.409  -9.545   1.546  0.00  0.00    -0.047 A 
ATOM     28  C   UNL     1       8.103  -8.956   2.587  0.00  0.00    +0.003 A 
ATOM     29  C   UNL     1       9.233  -9.567   3.097  0.00  0.00    +0.000 A 
ATOM     30  C   UNL     1       9.669 -10.767   2.567  0.00  0.00    +0.000 A 
ATOM     31  C   UNL     1       8.975 -11.356   1.528  0.00  0.00    +0.000 A 
ATOM     32  C   UNL     1       7.842 -10.748   1.020  0.00  0.00    +0.003 A 
ENDBRANCH  26  27
ENDBRANCH  25  26
ENDBRANCH  23  25
ENDBRANCH   5  23
TORSDOF 10
