REMARK  Name = ZINC13961379
REMARK  11 active torsions:
REMARK  status: ('A' for Active; 'I' for Inactive)
REMARK    1  A    between atoms: C_1  and  C_2
REMARK    2  A    between atoms: C_4  and  C_17
REMARK    3  A    between atoms: C_6  and  C_14
REMARK    4  A    between atoms: N_9  and  C_11
REMARK    5  A    between atoms: C_11  and  C_12
REMARK    6  A    between atoms: C_11  and  C_13
REMARK    7  A    between atoms: N_19  and  C_20
REMARK    8  A    between atoms: C_20  and  C_21
REMARK    9  A    between atoms: C_21  and  N_22
REMARK   10  A    between atoms: C_23  and  C_29
REMARK   11  A    between atoms: C_25  and  C_27
REMARK                            x       y       z     vdW  Elec       q    Type
REMARK                         _______ _______ _______ _____ _____    ______ ____
ROOT
ATOM      1  C   UNL     1      -2.176   2.907   5.848  0.00  0.00    +0.068 C 
ATOM      2  C   UNL     1      -1.166   2.158   6.679  0.00  0.00    +0.070 A 
ATOM      3  C   UNL     1      -0.040   1.468   6.182  0.00  0.00    +0.054 A 
ATOM      4  C   UNL     1       0.486   1.253   4.889  0.00  0.00    +0.051 A 
ATOM      5  C   UNL     1       1.647   0.493   4.777  0.00  0.00    +0.037 A 
ATOM      6  C   UNL     1       2.244  -0.010   5.923  0.00  0.00    +0.047 A 
ATOM      7  N   UNL     1       1.736   0.204   7.116  0.00  0.00    -0.232 NA
ATOM      8  C   UNL     1       0.630   0.914   7.291  0.00  0.00    +0.160 A 
ATOM      9  N   UNL     1      -0.092   1.276   8.399  0.00  0.00    -0.244 N 
ATOM     10  N   UNL     1      -1.186   2.039   7.976  0.00  0.00    -0.174 NA
ENDROOT
BRANCH   4  11
ATOM     11  C   UNL     1      -0.179   1.812   3.692  0.00  0.00    +0.245 C 
ATOM     12  O   UNL     1      -1.259   2.361   3.797  0.00  0.00    -0.270 OA
ATOM     13  N   UNL     1       0.412   1.714   2.485  0.00  0.00    -0.310 N 
ATOM     14  H   UNL     1       1.273   1.276   2.401  0.00  0.00    +0.149 HD
BRANCH  13  15
ATOM     15  C   UNL     1      -0.247   2.268   1.299  0.00  0.00    +0.127 C 
BRANCH  15  16
ATOM     16  C   UNL     1       0.628   2.023   0.068  0.00  0.00    +0.162 C 
BRANCH  16  17
ATOM     17  N   UNL     1      -0.030   2.577  -1.117  0.00  0.00    -0.266 N 
ATOM     18  C   UNL     1       0.114   3.833  -1.592  0.00  0.00    +0.050 A 
ATOM     19  C   UNL     1      -0.658   3.947  -2.698  0.00  0.00    +0.061 A 
ATOM     20  C   UNL     1      -1.297   2.719  -2.905  0.00  0.00    +0.074 A 
ATOM     21  N   UNL     1      -0.917   1.896  -1.961  0.00  0.00    -0.175 NA
ATOM     22  C   UNL     1      -2.252   2.398  -4.026  0.00  0.00    +0.068 C 
ATOM     23 BR   UNL     1      -0.843   5.492  -3.772  0.00  0.00    -0.047 Br
ATOM     24  C   UNL     1       0.981   4.913  -0.999  0.00  0.00    +0.066 C 
ENDBRANCH  16  17
ENDBRANCH  15  16
ENDBRANCH  13  15
ENDBRANCH   4  11
BRANCH   9  25
ATOM     25  C   UNL     1       0.228   0.926   9.785  0.00  0.00    +0.103 C 
ATOM     26  C   UNL     1       0.440   2.204  10.598  0.00  0.00    +0.032 C 
ATOM     27  C   UNL     1      -0.928   0.124  10.387  0.00  0.00    +0.032 C 
ENDBRANCH   9  25
BRANCH   6  28
ATOM     28  C   UNL     1       3.504  -0.827   5.797  0.00  0.00    +0.038 C 
ATOM     29  C   UNL     1       3.856  -1.375   4.412  0.00  0.00    +0.010 C 
ATOM     30  C   UNL     1       3.351  -2.321   5.505  0.00  0.00    +0.010 C 
ENDBRANCH   6  28
TORSDOF 6
