REMARK  Name = ZINC09348359
REMARK  7 active torsions:
REMARK  status: ('A' for Active; 'I' for Inactive)
REMARK    1  A    between atoms: C_1  and  C_2
REMARK    2  A    between atoms: C_2  and  C_36
REMARK    3  A    between atoms: C_7  and  C_35
REMARK    4  A    between atoms: C_10  and  N_11
REMARK    5  A    between atoms: C_10  and  N_67
REMARK    6  A    between atoms: N_19  and  N_20
REMARK    7  A    between atoms: C_21  and  C_23
REMARK                            x       y       z     vdW  Elec       q    Type
REMARK                         _______ _______ _______ _____ _____    ______ ____
ROOT
ATOM      1  N   UNL     1       1.061   2.018   0.003  0.00  0.00    -0.282 N 
ATOM      2  C   UNL     1       0.692   3.359   0.013  0.00  0.00    +0.044 A 
ATOM      3  C   UNL     1       1.449   4.526   0.013  0.00  0.00    +0.024 A 
ATOM      4  C   UNL     1       0.825   5.757   0.026  0.00  0.00    +0.002 A 
ATOM      5  C   UNL     1      -0.557   5.847   0.039  0.00  0.00    +0.001 A 
ATOM      6  C   UNL     1      -1.325   4.700   0.040  0.00  0.00    +0.012 A 
ATOM      7  C   UNL     1      -0.705   3.455   0.027  0.00  0.00    +0.028 A 
ATOM      8  C   UNL     1      -1.220   2.066   0.018  0.00  0.00    +0.153 C 
ATOM      9  N   UNL     1      -2.473   1.678   0.021  0.00  0.00    -0.174 NA
ATOM     10  C   UNL     1      -0.014   1.213   0.009  0.00  0.00    +0.270 C 
ATOM     11  O   UNL     1       0.002  -0.004   0.002  0.00  0.00    -0.268 OA
ENDROOT
BRANCH   9  12
ATOM     12  N   UNL     1      -2.783   0.312   0.016  0.00  0.00    -0.201 N 
ATOM     13  C   UNL     1      -4.071  -0.087   0.019  0.00  0.00    +0.282 C 
ATOM     14  O   UNL     1      -4.962   0.739   0.027  0.00  0.00    -0.267 OA
ATOM     15  H   UNL     1      -2.071  -0.347   0.009  0.00  0.00    +0.178 HD
BRANCH  13  16
ATOM     16  C   UNL     1      -4.399  -1.531   0.013  0.00  0.00    +0.128 A 
ATOM     17  C   UNL     1      -5.745  -1.929   0.022  0.00  0.00    +0.034 A 
ATOM     18  C   UNL     1      -6.061  -3.256   0.011  0.00  0.00    +0.012 A 
ATOM     19  C   UNL     1      -5.008  -4.191   0.003  0.00  0.00    +0.000 A 
ATOM     20  C   UNL     1      -5.260  -5.572  -0.003  0.00  0.00    +0.010 A 
ATOM     21  C   UNL     1      -4.218  -6.448  -0.011  0.00  0.00    +0.001 A 
ATOM     22  C   UNL     1      -2.900  -5.992  -0.014  0.00  0.00    +0.002 A 
ATOM     23  C   UNL     1      -2.617  -4.661  -0.009  0.00  0.00    +0.028 A 
ATOM     24  C   UNL     1      -3.668  -3.724  -0.001  0.00  0.00    +0.072 A 
ATOM     25  N   UNL     1      -3.419  -2.415   0.004  0.00  0.00    -0.242 NA
ENDBRANCH  13  16
ENDBRANCH   9  12
BRANCH   1  26
ATOM     26  C   UNL     1       2.447   1.544  -0.013  0.00  0.00    +0.039 C 
BRANCH  26  37
ATOM     27  C   UNL     1       5.783   2.512   0.460  0.00  0.00    +0.011 C 
ATOM     28  C   UNL     1       5.968   1.597  -0.768  0.00  0.00    -0.036 C 
ATOM     29  C   UNL     1       5.042   0.408  -0.642  0.00  0.00    -0.009 C 
ATOM     30  C   UNL     1       3.885   0.336  -1.625  0.00  0.00    -0.065 C 
ATOM     31  C   UNL     1       4.450   0.693  -3.030  0.00  0.00    -0.011 C 
ATOM     32  C   UNL     1       4.620   2.227  -2.854  0.00  0.00    -0.048 C 
ATOM     33  C   UNL     1       5.884   2.440  -2.022  0.00  0.00    +0.011 C 
ATOM     34  C   UNL     1       3.400   2.634  -1.992  0.00  0.00    -0.070 C 
ATOM     35  C   UNL     1       4.659   2.970  -4.197  0.00  0.00    +0.009 C 
ATOM     36  C   UNL     1       7.419   1.056  -0.679  0.00  0.00    +0.011 C 
ATOM     37  N   UNL     1       2.860   1.388  -1.450  0.00  0.00    +0.393 N 
ATOM     38  H   UNL     1       2.027   1.127  -1.991  0.00  0.00    -0.079 HD
ENDBRANCH  26  37
ENDBRANCH   1  26
TORSDOF 4
