REMARK  Name = ZINC01419081
REMARK  8 active torsions:
REMARK  status: ('A' for Active; 'I' for Inactive)
REMARK    1  A    between atoms: N_9  and  C_10
REMARK    2  A    between atoms: C_10  and  C_11
REMARK    3  A    between atoms: N_13  and  C_14
REMARK    4  A    between atoms: N_13  and  C_22
REMARK    5  A    between atoms: C_14  and  C_15
REMARK    6  A    between atoms: C_22  and  C_24
REMARK    7  A    between atoms: C_22  and  C_31
REMARK    8  A    between atoms: N_33  and  C_34
REMARK                            x       y       z     vdW  Elec       q    Type
REMARK                         _______ _______ _______ _____ _____    ______ ____
ROOT
ATOM      1  C   UNL     1      -2.210   5.719  -1.860  0.00  0.00    +0.238 C 
ATOM      2  O   UNL     1      -1.744   5.214  -2.859  0.00  0.00    -0.274 OA
ATOM      3  N   UNL     1      -3.314   6.487  -1.944  0.00  0.00    -0.284 N 
ENDROOT
BRANCH   1   4
ATOM      4  C   UNL     1      -1.552   5.489  -0.523  0.00  0.00    +0.241 C 
BRANCH   4  13
ATOM      5  C   UNL     1       3.546   4.619  -1.518  0.00  0.00    +0.002 A 
ATOM      6  C   UNL     1       2.903   5.850  -1.480  0.00  0.00    +0.002 A 
ATOM      7  C   UNL     1       1.566   5.928  -1.207  0.00  0.00    +0.029 A 
ATOM      8  C   UNL     1       0.841   4.766  -0.966  0.00  0.00    +0.090 A 
ATOM      9  C   UNL     1       1.485   3.517  -1.008  0.00  0.00    +0.113 A 
ATOM     10  C   UNL     1       2.857   3.465  -1.284  0.00  0.00    +0.032 A 
ATOM     11  N   UNL     1       0.560   2.571  -0.748  0.00  0.00    -0.129 NA
ATOM     12  N   UNL     1      -0.591   3.113  -0.554  0.00  0.00    -0.064 NA
ATOM     13  N   UNL     1      -0.476   4.506  -0.671  0.00  0.00    -0.235 N 
ENDBRANCH   4  13
ENDBRANCH   1   4
BRANCH   3  14
ATOM     14  C   UNL     1      -3.806   7.195  -0.760  0.00  0.00    +0.143 C 
BRANCH  14  15
ATOM     15  C   UNL     1      -3.216   8.581  -0.723  0.00  0.00    -0.030 A 
ATOM     16  C   UNL     1      -1.949   8.779  -0.207  0.00  0.00    +0.006 A 
ATOM     17  C   UNL     1      -1.405  10.049  -0.178  0.00  0.00    +0.020 A 
ATOM     18  C   UNL     1      -2.133  11.125  -0.655  0.00  0.00    +0.041 A 
ATOM     19  C   UNL     1      -3.403  10.927  -1.166  0.00  0.00    +0.020 A 
ATOM     20  C   UNL     1      -3.944   9.655  -1.199  0.00  0.00    +0.006 A 
ATOM     21 CL   UNL     1      -1.453  12.721  -0.612  0.00  0.00    -0.084 Cl
ENDBRANCH  14  15
ENDBRANCH   3  14
BRANCH   3  22
ATOM     22  C   UNL     1      -4.024   6.612  -3.220  0.00  0.00    +0.166 C 
BRANCH  22  23
ATOM     23  C   UNL     1      -3.929   8.056  -3.716  0.00  0.00    +0.023 C 
ATOM     24  C   UNL     1      -2.455   8.445  -3.892  0.00  0.00    +0.010 C 
ATOM     25  C   UNL     1      -2.384   9.939  -4.215  0.00  0.00    +0.027 C 
ATOM     26  C   UNL     1      -3.340  10.274  -5.322  0.00  0.00    -0.031 C 
ATOM     27  C   UNL     1      -4.318   9.511  -5.692  0.00  0.00    -0.031 C 
ATOM     28  C   UNL     1      -4.627   8.181  -5.072  0.00  0.00    +0.032 C 
ENDBRANCH  22  23
BRANCH  22  29
ATOM     29  C   UNL     1      -5.472   6.241  -3.028  0.00  0.00    +0.238 C 
ATOM     30  O   UNL     1      -5.925   6.123  -1.909  0.00  0.00    -0.273 OA
ATOM     31  N   UNL     1      -6.263   6.039  -4.100  0.00  0.00    -0.284 N 
ATOM     32  H   UNL     1      -5.885   6.058  -4.993  0.00  0.00    +0.155 HD
BRANCH  31  33
ATOM     33  C   UNL     1      -7.633   5.804  -3.925  0.00  0.00    +0.037 A 
ATOM     34  C   UNL     1      -8.314   6.412  -2.879  0.00  0.00    +0.027 A 
ATOM     35  C   UNL     1      -9.665   6.181  -2.705  0.00  0.00    +0.051 A 
ATOM     36  C   UNL     1     -10.344   5.341  -3.573  0.00  0.00    +0.166 A 
ATOM     37  C   UNL     1      -9.664   4.729  -4.623  0.00  0.00    +0.168 A 
ATOM     38  C   UNL     1      -8.311   4.966  -4.800  0.00  0.00    +0.072 A 
ATOM     39  O   UNL     1     -10.546   3.960  -5.325  0.00  0.00    -0.453 OA
ATOM     40  C   UNL     1     -11.680   3.783  -4.455  0.00  0.00    +0.466 C 
ATOM     41  O   UNL     1     -11.653   4.954  -3.617  0.00  0.00    -0.453 OA
ENDBRANCH  31  33
ENDBRANCH  22  29
ENDBRANCH   3  22
TORSDOF 8
