REMARK  Name = ZINC12524630
REMARK  11 active torsions:
REMARK  status: ('A' for Active; 'I' for Inactive)
REMARK    1  A    between atoms: C_1  and  C_2
REMARK    2  A    between atoms: C_4  and  C_16
REMARK    3  A    between atoms: C_5  and  C_15
REMARK    4  A    between atoms: N_6  and  C_7
REMARK    5  A    between atoms: N_17  and  C_18
REMARK    6  A    between atoms: C_18  and  C_20
REMARK    7  A    between atoms: C_18  and  C_22
REMARK    8  A    between atoms: C_20  and  O_21
REMARK    9  A    between atoms: C_22  and  C_24
REMARK   10  A    between atoms: C_22  and  O_31
REMARK   11  A    between atoms: C_28  and  O_30
REMARK                            x       y       z     vdW  Elec       q    Type
REMARK                         _______ _______ _______ _____ _____    ______ ____
ROOT
ATOM      1  C   UNK A   0       3.953   6.046  -2.205  0.00  0.00    +0.115 C 
ATOM      2  N   UNK A   1       3.989   4.951  -1.515  0.00  0.00    -0.282 NA
ENDROOT
BRANCH   1   6
ATOM      3  C   UNK A   0       7.052   9.969  -3.224  0.00  0.00    +0.064 C 
ATOM      4  C   UNK A   0       6.476   8.682  -2.691  0.00  0.00    +0.022 A 
ATOM      5  C   UNK A   0       5.247   8.206  -2.959  0.00  0.00    +0.032 A 
ATOM      6  C   UNK A   0       5.121   6.941  -2.229  0.00  0.00    +0.014 A 
ATOM      7  C   UNK A   0       6.310   6.755  -1.579  0.00  0.00    +0.030 A 
ATOM      8  N   UNK A   0       7.118   7.807  -1.862  0.00  0.00    -0.316 N 
ATOM      9  C   UNK A   0       6.662   5.583  -0.699  0.00  0.00    +0.064 C 
BRANCH   8  10
ATOM     10  C   UNK A   0       8.423   7.971  -1.376  0.00  0.00    +0.066 A 
ATOM     11  C   UNK A   0       9.500   7.465  -2.089  0.00  0.00    +0.047 A 
ATOM     12  C   UNK A   0      10.785   7.629  -1.607  0.00  0.00    +0.043 A 
ATOM     13  C   UNK A   0      10.998   8.298  -0.414  0.00  0.00    +0.021 A 
ATOM     14  C   UNK A   0       9.927   8.803   0.299  0.00  0.00    +0.023 A 
ATOM     15  C   UNK A   0       8.640   8.647  -0.181  0.00  0.00    +0.065 A 
ATOM     16 CL   UNK A   0       7.296   9.288   0.711  0.00  0.00    -0.081 Cl
ATOM     17 CL   UNK A   0      12.133   6.995  -2.498  0.00  0.00    -0.083 Cl
ENDBRANCH   8  10
ENDBRANCH   1   6
BRANCH   2  18
ATOM     18  C   UNK A   1       2.826   4.060  -1.492  0.00  0.00    +0.163 C 
BRANCH  18  19
ATOM     19  C   UNK A   1       3.223   2.688  -2.039  0.00  0.00    +0.185 C 
BRANCH  19  20
ATOM     20  O   UNK A   1       4.189   2.091  -1.173  0.00  0.00    -0.393 OA
ATOM     21  H   UNK A   1       4.487   1.217  -1.459  0.00  0.00    +0.209 HD
ENDBRANCH  19  20
ENDBRANCH  18  19
BRANCH  18  22
ATOM     22  C   UNK A   1       2.327   3.910  -0.053  0.00  0.00    +0.171 C 
BRANCH  22  23
ATOM     23  C   UNK A   1       2.002   5.270   0.510  0.00  0.00    -0.014 A 
ATOM     24  C   UNK A   1       0.761   5.835   0.279  0.00  0.00    +0.006 A 
ATOM     25  C   UNK A   1       0.460   7.082   0.795  0.00  0.00    +0.004 A 
ATOM     26  C   UNK A   1       1.400   7.769   1.538  0.00  0.00    +0.045 A 
ATOM     27  C   UNK A   1       2.644   7.202   1.776  0.00  0.00    +0.117 A 
ATOM     28  C   UNK A   1       2.944   5.951   1.257  0.00  0.00    +0.051 A 
BRANCH  27  29
ATOM     29  O   UNK A   1       3.569   7.874   2.510  0.00  0.00    -0.507 OA
ATOM     30  H   UNK A   1       4.146   8.447   1.988  0.00  0.00    +0.292 HD
ENDBRANCH  27  29
ENDBRANCH  22  23
BRANCH  22  31
ATOM     31  O   UNK A   1       1.153   3.096  -0.038  0.00  0.00    -0.385 OA
ATOM     32  H   UNK A   1       0.456   3.400  -0.635  0.00  0.00    +0.210 HD
ENDBRANCH  22  31
ENDBRANCH  18  22
ENDBRANCH   2  18
TORSDOF 9
