REMARK  Name = ZINC32883006
REMARK  12 active torsions:
REMARK  status: ('A' for Active; 'I' for Inactive)
REMARK    1  A    between atoms: C_1  and  C_2
REMARK    2  A    between atoms: C_2  and  C_3
REMARK    3  A    between atoms: C_2  and  C_4
REMARK    4  A    between atoms: C_4  and  C_6
REMARK    5  A    between atoms: C_4  and  N_12
REMARK    6  A    between atoms: C_13  and  C_15
REMARK    7  A    between atoms: C_15  and  S_16
REMARK    8  A    between atoms: S_16  and  C_17
REMARK    9  A    between atoms: C_22  and  C_33
REMARK   10  A    between atoms: C_23  and  C_25
REMARK   11  A    between atoms: C_28  and  O_31
REMARK   12  A    between atoms: O_31  and  C_32
REMARK                            x       y       z     vdW  Elec       q    Type
REMARK                         _______ _______ _______ _____ _____    ______ ____
ROOT
ATOM      1  C   UNL     1      -0.090   4.143  -0.036  0.00  0.00    +0.170 A 
ATOM      2  N   UNL     1       1.120   3.519   0.008  0.00  0.00    -0.301 N 
ATOM      3  H   UNL     1       2.046   4.113  -0.001  0.00  0.00    +0.171 HD
ATOM      4  C   UNL     1       1.190   2.172   0.062  0.00  0.00    +0.270 A 
ATOM      5  O   UNL     1       2.269   1.607   0.102  0.00  0.00    -0.266 OA
ATOM      6  C   UNL     1      -0.018   1.429   0.072  0.00  0.00    +0.142 A 
ATOM      7  C   UNL     1      -1.236   2.133   0.019  0.00  0.00    +0.096 A 
ATOM      8  N   UNL     1      -1.222   3.467  -0.028  0.00  0.00    -0.222 NA
ENDROOT
BRANCH   7   9
ATOM      9  C   UNL     1      -2.520   1.401   0.022  0.00  0.00    +0.002 A 
ATOM     10  C   UNL     1      -3.545   1.789   0.888  0.00  0.00    +0.013 A 
ATOM     11  C   UNL     1      -4.742   1.107   0.884  0.00  0.00    +0.046 A 
ATOM     12  C   UNL     1      -4.927   0.029   0.027  0.00  0.00    +0.120 A 
ATOM     13  C   UNL     1      -3.907  -0.363  -0.832  0.00  0.00    +0.046 A 
ATOM     14  C   UNL     1      -2.709   0.317  -0.838  0.00  0.00    +0.013 A 
BRANCH  12  15
ATOM     15  O   UNL     1      -6.106  -0.644   0.030  0.00  0.00    -0.495 OA
ATOM     16  C   UNL     1      -7.111  -0.188   0.938  0.00  0.00    +0.277 C 
ENDBRANCH  12  15
ENDBRANCH   7   9
BRANCH   6  17
ATOM     17  C   UNL     1       0.001  -0.002   0.128  0.00  0.00    +0.107 C 
ATOM     18  N   UNL     1       0.016  -1.137   0.173  0.00  0.00    -0.191 NA
ENDBRANCH   6  17
BRANCH   1  19
ATOM     19  S   UNL     1      -0.144   5.903  -0.106  0.00  0.00    -0.078 S 
BRANCH  19  20
ATOM     20  C   UNL     1      -1.935   6.162  -0.145  0.00  0.00    +0.173 C 
BRANCH  20  22
ATOM     21  N   UNL     1      -3.504   8.071  -0.245  0.00  0.00    -0.308 N 
ATOM     22  C   UNL     1      -2.228   7.638  -0.207  0.00  0.00    +0.224 C 
ATOM     23  O   UNL     1      -1.316   8.438  -0.224  0.00  0.00    -0.275 OA
ATOM     24  H   UNL     1      -4.331   7.346  -0.230  0.00  0.00    +0.149 HD
BRANCH  21  25
ATOM     25  C   UNL     1      -3.789   9.507  -0.305  0.00  0.00    +0.106 C 
BRANCH  25  26
ATOM     26  C   UNL     1      -5.159   9.771   0.263  0.00  0.00    -0.027 A 
ATOM     27  C   UNL     1      -6.202   8.909  -0.018  0.00  0.00    +0.005 A 
ATOM     28  C   UNL     1      -7.458   9.149   0.507  0.00  0.00    +0.000 A 
ATOM     29  C   UNL     1      -7.673  10.257   1.306  0.00  0.00    +0.000 A 
ATOM     30  C   UNL     1      -6.631  11.122   1.582  0.00  0.00    +0.000 A 
ATOM     31  C   UNL     1      -5.375  10.880   1.061  0.00  0.00    +0.005 A 
ENDBRANCH  25  26
BRANCH  25  33
ATOM     32  C   UNL     1      -4.039  11.475  -1.825  0.00  0.00    +0.009 C 
ATOM     33  C   UNL     1      -3.742   9.975  -1.761  0.00  0.00    +0.008 C 
ATOM     34  C   UNL     1      -2.350   9.707  -2.338  0.00  0.00    +0.009 C 
ENDBRANCH  25  33
ENDBRANCH  21  25
ENDBRANCH  20  22
ENDBRANCH  19  20
ENDBRANCH   1  19
TORSDOF 9
