REMARK  Name = ZINC00811427
REMARK  9 active torsions:
REMARK  status: ('A' for Active; 'I' for Inactive)
REMARK    1  A    between atoms: C_1  and  C_2
REMARK    2  A    between atoms: C_3  and  C_19
REMARK    3  A    between atoms: C_4  and  C_10
REMARK    4  A    between atoms: C_13  and  O_17
REMARK    5  A    between atoms: O_17  and  C_18
REMARK    6  A    between atoms: C_19  and  O_21
REMARK    7  A    between atoms: O_21  and  C_22
REMARK    8  A    between atoms: C_22  and  C_23
REMARK    9  A    between atoms: C_22  and  C_24
REMARK                            x       y       z     vdW  Elec       q    Type
REMARK                         _______ _______ _______ _____ _____    ______ ____
ROOT
ATOM      1  C   UNL     1      -2.037  -3.136  -2.988  0.00  0.00    +0.061 C 
ATOM      2  C   UNL     1      -1.734  -2.593  -1.615  0.00  0.00    +0.021 C 
ATOM      3  C   UNL     1      -1.580  -1.262  -1.446  0.00  0.00    +0.078 C 
ATOM      4  C   UNL     1      -1.276  -0.759  -0.049  0.00  0.00    +0.144 C 
ATOM      5  N   UNL     1      -1.173  -1.771   1.016  0.00  0.00    -0.288 N 
ATOM      6  C   UNL     1      -1.353  -3.066   0.691  0.00  0.00    +0.304 C 
ATOM      7  O   UNL     1      -1.270  -3.908   1.563  0.00  0.00    -0.252 OA
ATOM      8  N   UNL     1      -1.620  -3.455  -0.562  0.00  0.00    -0.273 N 
ATOM      9  H   UNL     1      -0.980  -1.510   1.931  0.00  0.00    +0.151 HD
ATOM     10  H   UNL     1      -1.738  -4.403  -0.731  0.00  0.00    +0.156 HD
ENDROOT
BRANCH   4  11
ATOM     11  C   UNL     1       0.028  -0.005  -0.101  0.00  0.00    -0.021 A 
ATOM     12  C   UNL     1       1.226  -0.695  -0.098  0.00  0.00    +0.009 A 
ATOM     13  C   UNL     1       2.422  -0.006  -0.145  0.00  0.00    +0.047 A 
ATOM     14  C   UNL     1       2.421   1.380  -0.197  0.00  0.00    +0.134 A 
ATOM     15  C   UNL     1       1.218   2.071  -0.200  0.00  0.00    +0.060 A 
ATOM     16  C   UNL     1       0.023   1.377  -0.152  0.00  0.00    +0.024 A 
ATOM     17 BR   UNL     1       1.211   3.961  -0.271  0.00  0.00    -0.047 Br
BRANCH  14  18
ATOM     18  O   UNL     1       3.597   2.061  -0.244  0.00  0.00    -0.494 OA
ATOM     19  C   UNL     1       4.796   1.284  -0.238  0.00  0.00    +0.277 C 
ENDBRANCH  14  18
ENDBRANCH   4  11
BRANCH   3  20
ATOM     20  C   UNL     1      -1.699  -0.368  -2.535  0.00  0.00    +0.339 C 
ATOM     21  O   UNL     1      -1.836  -0.800  -3.665  0.00  0.00    -0.245 OA
BRANCH  20  22
ATOM     22  O   UNL     1      -1.659   0.964  -2.323  0.00  0.00    -0.459 OA
BRANCH  22  23
ATOM     23  C   UNL     1      -1.785   1.808  -3.469  0.00  0.00    +0.171 C 
ATOM     24  C   UNL     1      -3.263   2.125  -3.709  0.00  0.00    +0.052 C 
ATOM     25  C   UNL     1      -1.017   3.109  -3.231  0.00  0.00    +0.052 C 
ENDBRANCH  22  23
ENDBRANCH  20  22
ENDBRANCH   3  20
TORSDOF 5
