REMARK  Name = ZINC03669166
REMARK  8 active torsions:
REMARK  status: ('A' for Active; 'I' for Inactive)
REMARK    1  A    between atoms: C_1  and  C_2
REMARK    2  A    between atoms: C_2  and  C_4
REMARK    3  A    between atoms: C_2  and  O_24
REMARK    4  A    between atoms: N_6  and  N_7
REMARK    5  A    between atoms: N_7  and  C_8
REMARK    6  A    between atoms: C_8  and  N_10
REMARK    7  A    between atoms: C_11  and  C_13
REMARK    8  A    between atoms: O_24  and  C_25
REMARK                            x       y       z     vdW  Elec       q    Type
REMARK                         _______ _______ _______ _____ _____    ______ ____
ROOT
ATOM      1  N   UNL     1       1.193  -0.297   3.568  0.00  0.00    -0.245 N 
ATOM      2  H   UNL     1       2.086  -0.656   3.453  0.00  0.00    +0.172 HD
ENDROOT
BRANCH   1   5
ATOM      3  C   UNL     1       0.863  -0.290   1.210  0.00  0.00    +0.270 C 
ATOM      4  O   UNL     1       1.980  -0.739   1.066  0.00  0.00    -0.270 OA
ATOM      5  N   UNL     1       0.392  -0.039   2.447  0.00  0.00    -0.232 N 
ATOM      6  H   UNL     1      -0.502   0.320   2.562  0.00  0.00    +0.173 HD
BRANCH   3   8
ATOM      7  C   UNL     1      -0.258   1.492  -0.101  0.00  0.00    +0.062 C 
ATOM      8  C   UNL     1       0.001  -0.013   0.005  0.00  0.00    +0.257 C 
BRANCH   8   9
ATOM      9  O   UNL     1       0.671  -0.465  -1.174  0.00  0.00    -0.478 OA
BRANCH   9  10
ATOM     10  C   UNL     1      -0.106  -0.775  -2.244  0.00  0.00    +0.147 A 
ATOM     11  C   UNL     1      -1.452  -0.545  -2.205  0.00  0.00    +0.048 A 
ATOM     12  C   UNL     1      -2.264  -0.856  -3.292  0.00  0.00    +0.004 A 
ATOM     13  C   UNL     1      -1.740  -1.398  -4.426  0.00  0.00    +0.010 A 
ATOM     14  C   UNL     1      -0.360  -1.648  -4.504  0.00  0.00    +0.004 A 
ATOM     15  C   UNL     1       0.473  -1.329  -3.404  0.00  0.00    +0.112 A 
ATOM     16  N   UNL     1       1.787  -1.562  -3.475  0.00  0.00    -0.251 NA
ATOM     17  C   UNL     1       2.330  -2.078  -4.551  0.00  0.00    +0.111 A 
ATOM     18  C   UNL     1       1.569  -2.409  -5.670  0.00  0.00    +0.020 A 
ATOM     19  C   UNL     1       0.218  -2.208  -5.659  0.00  0.00    +0.011 A 
ENDBRANCH   9  10
ENDBRANCH   8   9
ENDBRANCH   3   8
ENDBRANCH   1   5
BRANCH   1  20
ATOM     20  C   UNL     1       0.721  -0.046   4.805  0.00  0.00    +0.153 C 
ATOM     21  S   UNL     1       1.700  -0.361   6.174  0.00  0.00    -0.017 S 
BRANCH  20  22
ATOM     22  N   UNL     1      -0.520   0.453   4.965  0.00  0.00    -0.262 N 
ATOM     23  C   UNL     1      -0.992   0.704   6.202  0.00  0.00    +0.256 C 
ATOM     24  O   UNL     1      -0.297   0.480   7.175  0.00  0.00    -0.270 OA
ATOM     25  H   UNL     1      -1.075   0.631   4.189  0.00  0.00    +0.157 HD
BRANCH  23  26
ATOM     26  C   UNL     1      -2.348   1.248   6.377  0.00  0.00    +0.122 A 
ATOM     27  C   UNL     1      -2.859   1.522   7.639  0.00  0.00    +0.031 A 
ATOM     28  C   UNL     1      -4.185   2.016   7.729  0.00  0.00    +0.018 A 
ATOM     29  C   UNL     1      -4.685   2.498   8.948  0.00  0.00    +0.011 A 
ATOM     30  C   UNL     1      -5.949   3.008   9.009  0.00  0.00    +0.001 A 
ATOM     31  C   UNL     1      -6.750   3.048   7.875  0.00  0.00    +0.004 A 
ATOM     32  C   UNL     1      -6.287   2.562   6.670  0.00  0.00    +0.047 A 
ATOM     33  C   UNL     1      -5.006   2.032   6.586  0.00  0.00    +0.139 A 
ATOM     34  O   UNL     1      -4.556   1.513   5.419  0.00  0.00    -0.422 OA
ATOM     35  C   UNL     1      -3.215   1.531   5.219  0.00  0.00    +0.350 A 
ATOM     36  O   UNL     1      -2.744   1.768   4.123  0.00  0.00    -0.244 OA
ENDBRANCH  23  26
ENDBRANCH  20  22
ENDBRANCH   1  20
TORSDOF 7
