REMARK  Name = ZINC56946619
REMARK  8 active torsions:
REMARK  status: ('A' for Active; 'I' for Inactive)
REMARK    1  A    between atoms: C_1  and  C_2
REMARK    2  A    between atoms: C_5  and  C_27
REMARK    3  A    between atoms: N_8  and  C_10
REMARK    4  A    between atoms: C_10  and  C_11
REMARK    5  A    between atoms: C_11  and  C_13
REMARK    6  A    between atoms: C_11  and  N_14
REMARK    7  A    between atoms: N_17  and  C_18
REMARK    8  A    between atoms: N_21  and  C_24
REMARK                            x       y       z     vdW  Elec       q    Type
REMARK                         _______ _______ _______ _____ _____    ______ ____
ROOT
ATOM      1  N   UNL     1       3.510  -2.495   0.951  0.00  0.00    -0.299 N 
ATOM      2  C   UNL     1       4.540  -1.852   0.365  0.00  0.00    +0.300 C 
ATOM      3  O   UNL     1       5.040  -0.884   0.906  0.00  0.00    -0.253 OA
ATOM      4  N   UNL     1       5.016  -2.281  -0.821  0.00  0.00    -0.297 N 
ATOM      5  H   UNL     1       3.112  -3.266   0.519  0.00  0.00    +0.150 HD
ATOM      6  H   UNL     1       4.617  -3.053  -1.253  0.00  0.00    +0.151 HD
ENDROOT
BRANCH   4   7
ATOM      7  C   UNL     1       6.135  -1.582  -1.457  0.00  0.00    +0.071 C 
ATOM      8  C   UNL     1       5.603  -0.402  -2.275  0.00  0.00    +0.004 C 
ATOM      9  C   UNL     1       6.768   0.275  -3.001  0.00  0.00    -0.077 C 
ATOM     10  N   UNL     1       7.418  -0.689  -3.897  0.00  0.00    +0.382 N 
ATOM     11  C   UNL     1       7.993  -1.788  -3.112  0.00  0.00    -0.077 C 
ATOM     12  C   UNL     1       6.875  -2.545  -2.390  0.00  0.00    +0.004 C 
ATOM     13  H   UNL     1       6.737  -1.059  -4.542  0.00  0.00    -0.081 HD
BRANCH  10  14
ATOM     14  C   UNL     1       8.485  -0.015  -4.648  0.00  0.00    -0.069 C 
ATOM     15  C   UNL     1       8.278   0.175  -6.152  0.00  0.00    -0.017 C 
ATOM     16  C   UNL     1       9.288  -0.856  -5.642  0.00  0.00    -0.017 C 
ENDBRANCH  10  14
ENDBRANCH   4   7
BRANCH   1  17
ATOM     17  C   UNL     1       2.993  -2.028   2.239  0.00  0.00    +0.055 C 
ATOM     18  C   UNL     1       3.825  -2.634   3.372  0.00  0.00    +0.026 C 
BRANCH  17  19
ATOM     19  C   UNL     1       1.534  -2.461   2.390  0.00  0.00    -0.057 C 
BRANCH  19  25
ATOM     20  C   UNL     1      -0.019   1.526   0.010  0.00  0.00    +0.005 C 
ATOM     21  C   UNL     1       0.002  -0.004   0.002  0.00  0.00    -0.031 C 
ATOM     22  C   UNL     1      -1.434  -0.535   0.015  0.00  0.00    +0.003 C 
ATOM     23  C   UNL     1      -1.402  -2.064   0.086  0.00  0.00    -0.031 C 
ATOM     24  C   UNL     1      -0.613  -2.496   1.324  0.00  0.00    -0.076 C 
ATOM     25  N   UNL     1       0.758  -1.980   1.239  0.00  0.00    +0.381 N 
ATOM     26  C   UNL     1       0.740  -0.512   1.242  0.00  0.00    -0.076 C 
ATOM     27  C   UNL     1      -2.832  -2.602   0.177  0.00  0.00    +0.005 C 
ATOM     28  H   UNL     1       1.188  -2.307   0.386  0.00  0.00    -0.082 HD
ENDBRANCH  19  25
ENDBRANCH  17  19
ENDBRANCH   1  17
TORSDOF 5
