REMARK  Name = ZINC24433777
REMARK  5 active torsions:
REMARK  status: ('A' for Active; 'I' for Inactive)
REMARK    1  A    between atoms: C_1  and  C_2
REMARK    2  A    between atoms: C_5  and  C_22
REMARK    3  A    between atoms: C_7  and  N_8
REMARK    4  A    between atoms: N_8  and  S_9
REMARK    5  A    between atoms: S_9  and  C_12
REMARK                            x       y       z     vdW  Elec       q    Type
REMARK                         _______ _______ _______ _____ _____    ______ ____
ROOT
ATOM      1  C   UNL     1       1.639   7.481  -4.227  0.00  0.00    +0.046 C 
ATOM      2  C   UNL     1       0.226   7.458  -3.705  0.00  0.00    -0.028 A 
ATOM      3  C   UNL     1      -0.782   6.897  -4.467  0.00  0.00    +0.006 A 
ATOM      4  C   UNL     1      -2.078   6.872  -3.996  0.00  0.00    +0.012 A 
ATOM      5  C   UNL     1      -2.377   7.415  -2.745  0.00  0.00    +0.021 A 
ATOM      6  C   UNL     1      -1.361   7.976  -1.973  0.00  0.00    +0.036 A 
ATOM      7  C   UNL     1      -0.061   8.001  -2.458  0.00  0.00    +0.052 A 
ENDROOT
BRANCH   5   8
ATOM      8  C   UNL     1      -3.766   7.389  -2.237  0.00  0.00    +0.164 A 
ATOM      9  N   UNL     1      -4.146   7.515  -0.983  0.00  0.00    -0.129 NA
ATOM     10  N   UNL     1      -5.429   7.454  -0.910  0.00  0.00    -0.134 NA
ATOM     11  C   UNL     1      -5.935   7.282  -2.099  0.00  0.00    +0.134 A 
ATOM     12  N   UNL     1      -4.900   7.225  -2.978  0.00  0.00    -0.311 N 
ATOM     13  C   UNL     1      -4.995   7.016  -4.423  0.00  0.00    +0.125 C 
ATOM     14  C   UNL     1      -6.340   7.548  -4.925  0.00  0.00    +0.022 C 
ATOM     15  C   UNL     1      -7.392   6.443  -4.850  0.00  0.00    +0.002 C 
ATOM     16  C   UNL     1      -7.588   5.986  -3.408  0.00  0.00    +0.008 C 
ATOM     17  C   UNL     1      -7.394   7.174  -2.461  0.00  0.00    +0.076 C 
ENDBRANCH   5   8
BRANCH   7  18
ATOM     18  N   UNL     1       0.960   8.566  -1.690  0.00  0.00    -0.216 N 
ATOM     19  H   UNL     1       1.800   9.076  -2.184  0.00  0.00    +0.174 HD
BRANCH  18  20
ATOM     20  S   UNL     1       0.905   8.468  -0.038  0.00  0.00    +0.072 S 
ATOM     21  O   UNL     1      -0.358   8.983   0.358  0.00  0.00    -0.150 OA
ATOM     22  O   UNL     1       2.131   9.004   0.441  0.00  0.00    -0.150 OA
BRANCH  20  23
ATOM     23  C   UNL     1       0.905   6.757   0.382  0.00  0.00    +0.109 A 
ATOM     24  C   UNL     1       2.118   6.100   0.587  0.00  0.00    +0.029 A 
ATOM     25  C   UNL     1       2.153   4.779   0.913  0.00  0.00    +0.010 A 
ATOM     26  C   UNL     1       0.951   4.063   1.046  0.00  0.00    -0.018 A 
ATOM     27  C   UNL     1       0.948   2.699   1.381  0.00  0.00    +0.008 A 
ATOM     28  C   UNL     1      -0.236   2.038   1.500  0.00  0.00    +0.001 A 
ATOM     29  C   UNL     1      -1.448   2.693   1.290  0.00  0.00    +0.001 A 
ATOM     30  C   UNL     1      -1.484   4.015   0.971  0.00  0.00    +0.008 A 
ATOM     31  C   UNL     1      -0.282   4.731   0.838  0.00  0.00    -0.016 A 
ATOM     32  C   UNL     1      -0.278   6.096   0.503  0.00  0.00    +0.037 A 
ENDBRANCH  20  23
ENDBRANCH  18  20
ENDBRANCH   7  18
TORSDOF 4
