REMARK  Name = ZINC28220893
REMARK  4 active torsions:
REMARK  status: ('A' for Active; 'I' for Inactive)
REMARK    1  A    between atoms: C_10  and  C_11
REMARK    2  A    between atoms: C_11  and  N_12
REMARK    3  A    between atoms: C_14  and  N_17
REMARK    4  A    between atoms: C_18  and  C_20
REMARK                            x       y       z     vdW  Elec       q    Type
REMARK                         _______ _______ _______ _____ _____    ______ ____
ROOT
ATOM      1  N   UNL     1      -2.910   0.293  -1.346  0.00  0.00    -0.265 N 
ATOM      2  C   UNL     1      -4.073  -0.054  -1.957  0.00  0.00    +0.132 A 
ATOM      3  C   UNL     1      -4.042   0.455  -3.216  0.00  0.00    +0.072 A 
ATOM      4  C   UNL     1      -2.824   1.132  -3.375  0.00  0.00    +0.157 A 
ATOM      5  N   UNL     1      -2.152   1.040  -2.256  0.00  0.00    -0.177 NA
ENDROOT
BRANCH   3   6
ATOM      6  N   UNL     1      -5.051   0.326  -4.187  0.00  0.00    -0.279 N 
ATOM      7  C   UNL     1      -4.891   0.883  -5.404  0.00  0.00    +0.249 C 
ATOM      8  O   UNL     1      -3.874   1.498  -5.662  0.00  0.00    -0.270 OA
ATOM      9  H   UNL     1      -5.971  -0.231  -3.954  0.00  0.00    +0.155 HD
BRANCH   7  10
ATOM     10  C   UNL     1      -5.952   0.748  -6.424  0.00  0.00    +0.051 A 
ATOM     11  C   UNL     1      -7.118   0.038  -6.133  0.00  0.00    +0.014 A 
ATOM     12  C   UNL     1      -8.106  -0.081  -7.088  0.00  0.00    +0.001 A 
ATOM     13  C   UNL     1      -7.939   0.493  -8.336  0.00  0.00    +0.001 A 
ATOM     14  C   UNL     1      -6.785   1.193  -8.634  0.00  0.00    +0.016 A 
ATOM     15  C   UNL     1      -5.789   1.325  -7.685  0.00  0.00    +0.030 A 
ATOM     16 BR   UNL     1      -4.211   2.282  -8.094  0.00  0.00    -0.050 Br
ENDBRANCH   7  10
ENDBRANCH   3   6
BRANCH   1  17
ATOM     17  C   UNL     1      -2.522  -0.048   0.025  0.00  0.00    +0.179 C 
BRANCH  17  27
ATOM     18  C   UNL     1       2.380   1.424  -0.013  0.00  0.00    +0.001 A 
ATOM     19  C   UNL     1       1.156   2.091   0.002  0.00  0.00    +0.001 A 
ATOM     20  C   UNL     1      -0.017   1.401   0.010  0.00  0.00    +0.009 A 
ATOM     21  C   UNL     1       0.002  -0.004   0.002  0.00  0.00    -0.013 A 
ATOM     22  C   UNL     1       1.247  -0.682  -0.013  0.00  0.00    -0.018 A 
ATOM     23  C   UNL     1       2.438   0.064  -0.021  0.00  0.00    +0.008 A 
ATOM     24  C   UNL     1       1.266  -2.087  -0.021  0.00  0.00    +0.008 A 
ATOM     25  C   UNL     1       0.092  -2.776  -0.015  0.00  0.00    +0.001 A 
ATOM     26  C   UNL     1      -1.131  -2.110   0.001  0.00  0.00    +0.006 A 
ATOM     27  C   UNL     1      -1.188  -0.750   0.009  0.00  0.00    -0.018 A 
ENDBRANCH  17  27
ENDBRANCH   1  17
TORSDOF 4
