REMARK  Name = ZINC34749267
REMARK  7 active torsions:
REMARK  status: ('A' for Active; 'I' for Inactive)
REMARK    1  A    between atoms: C_1  and  C_2
REMARK    2  A    between atoms: C_2  and  C_3
REMARK    3  A    between atoms: C_4  and  C_32
REMARK    4  A    between atoms: N_10  and  C_23
REMARK    5  A    between atoms: N_16  and  C_19
REMARK    6  A    between atoms: C_19  and  C_20
REMARK    7  A    between atoms: C_23  and  C_24
REMARK                            x       y       z     vdW  Elec       q    Type
REMARK                         _______ _______ _______ _____ _____    ______ ____
ROOT
ATOM      1  C   UNL     1       0.782  -0.448   1.262  0.00  0.00    -0.023 A 
ATOM      2  C   UNL     1       2.117  -0.579   1.272  0.00  0.00    -0.007 A 
ATOM      3  S   UNL     1       2.468  -1.125   2.932  0.00  0.00    -0.073 S 
ATOM      4  C   UNL     1       0.811  -1.162   3.566  0.00  0.00    +0.117 A 
ATOM      5  C   UNL     1       0.032  -0.743   2.471  0.00  0.00    +0.076 A 
ATOM      6  C   UNL     1      -1.378  -0.673   2.701  0.00  0.00    +0.264 A 
ATOM      7  O   UNL     1      -2.133  -0.325   1.810  0.00  0.00    -0.267 OA
ATOM      8  N   UNL     1      -1.861  -0.997   3.915  0.00  0.00    -0.271 N 
ATOM      9  C   UNL     1      -1.032  -1.389   4.925  0.00  0.00    +0.202 A 
ATOM     10  N   UNL     1       0.269  -1.473   4.738  0.00  0.00    -0.208 NA
ATOM     11  N   UNL     1      -1.562  -1.711   6.149  0.00  0.00    -0.304 N 
ATOM     12  C   UNL     1      -1.748  -0.684   7.186  0.00  0.00    +0.089 C 
ATOM     13  C   UNL     1      -1.128  -1.194   8.491  0.00  0.00    -0.059 C 
ATOM     14  N   UNL     1      -1.700  -2.504   8.826  0.00  0.00    +0.387 N 
ATOM     15  C   UNL     1      -1.329  -3.488   7.801  0.00  0.00    -0.059 C 
ATOM     16  C   UNL     1      -1.964  -3.091   6.460  0.00  0.00    +0.089 C 
ATOM     17  C   UNL     1       3.088  -0.325   0.148  0.00  0.00    +0.052 C 
ATOM     18  H   UNL     1      -2.706  -2.429   8.870  0.00  0.00    -0.081 HD
ENDROOT
BRANCH   1  20
ATOM     19  C   UNL     1      -0.034   1.532   0.013  0.00  0.00    +0.009 C 
ATOM     20  C   UNL     1       0.070   0.006   0.015  0.00  0.00    +0.033 C 
ENDBRANCH   1  20
BRANCH  14  21
ATOM     21  C   UNL     1      -1.188  -2.942  10.131  0.00  0.00    +0.018 C 
BRANCH  21  22
ATOM     22  C   UNL     1      -1.867  -4.226  10.532  0.00  0.00    +0.194 C 
ATOM     23  O   UNL     1      -2.696  -4.727   9.803  0.00  0.00    -0.278 OA
ATOM     24  N   UNL     1      -1.553  -4.817  11.702  0.00  0.00    -0.331 N 
ATOM     25  H   UNL     1      -0.890  -4.416  12.286  0.00  0.00    +0.145 HD
ATOM     26  H   UNL     1      -1.990  -5.644  11.960  0.00  0.00    +0.145 HD
ENDBRANCH  21  22
ENDBRANCH  14  21
BRANCH   8  27
ATOM     27  C   UNL     1      -3.304  -0.927   4.157  0.00  0.00    +0.224 C 
BRANCH  27  28
ATOM     28  C   UNL     1      -3.947  -2.224   3.738  0.00  0.00    +0.236 C 
ATOM     29  O   UNL     1      -3.266  -3.119   3.282  0.00  0.00    -0.274 OA
ATOM     30  N   UNL     1      -5.278  -2.390   3.870  0.00  0.00    -0.300 N 
ATOM     31  C   UNL     1      -6.116  -1.313   4.414  0.00  0.00    +0.108 C 
ATOM     32  C   UNL     1      -7.253  -1.027   3.429  0.00  0.00    +0.019 C 
ATOM     33  C   UNL     1      -8.009  -2.325   3.137  0.00  0.00    +0.003 C 
ATOM     34  C   UNL     1      -7.058  -3.338   2.496  0.00  0.00    +0.019 C 
ATOM     35  C   UNL     1      -5.919  -3.649   3.466  0.00  0.00    +0.108 C 
ENDBRANCH  27  28
ENDBRANCH   8  27
TORSDOF 5
