REMARK  Name = ZINC39883650
REMARK  9 active torsions:
REMARK  status: ('A' for Active; 'I' for Inactive)
REMARK    1  A    between atoms: C_1  and  C_2
REMARK    2  A    between atoms: C_4  and  C_27
REMARK    3  A    between atoms: C_10  and  C_11
REMARK    4  A    between atoms: C_11  and  C_12
REMARK    5  A    between atoms: N_14  and  C_15
REMARK    6  A    between atoms: C_15  and  C_16
REMARK    7  A    between atoms: C_16  and  C_17
REMARK    8  A    between atoms: C_20  and  S_23
REMARK    9  A    between atoms: S_23  and  N_26
REMARK                            x       y       z     vdW  Elec       q    Type
REMARK                         _______ _______ _______ _____ _____    ______ ____
ROOT
ATOM      1  C   UNL     1       0.868  -5.730  -1.092  0.00  0.00    +0.217 C 
ATOM      2  O   UNL     1       1.818  -5.050  -0.767  0.00  0.00    -0.275 OA
ATOM      3  N   UNL     1       1.032  -6.747  -1.960  0.00  0.00    -0.315 N 
ATOM      4  H   UNL     1       0.272  -7.291  -2.220  0.00  0.00    +0.149 HD
ENDROOT
BRANCH   1   5
ATOM      5  C   UNL     1      -0.497  -5.436  -0.524  0.00  0.00    +0.134 C 
BRANCH   5  15
ATOM      6  C   UNL     1       0.817  -3.343   5.906  0.00  0.00    +0.044 C 
ATOM      7  C   UNL     1       0.506  -3.670   4.468  0.00  0.00    -0.047 A 
ATOM      8  C   UNL     1       0.557  -4.988   4.037  0.00  0.00    +0.007 A 
ATOM      9  C   UNL     1       0.279  -5.303   2.736  0.00  0.00    -0.039 A 
ATOM     10  C   UNL     1      -0.059  -4.292   1.838  0.00  0.00    +0.027 A 
ATOM     11  C   UNL     1      -0.113  -2.955   2.268  0.00  0.00    +0.136 A 
ATOM     12  C   UNL     1       0.168  -2.658   3.595  0.00  0.00    +0.050 A 
ATOM     13  O   UNL     1      -0.461  -2.206   1.202  0.00  0.00    -0.463 OA
ATOM     14  C   UNL     1      -0.635  -2.973   0.112  0.00  0.00    +0.200 A 
ATOM     15  C   UNL     1      -0.409  -4.260   0.413  0.00  0.00    +0.007 A 
ATOM     16  C   UNL     1       0.337  -6.736   2.275  0.00  0.00    +0.044 C 
ENDBRANCH   5  15
ENDBRANCH   1   5
BRANCH   3  17
ATOM     17  C   UNL     1       2.359  -7.032  -2.512  0.00  0.00    +0.109 C 
BRANCH  17  18
ATOM     18  C   UNL     1       2.270  -8.227  -3.463  0.00  0.00    +0.054 C 
BRANCH  18  19
ATOM     19  C   UNL     1       3.635  -8.521  -4.031  0.00  0.00    -0.046 A 
ATOM     20  C   UNL     1       4.043  -7.908  -5.201  0.00  0.00    +0.005 A 
ATOM     21  C   UNL     1       5.295  -8.177  -5.721  0.00  0.00    +0.029 A 
ATOM     22  C   UNL     1       6.139  -9.058  -5.072  0.00  0.00    +0.105 A 
ATOM     23  C   UNL     1       5.731  -9.670  -3.901  0.00  0.00    +0.029 A 
ATOM     24  C   UNL     1       4.480  -9.398  -3.379  0.00  0.00    +0.005 A 
BRANCH  22  25
ATOM     25  S   UNL     1       7.734  -9.402  -5.736  0.00  0.00    +0.056 S 
ATOM     26  O   UNL     1       8.117 -10.675  -5.234  0.00  0.00    -0.153 OA
ATOM     27  O   UNL     1       7.664  -9.121  -7.127  0.00  0.00    -0.153 OA
BRANCH  25  28
ATOM     28  N   UNL     1       8.784  -8.300  -5.083  0.00  0.00    -0.204 NA
ATOM     29  H   UNL     1       8.460  -7.633  -4.458  0.00  0.00    +0.144 HD
ATOM     30  H   UNL     1       9.723  -8.322  -5.326  0.00  0.00    +0.144 HD
ENDBRANCH  25  28
ENDBRANCH  22  25
ENDBRANCH  18  19
ENDBRANCH  17  18
ENDBRANCH   3  17
TORSDOF 7
