REMARK  Name = ZINC37540391
REMARK  14 active torsions:
REMARK  status: ('A' for Active; 'I' for Inactive)
REMARK    1  A    between atoms: C_1  and  C_2
REMARK    2  A    between atoms: C_2  and  C_4
REMARK    3  A    between atoms: C_2  and  C_12
REMARK    4  A    between atoms: C_5  and  C_6
REMARK    5  A    between atoms: C_6  and  C_8
REMARK    6  A    between atoms: C_6  and  C_9
REMARK    7  A    between atoms: C_9  and  C_10
REMARK    8  A    between atoms: C_9  and  C_11
REMARK    9  A    between atoms: C_18  and  C_37
REMARK   10  A    between atoms: C_22  and  C_23
REMARK   11  A    between atoms: C_22  and  O_36
REMARK   12  A    between atoms: C_23  and  C_25
REMARK   13  A    between atoms: C_23  and  O_35
REMARK   14  A    between atoms: C_28  and  O_34
REMARK                            x       y       z     vdW  Elec       q    Type
REMARK                         _______ _______ _______ _____ _____    ______ ____
ROOT
ATOM      1  C   UNL     1       1.565  -0.840   0.536  0.00  0.00    +0.002 C 
ATOM      2  C   UNL     1       1.959  -2.335   0.493  0.00  0.00    +0.005 C 
ATOM      3  C   UNL     1       3.281  -2.464   1.272  0.00  0.00    +0.007 C 
ATOM      4  C   UNL     1       3.617  -1.042   1.798  0.00  0.00    +0.030 C 
ATOM      5  C   UNL     1       2.902  -0.121   0.791  0.00  0.00    -0.023 C 
ATOM      6  C   UNL     1       2.715   1.292   1.290  0.00  0.00    +0.007 C 
ATOM      7  C   UNL     1       2.043   1.317   2.663  0.00  0.00    +0.003 C 
ATOM      8  C   UNL     1       2.922   0.530   3.642  0.00  0.00    +0.038 C 
ATOM      9  C   UNL     1       2.989  -0.930   3.189  0.00  0.00    +0.099 C 
ATOM     10  C   UNL     1       3.708  -0.080  -0.509  0.00  0.00    +0.012 C 
ENDROOT
BRANCH   1  12
ATOM     11  C   UNL     1       0.617   1.086  -0.742  0.00  0.00    +0.012 C 
ATOM     12  C   UNL     1       0.965  -0.403  -0.802  0.00  0.00    +0.012 C 
BRANCH  12  13
ATOM     13  C   UNL     1      -0.284  -1.200  -1.077  0.00  0.00    -0.027 C 
ATOM     14  C   UNL     1      -0.361  -1.949  -2.149  0.00  0.00    -0.027 C 
BRANCH  14  15
ATOM     15  C   UNL     1      -1.610  -2.746  -2.424  0.00  0.00    +0.011 C 
ATOM     16  C   UNL     1      -1.262  -4.235  -2.483  0.00  0.00    +0.012 C 
BRANCH  15  17
ATOM     17  C   UNL     1      -2.210  -2.308  -3.761  0.00  0.00    -0.011 C 
ATOM     18  C   UNL     1      -3.478  -3.118  -4.040  0.00  0.00    +0.008 C 
ATOM     19  C   UNL     1      -2.558  -0.820  -3.701  0.00  0.00    +0.008 C 
ENDBRANCH  15  17
ENDBRANCH  14  15
ENDBRANCH  12  13
ENDBRANCH   1  12
BRANCH   9  20
ATOM     20  O   UNL     1       1.660  -1.456   3.148  0.00  0.00    -0.385 OA
ATOM     21  H   UNL     1       1.196  -1.419   3.996  0.00  0.00    +0.210 HD
ENDBRANCH   9  20
BRANCH   9  22
ATOM     22  C   UNL     1       3.820  -1.743   4.184  0.00  0.00    +0.169 C 
BRANCH  22  23
ATOM     23  C   UNL     1       3.300  -1.512   5.579  0.00  0.00    +0.010 C 
ATOM     24  C   UNL     1       4.133  -1.136   6.544  0.00  0.00    -0.044 C 
ATOM     25  C   UNL     1       3.684  -1.043   7.989  0.00  0.00    +0.066 C 
ATOM     26  C   UNL     1       4.739  -1.724   8.867  0.00  0.00    +0.119 C 
ATOM     27  C   UNL     1       6.099  -1.059   8.654  0.00  0.00    +0.036 C 
ATOM     28  C   UNL     1       6.588  -1.320   7.225  0.00  0.00    +0.037 C 
ATOM     29  C   UNL     1       5.549  -0.793   6.261  0.00  0.00    -0.051 C 
ATOM     30  C   UNL     1       5.891  -0.056   5.210  0.00  0.00    +0.012 C 
BRANCH  26  31
ATOM     31  O   UNL     1       4.364  -1.605  10.240  0.00  0.00    -0.391 OA
ATOM     32  H   UNL     1       4.987  -2.015  10.855  0.00  0.00    +0.210 HD
ENDBRANCH  26  31
ENDBRANCH  22  23
BRANCH  22  33
ATOM     33  O   UNL     1       3.722  -3.132   3.863  0.00  0.00    -0.385 OA
ATOM     34  H   UNL     1       2.824  -3.486   3.916  0.00  0.00    +0.210 HD
ENDBRANCH  22  33
ENDBRANCH   9  22
TORSDOF 9
