REMARK  Name = ZINC59225460
REMARK  10 active torsions:
REMARK  status: ('A' for Active; 'I' for Inactive)
REMARK    1  A    between atoms: C_1  and  C_2
REMARK    2  A    between atoms: C_5  and  O_28
REMARK    3  A    between atoms: C_6  and  N_8
REMARK    4  A    between atoms: C_9  and  S_20
REMARK    5  A    between atoms: N_10  and  C_11
REMARK    6  A    between atoms: C_13  and  C_19
REMARK    7  A    between atoms: C_16  and  O_17
REMARK    8  A    between atoms: O_17  and  C_18
REMARK    9  A    between atoms: S_20  and  C_21
REMARK   10  A    between atoms: O_28  and  C_29
REMARK                            x       y       z     vdW  Elec       q    Type
REMARK                         _______ _______ _______ _____ _____    ______ ____
ROOT
ATOM      1  N   UNL     1       0.206  -3.019   2.487  0.00  0.00    -0.291 N 
ATOM      2  C   UNL     1       0.493  -2.223   3.571  0.00  0.00    +0.159 C 
ATOM      3  N   UNL     1       0.745  -0.945   3.399  0.00  0.00    -0.222 NA
ATOM      4  H   UNL     1       0.117  -3.978   2.599  0.00  0.00    +0.154 HD
ENDROOT
BRANCH   1  10
ATOM      5  C   UNL     1      -0.984   0.872  -0.274  0.00  0.00    +0.044 C 
ATOM      6  C   UNL     1      -0.534  -0.561  -0.148  0.00  0.00    -0.048 A 
ATOM      7  C   UNL     1      -0.284  -1.308  -1.285  0.00  0.00    +0.007 A 
ATOM      8  C   UNL     1       0.129  -2.622  -1.176  0.00  0.00    +0.048 A 
ATOM      9  C   UNL     1       0.294  -3.196   0.074  0.00  0.00    +0.141 A 
ATOM     10  C   UNL     1       0.042  -2.444   1.220  0.00  0.00    +0.075 A 
ATOM     11  C   UNL     1      -0.366  -1.123   1.103  0.00  0.00    +0.030 A 
BRANCH   9  12
ATOM     12  O   UNL     1       0.699  -4.489   0.183  0.00  0.00    -0.493 OA
ATOM     13  C   UNL     1       0.938  -5.199  -1.034  0.00  0.00    +0.277 C 
ENDBRANCH   9  12
ENDBRANCH   1  10
BRANCH   3  14
ATOM     14  C   UNL     1       0.904  -0.126   4.486  0.00  0.00    +0.108 A 
ATOM     15  C   UNL     1      -0.067  -0.094   5.488  0.00  0.00    +0.035 A 
ATOM     16  C   UNL     1       0.099   0.733   6.581  0.00  0.00    -0.048 A 
ATOM     17  C   UNL     1       1.225   1.530   6.687  0.00  0.00    +0.007 A 
ATOM     18  C   UNL     1       2.193   1.506   5.699  0.00  0.00    +0.048 A 
ATOM     19  C   UNL     1       2.044   0.678   4.600  0.00  0.00    +0.145 A 
ATOM     20  C   UNL     1      -0.950   0.767   7.662  0.00  0.00    +0.044 C 
BRANCH  19  21
ATOM     21  O   UNL     1       2.999   0.650   3.632  0.00  0.00    -0.493 OA
ATOM     22  C   UNL     1       4.134   1.498   3.816  0.00  0.00    +0.277 C 
ENDBRANCH  19  21
ENDBRANCH   3  14
BRANCH   2  23
ATOM     23  S   UNL     1       0.523  -2.917   5.190  0.00  0.00    -0.083 S 
BRANCH  23  24
ATOM     24  C   UNL     1       0.162  -4.674   4.921  0.00  0.00    +0.076 C 
ATOM     25  C   UNL     1       0.489  -5.460   6.192  0.00  0.00    +0.019 C 
ATOM     26  C   UNL     1      -0.061  -6.883   6.038  0.00  0.00    +0.005 C 
ATOM     27  C   UNL     1      -1.590  -6.813   6.024  0.00  0.00    +0.027 C 
ATOM     28  C   UNL     1      -2.050  -5.769   5.048  0.00  0.00    -0.030 C 
ATOM     29  C   UNL     1      -1.290  -4.837   4.575  0.00  0.00    -0.017 C 
ENDBRANCH  23  24
ENDBRANCH   2  23
TORSDOF 6
