REMARK  Name = ZINC04919627
REMARK  5 active torsions:
REMARK  status: ('A' for Active; 'I' for Inactive)
REMARK    1  A    between atoms: C_1  and  C_2
REMARK    2  A    between atoms: C_18  and  O_29
REMARK    3  A    between atoms: C_23  and  C_25
REMARK    4  A    between atoms: C_25  and  O_27
REMARK    5  A    between atoms: O_27  and  C_28
REMARK                            x       y       z     vdW  Elec       q    Type
REMARK                         _______ _______ _______ _____ _____    ______ ____
ROOT
ATOM      1  C   UNL     1       1.292   2.042   0.080  0.00  0.00    +0.035 C 
ATOM      2  C   UNL     1      -0.016   1.296   0.009  0.00  0.00    -0.033 C 
ATOM      3  C   UNL     1      -0.023  -0.004   0.009  0.00  0.00    -0.087 C 
ATOM      4  C   UNL     1      -1.262  -0.890   0.132  0.00  0.00    -0.051 C 
ATOM      5  C   UNL     1       0.201  -2.922   0.202  0.00  0.00    -0.053 C 
ATOM      6  C   UNL     1       1.085  -3.298  -0.976  0.00  0.00    +0.023 C 
ATOM      7  C   UNL     1       2.559  -3.383  -0.673  0.00  0.00    -0.018 A 
ATOM      8  C   UNL     1       3.142  -4.744  -0.608  0.00  0.00    +0.003 A 
ATOM      9  C   UNL     1       2.555  -6.000  -0.764  0.00  0.00    +0.010 A 
ATOM     10  C   UNL     1       3.398  -7.081  -0.660  0.00  0.00    +0.001 A 
ATOM     11  C   UNL     1       4.753  -6.938  -0.412  0.00  0.00    +0.002 A 
ATOM     12  C   UNL     1       5.348  -5.701  -0.242  0.00  0.00    +0.026 A 
ATOM     13  C   UNL     1       4.514  -4.587  -0.344  0.00  0.00    +0.047 A 
ATOM     14  N   UNL     1       4.732  -3.259  -0.243  0.00  0.00    -0.356 N 
ATOM     15  H   UNL     1       5.579  -2.825  -0.059  0.00  0.00    +0.166 HD
ATOM     16  C   UNL     1       3.539  -2.535  -0.441  0.00  0.00    +0.049 A 
ATOM     17  C   UNL     1       3.739  -1.035  -0.331  0.00  0.00    +0.162 C 
ATOM     18  C   UNL     1       2.517  -0.158  -0.198  0.00  0.00    +0.046 C 
ATOM     19  C   UNL     1       1.244  -0.890  -0.119  0.00  0.00    +0.028 C 
ATOM     20  C   UNL     1       0.936  -1.831   1.038  0.00  0.00    +0.091 C 
ATOM     21  N   UNL     1      -1.053  -2.299  -0.323  0.00  0.00    +0.384 N 
ATOM     22  H   UNL     1      -1.012  -2.305  -1.349  0.00  0.00    -0.085 HD
ATOM     23  H   UNL     1      -1.851  -2.863  -0.009  0.00  0.00    -0.085 HD
ENDROOT
BRANCH  20  24
ATOM     24  C   UNL     1       2.039  -2.286   1.930  0.00  0.00    +0.309 C 
ATOM     25  O   UNL     1       3.169  -1.908   1.734  0.00  0.00    -0.251 OA
BRANCH  24  26
ATOM     26  O   UNL     1       1.776  -3.115   2.952  0.00  0.00    -0.468 OA
ATOM     27  C   UNL     1       2.900  -3.517   3.780  0.00  0.00    +0.280 C 
ENDBRANCH  24  26
ENDBRANCH  20  24
BRANCH  17  28
ATOM     28  O   UNL     1       4.530  -0.592  -1.458  0.00  0.00    -0.386 OA
ATOM     29  H   UNL     1       5.332  -1.111  -1.604  0.00  0.00    +0.210 HD
ENDBRANCH  17  28
TORSDOF 3
