REMARK  Name = ZINC02120615
REMARK  9 active torsions:
REMARK  status: ('A' for Active; 'I' for Inactive)
REMARK    1  A    between atoms: C_1  and  O_2
REMARK    2  A    between atoms: O_2  and  C_3
REMARK    3  A    between atoms: C_6  and  C_20
REMARK    4  A    between atoms: C_8  and  C_9
REMARK    5  A    between atoms: C_9  and  S_10
REMARK    6  A    between atoms: S_10  and  C_11
REMARK    7  A    between atoms: C_33  and  C_35
REMARK    8  A    between atoms: C_35  and  O_37
REMARK    9  A    between atoms: O_37  and  C_38
REMARK                            x       y       z     vdW  Elec       q    Type
REMARK                         _______ _______ _______ _____ _____    ______ ____
ROOT
ATOM      1  C   UNL     1      -2.807   5.330   3.359  0.00  0.00    +0.008 C 
ATOM      2  C   UNL     1      -1.815   4.696   2.412  0.00  0.00    +0.010 A 
ATOM      3  C   UNL     1      -1.484   5.240   1.219  0.00  0.00    -0.021 A 
ATOM      4  C   UNL     1      -0.514   4.362   0.604  0.00  0.00    +0.003 A 
ATOM      5  C   UNL     1       0.175   4.409  -0.613  0.00  0.00    +0.010 A 
ATOM      6  C   UNL     1       1.042   3.377  -0.876  0.00  0.00    +0.001 A 
ATOM      7  C   UNL     1       1.234   2.332   0.013  0.00  0.00    +0.002 A 
ATOM      8  C   UNL     1       0.566   2.260   1.223  0.00  0.00    +0.026 A 
ATOM      9  C   UNL     1      -0.320   3.294   1.518  0.00  0.00    +0.047 A 
ATOM     10  N   UNL     1      -1.123   3.530   2.597  0.00  0.00    -0.359 N 
ATOM     11  H   UNL     1      -1.192   2.958   3.377  0.00  0.00    +0.166 HD
ATOM     12  C   UNL     1      -2.069   6.530   0.702  0.00  0.00    +0.033 C 
ATOM     13  C   UNL     1      -3.318   6.851   1.534  0.00  0.00    +0.045 C 
ATOM     14  N   UNL     1      -2.996   6.745   2.972  0.00  0.00    +0.396 N 
ATOM     15  H   UNL     1      -2.132   7.266   3.164  0.00  0.00    -0.083 HD
ATOM     16  H   UNL     1      -3.766   7.145   3.522  0.00  0.00    -0.083 HD
ENDROOT
BRANCH   1  20
ATOM     17  C   UNL     1      -6.537   3.257   3.128  0.00  0.00    +0.124 A 
ATOM     18  C   UNL     1      -5.356   2.598   2.821  0.00  0.00    +0.046 A 
ATOM     19  C   UNL     1      -4.152   3.270   2.896  0.00  0.00    +0.006 A 
ATOM     20  C   UNL     1      -4.123   4.599   3.277  0.00  0.00    -0.055 A 
ATOM     21  C   UNL     1      -5.298   5.257   3.589  0.00  0.00    +0.010 A 
ATOM     22  C   UNL     1      -6.506   4.591   3.510  0.00  0.00    +0.005 A 
BRANCH  17  24
ATOM     23  C   UNL     1      -7.681   1.227   2.655  0.00  0.00    +0.277 C 
ATOM     24  O   UNL     1      -7.724   2.599   3.055  0.00  0.00    -0.495 OA
ENDBRANCH  17  24
BRANCH  22  25
ATOM     25  C   UNL     1      -7.787   5.310   3.844  0.00  0.00    +0.115 C 
BRANCH  25  26
ATOM     26  S   UNL     1      -8.138   5.127   5.610  0.00  0.00    -0.094 S 
BRANCH  26  27
ATOM     27  C   UNL     1      -9.643   6.037   5.718  0.00  0.00    +0.136 A 
ATOM     28  N   UNL     1     -10.297   6.666   4.767  0.00  0.00    -0.233 NA
ATOM     29  C   UNL     1     -11.454   7.325   4.996  0.00  0.00    +0.079 A 
ATOM     30  C   UNL     1     -12.254   8.032   4.068  0.00  0.00    +0.029 A 
ATOM     31  C   UNL     1     -13.406   8.656   4.470  0.00  0.00    +0.002 A 
ATOM     32  C   UNL     1     -13.828   8.618   5.791  0.00  0.00    +0.001 A 
ATOM     33  C   UNL     1     -13.070   7.936   6.725  0.00  0.00    +0.017 A 
ATOM     34  C   UNL     1     -11.915   7.308   6.332  0.00  0.00    +0.040 A 
ATOM     35  S   UNL     1     -10.666   6.346   7.152  0.00  0.00    -0.061 S 
ENDBRANCH  26  27
ENDBRANCH  25  26
ENDBRANCH  22  25
ENDBRANCH   1  20
BRANCH  13  36
ATOM     36  C   UNL     1      -3.774   8.257   1.235  0.00  0.00    +0.293 C 
ATOM     37  O   UNL     1      -3.496   9.156   1.992  0.00  0.00    -0.253 OA
BRANCH  36  38
ATOM     38  O   UNL     1      -4.489   8.509   0.127  0.00  0.00    -0.469 OA
ATOM     39  C   UNL     1      -4.894   9.885  -0.097  0.00  0.00    +0.280 C 
ENDBRANCH  36  38
ENDBRANCH  13  36
TORSDOF 7
