REMARK  Name = ZINC08914946
REMARK  12 active torsions:
REMARK  status: ('A' for Active; 'I' for Inactive)
REMARK    1  A    between atoms: C_1  and  C_2
REMARK    2  A    between atoms: C_2  and  C_3
REMARK    3  A    between atoms: C_3  and  C_5
REMARK    4  A    between atoms: C_3  and  C_6
REMARK    5  A    between atoms: C_9  and  O_12
REMARK    6  A    between atoms: O_12  and  C_13
REMARK    7  A    between atoms: C_13  and  C_14
REMARK    8  A    between atoms: C_14  and  N_15
REMARK    9  A    between atoms: C_19  and  C_20
REMARK   10  A    between atoms: N_26  and  C_29
REMARK   11  A    between atoms: C_32  and  O_36
REMARK   12  A    between atoms: O_36  and  C_37
REMARK                            x       y       z     vdW  Elec       q    Type
REMARK                         _______ _______ _______ _____ _____    ______ ____
ROOT
ATOM      1  C   UNL     1       4.372  -9.118   3.222  0.00  0.00    +0.044 C 
ATOM      2  C   UNL     1       3.108  -9.479   3.676  0.00  0.00    +0.103 C 
ATOM      3  C   UNL     1       2.032  -9.863   2.741  0.00  0.00    +0.276 C 
ATOM      4  N   UNL     1       0.835 -10.201   3.248  0.00  0.00    -0.123 NA
ATOM      5  C   UNL     1       0.602 -10.197   4.537  0.00  0.00    +0.340 C 
ATOM      6  O   UNL     1      -0.627 -10.549   4.962  0.00  0.00    -0.250 OA
ATOM      7  N   UNL     1       1.531  -9.858   5.470  0.00  0.00    -0.188 N 
ATOM      8  C   UNL     1       2.783  -9.501   5.111  0.00  0.00    +0.264 C 
ATOM      9  O   UNL     1       3.615  -9.202   5.948  0.00  0.00    -0.269 OA
ATOM     10  O   UNL     1       2.226  -9.874   1.536  0.00  0.00    -0.268 OA
ENDROOT
BRANCH   7  11
ATOM     11  C   UNL     1       1.185  -9.885   6.829  0.00  0.00    +0.047 A 
ATOM     12  C   UNL     1       0.934 -11.097   7.457  0.00  0.00    +0.027 A 
ATOM     13  C   UNL     1       0.594 -11.123   8.796  0.00  0.00    +0.049 A 
ATOM     14  C   UNL     1       0.502  -9.939   9.512  0.00  0.00    +0.138 A 
ATOM     15  C   UNL     1       0.752  -8.726   8.884  0.00  0.00    +0.084 A 
ATOM     16  C   UNL     1       1.099  -8.700   7.546  0.00  0.00    +0.047 A 
ATOM     17 CL   UNL     1       0.636  -7.244   9.780  0.00  0.00    -0.080 Cl
BRANCH  14  18
ATOM     18  O   UNL     1       0.166  -9.966  10.829  0.00  0.00    -0.494 OA
ATOM     19  C   UNL     1      -0.078 -11.248  11.411  0.00  0.00    +0.277 C 
ENDBRANCH  14  18
ENDBRANCH   7  11
BRANCH   1  24
ATOM     20  N   UNL     1       4.008  -8.063   1.002  0.00  0.00    -0.344 N 
ATOM     21  C   UNL     1       4.501  -8.234  -0.242  0.00  0.00    +0.086 A 
ATOM     22  C   UNL     1       5.409  -9.245  -0.226  0.00  0.00    +0.020 A 
ATOM     23  C   UNL     1       5.490  -9.730   1.078  0.00  0.00    +0.027 A 
ATOM     24  C   UNL     1       4.609  -8.976   1.845  0.00  0.00    +0.043 A 
BRANCH  20  25
ATOM     25  C   UNL     1       3.005  -7.070   1.394  0.00  0.00    +0.162 C 
BRANCH  25  26
ATOM     26  C   UNL     1       3.705  -5.837   1.967  0.00  0.00    +0.250 C 
BRANCH  26  27
ATOM     27  O   UNL     1       2.736  -4.823   2.242  0.00  0.00    -0.490 OA
BRANCH  27  31
ATOM     28  C   UNL     1       4.133  -1.274   3.814  0.00  0.00    -0.044 A 
ATOM     29  C   UNL     1       2.780  -1.439   3.578  0.00  0.00    +0.007 A 
ATOM     30  C   UNL     1       2.310  -2.627   3.051  0.00  0.00    +0.046 A 
ATOM     31  C   UNL     1       3.196  -3.654   2.760  0.00  0.00    +0.121 A 
ATOM     32  C   UNL     1       4.553  -3.485   2.998  0.00  0.00    +0.046 A 
ATOM     33  C   UNL     1       5.018  -2.294   3.520  0.00  0.00    +0.007 A 
BRANCH  28  34
ATOM     34  C   UNL     1       4.643   0.022   4.389  0.00  0.00    +0.016 C 
ATOM     35  C   UNL     1       4.000   0.262   5.757  0.00  0.00    +0.012 C 
BRANCH  34  37
ATOM     36  C   UNL     1       4.907   2.471   3.968  0.00  0.00    +0.004 C 
ATOM     37  C   UNL     1       4.283   1.174   3.448  0.00  0.00    +0.004 C 
ENDBRANCH  34  37
ENDBRANCH  28  34
ENDBRANCH  27  31
ENDBRANCH  26  27
ENDBRANCH  25  26
ENDBRANCH  20  25
ENDBRANCH   1  24
TORSDOF 9
