REMARK  Name = ZINC64352933
REMARK  9 active torsions:
REMARK  status: ('A' for Active; 'I' for Inactive)
REMARK    1  A    between atoms: C_4  and  O_31
REMARK    2  A    between atoms: C_5  and  C_7
REMARK    3  A    between atoms: C_7  and  N_8
REMARK    4  A    between atoms: C_9  and  C_11
REMARK    5  A    between atoms: C_11  and  C_13
REMARK    6  A    between atoms: C_11  and  N_23
REMARK    7  A    between atoms: C_13  and  C_14
REMARK    8  A    between atoms: C_24  and  C_26
REMARK    9  A    between atoms: O_31  and  C_32
REMARK                            x       y       z     vdW  Elec       q    Type
REMARK                         _______ _______ _______ _____ _____    ______ ____
ROOT
ATOM      1  C   UNL     1       1.817  -4.512   2.961  0.00  0.00    +0.163 C 
ENDROOT
BRANCH   1   3
ATOM      2  N   UNL     1       1.487  -2.679   1.333  0.00  0.00    -0.310 N 
ATOM      3  C   UNL     1       1.549  -4.005   1.568  0.00  0.00    +0.234 C 
ATOM      4  O   UNL     1       1.391  -4.790   0.657  0.00  0.00    -0.274 OA
ATOM      5  H   UNL     1       1.614  -2.051   2.062  0.00  0.00    +0.149 HD
BRANCH   2   6
ATOM      6  C   UNL     1       1.227  -2.187  -0.022  0.00  0.00    +0.143 C 
BRANCH   6  11
ATOM      7  C   UNL     1      -0.017   1.378   0.010  0.00  0.00    +0.001 A 
ATOM      8  C   UNL     1       1.170   2.088   0.002  0.00  0.00    +0.004 A 
ATOM      9  C   UNL     1       2.377   1.417  -0.013  0.00  0.00    +0.046 A 
ATOM     10  C   UNL     1       2.399   0.030  -0.021  0.00  0.00    +0.135 A 
ATOM     11  C   UNL     1       1.207  -0.680  -0.013  0.00  0.00    +0.012 A 
ATOM     12  C   UNL     1       0.002  -0.004   0.002  0.00  0.00    +0.009 A 
BRANCH  10  13
ATOM     13  O   UNL     1       3.586  -0.632  -0.037  0.00  0.00    -0.405 OA
BRANCH  13  14
ATOM     14  C   UNL     1       4.772   0.164  -0.045  0.00  0.00    +0.575 C 
ATOM     15  F   UNL     1       4.804   0.965   1.101  0.00  0.00    -0.133 F 
ATOM     16  F   UNL     1       5.894  -0.672  -0.061  0.00  0.00    -0.133 F 
ATOM     17  F   UNL     1       4.781   0.977  -1.183  0.00  0.00    -0.133 F 
ENDBRANCH  13  14
ENDBRANCH  10  13
ENDBRANCH   6  11
ENDBRANCH   2   6
ENDBRANCH   1   3
BRANCH   1  18
ATOM     18  N   UNL     1       1.376  -5.905   3.067  0.00  0.00    -0.299 N 
ATOM     19  C   UNL     1       1.917  -6.846   2.269  0.00  0.00    +0.251 C 
ATOM     20  O   UNL     1       2.773  -6.539   1.460  0.00  0.00    -0.270 OA
ATOM     21  H   UNL     1       0.694  -6.150   3.712  0.00  0.00    +0.150 HD
BRANCH  19  22
ATOM     22  C   UNL     1       1.476  -8.240   2.375  0.00  0.00    +0.074 A 
ATOM     23  C   UNL     1       1.904  -9.349   1.661  0.00  0.00    +0.021 A 
ATOM     24  C   UNL     1       1.298 -10.539   1.986  0.00  0.00    +0.008 A 
ATOM     25  C   UNL     1       0.349 -10.552   2.955  0.00  0.00    +0.046 A 
ATOM     26  S   UNL     1       0.255  -8.952   3.461  0.00  0.00    -0.092 S 
ENDBRANCH  19  22
ENDBRANCH   1  18
BRANCH   1  27
ATOM     27  C   UNL     1       3.316  -4.428   3.256  0.00  0.00    +0.065 C 
BRANCH  27  28
ATOM     28  C   UNL     1       3.569  -4.818   4.689  0.00  0.00    -0.039 C 
ATOM     29  C   UNL     1       3.920  -6.041   5.149  0.00  0.00    -0.001 A 
ATOM     30  C   UNL     1       4.160  -7.324   4.479  0.00  0.00    +0.010 A 
ATOM     31  C   UNL     1       4.505  -8.399   5.223  0.00  0.00    +0.001 A 
ATOM     32  C   UNL     1       4.638  -8.319   6.616  0.00  0.00    +0.002 A 
ATOM     33  C   UNL     1       4.434  -7.175   7.303  0.00  0.00    +0.026 A 
ATOM     34  C   UNL     1       4.067  -5.982   6.621  0.00  0.00    +0.043 A 
ATOM     35  N   UNL     1       3.817  -4.770   7.054  0.00  0.00    -0.380 N 
ATOM     36  C   UNL     1       3.489  -3.921   5.904  0.00  0.00    +0.144 C 
ATOM     37  H   UNL     1       3.848  -4.482   7.980  0.00  0.00    +0.160 HD
ENDBRANCH  27  28
ENDBRANCH   1  27
TORSDOF 9
