REMARK  Name = ZINC62360329
REMARK  8 active torsions:
REMARK  status: ('A' for Active; 'I' for Inactive)
REMARK    1  A    between atoms: C_1  and  N_2
REMARK    2  A    between atoms: N_2  and  C_3
REMARK    3  A    between atoms: N_2  and  C_4
REMARK    4  A    between atoms: C_4  and  C_6
REMARK    5  A    between atoms: C_4  and  C_22
REMARK    6  A    between atoms: C_6  and  N_7
REMARK    7  A    between atoms: C_8  and  C_10
REMARK    8  A    between atoms: C_17  and  C_19
REMARK                            x       y       z     vdW  Elec       q    Type
REMARK                         _______ _______ _______ _____ _____    ______ ____
ROOT
ATOM      1  N   UNL     1      -1.702   1.302  -1.405  0.00  0.00    -0.311 N 
ATOM      2  C   UNL     1      -2.076   1.923  -2.541  0.00  0.00    +0.264 C 
ATOM      3  O   UNL     1      -2.647   1.299  -3.417  0.00  0.00    -0.268 OA
ATOM      4  H   UNL     1      -1.246   1.799  -0.708  0.00  0.00    +0.149 HD
ENDROOT
BRANCH   2   5
ATOM      5  C   UNL     1      -1.795   3.347  -2.722  0.00  0.00    +0.151 A 
ATOM      6  C   UNL     1      -2.126   4.127  -3.839  0.00  0.00    +0.078 A 
ATOM      7  C   UNL     1      -2.774   3.852  -5.051  0.00  0.00    +0.028 A 
ATOM      8  C   UNL     1      -2.946   4.858  -5.956  0.00  0.00    +0.004 A 
ATOM      9  C   UNL     1      -2.473   6.146  -5.658  0.00  0.00    +0.018 A 
ATOM     10  C   UNL     1      -1.851   6.392  -4.486  0.00  0.00    +0.093 A 
ATOM     11  N   UNL     1      -1.672   5.394  -3.571  0.00  0.00    -0.302 N 
ATOM     12  C   UNL     1      -1.093   5.362  -2.338  0.00  0.00    +0.118 A 
ATOM     13  N   UNL     1      -1.174   4.161  -1.843  0.00  0.00    -0.226 NA
BRANCH  12  14
ATOM     14  C   UNL     1      -0.460   6.543  -1.647  0.00  0.00    +0.056 C 
ATOM     15  C   UNL     1       0.316   6.273  -0.356  0.00  0.00    +0.012 C 
ATOM     16  C   UNL     1      -1.045   6.970  -0.299  0.00  0.00    +0.012 C 
ENDBRANCH  12  14
ENDBRANCH   2   5
BRANCH   1  17
ATOM     17  C   UNL     1      -1.983  -0.125  -1.224  0.00  0.00    +0.094 C 
BRANCH  17  18
ATOM     18  C   UNL     1      -1.353  -0.606   0.085  0.00  0.00    -0.020 C 
BRANCH  18  19
ATOM     19  C   UNL     1       0.147  -0.502  -0.012  0.00  0.00    -0.041 A 
ATOM     20  C   UNL     1       0.805   0.566   0.570  0.00  0.00    +0.003 A 
ATOM     21  C   UNL     1       2.181   0.661   0.481  0.00  0.00    +0.000 A 
ATOM     22  C   UNL     1       2.901  -0.311  -0.189  0.00  0.00    +0.001 A 
ATOM     23  C   UNL     1       2.244  -1.379  -0.770  0.00  0.00    +0.020 A 
ATOM     24  C   UNL     1       0.868  -1.478  -0.677  0.00  0.00    +0.043 A 
ATOM     25 CL   UNL     1       0.043  -2.823  -1.402  0.00  0.00    -0.083 Cl
ENDBRANCH  18  19
BRANCH  18  27
ATOM     26  C   UNL     1      -3.300   0.231   1.207  0.00  0.00    -0.096 C 
ATOM     27  N   UNL     1      -1.831   0.228   1.195  0.00  0.00    +0.382 N 
ATOM     28  C   UNL     1      -1.332  -0.314   2.465  0.00  0.00    -0.096 C 
ATOM     29  H   UNL     1      -1.494   1.172   1.076  0.00  0.00    -0.082 HD
ENDBRANCH  18  27
ENDBRANCH  17  18
ENDBRANCH   1  17
TORSDOF 6
