REMARK  Name = ZINC67300095
REMARK  3 active torsions:
REMARK  status: ('A' for Active; 'I' for Inactive)
REMARK    1  A    between atoms: C_8  and  N_10
REMARK    2  A    between atoms: N_10  and  C_11
REMARK    3  A    between atoms: C_14  and  C_16
REMARK                            x       y       z     vdW  Elec       q    Type
REMARK                         _______ _______ _______ _____ _____    ______ ____
ROOT
ATOM      1  N   UNL     1       4.114  -1.014   2.650  0.00  0.00    -0.295 N 
ATOM      2  C   UNL     1       4.386  -1.421   1.394  0.00  0.00    +0.219 C 
ATOM      3  O   UNL     1       4.150  -0.691   0.455  0.00  0.00    -0.275 OA
ENDROOT
BRANCH   2   4
ATOM      4  C   UNL     1       4.984  -2.784   1.156  0.00  0.00    +0.075 C 
ATOM      5  C   UNL     1       6.417  -2.813   1.692  0.00  0.00    +0.015 C 
ATOM      6  C   UNL     1       7.018  -4.202   1.461  0.00  0.00    +0.036 C 
ATOM      7  C   UNL     1       7.009  -4.522  -0.029  0.00  0.00    +0.112 C 
ATOM      8  C   UNL     1       5.589  -4.472  -0.584  0.00  0.00    +0.036 C 
ATOM      9  C   UNL     1       4.994  -3.082  -0.345  0.00  0.00    +0.015 C 
ATOM     10  C   UNL     1       7.903  -3.563  -0.781  0.00  0.00    +0.244 C 
ATOM     11  O   UNL     1       7.787  -2.359  -0.859  0.00  0.00    -0.273 OA
ATOM     12  N   UNL     1       8.858  -4.329  -1.347  0.00  0.00    -0.238 N 
ATOM     13  C   UNL     1       8.687  -5.625  -1.057  0.00  0.00    +0.307 C 
ATOM     14  O   UNL     1       9.421  -6.509  -1.453  0.00  0.00    -0.252 OA
ATOM     15  N   UNL     1       7.611  -5.838  -0.276  0.00  0.00    -0.285 N 
ATOM     16  H   UNL     1       9.579  -3.984  -1.897  0.00  0.00    +0.159 HD
ATOM     17  H   UNL     1       7.295  -6.693   0.057  0.00  0.00    +0.151 HD
ENDBRANCH   2   4
BRANCH   1  25
ATOM     18  C   UNL     1       0.086   3.116   0.940  0.00  0.00    +0.000 A 
ATOM     19  C   UNL     1      -0.797   2.055   1.014  0.00  0.00    +0.000 A 
ATOM     20  C   UNL     1      -0.352   0.817   1.434  0.00  0.00    +0.004 A 
ATOM     21  C   UNL     1       0.976   0.635   1.782  0.00  0.00    -0.042 A 
ATOM     22  C   UNL     1       1.858   1.696   1.708  0.00  0.00    -0.042 A 
ATOM     23  C   UNL     1       1.410   2.937   1.286  0.00  0.00    +0.004 A 
ATOM     24  C   UNL     1       3.238   1.245   2.138  0.00  0.00    +0.058 C 
ATOM     25  C   UNL     1       3.012  -0.081   2.895  0.00  0.00    +0.085 C 
ATOM     26  C   UNL     1       1.702  -0.602   2.267  0.00  0.00    +0.058 C 
ENDBRANCH   1  25
BRANCH   1  27
ATOM     27  C   UNL     1       4.921  -1.506   3.770  0.00  0.00    +0.076 C 
ATOM     28  C   UNL     1       5.289  -2.990   3.777  0.00  0.00    +0.024 C 
ATOM     29  C   UNL     1       4.247  -2.456   4.762  0.00  0.00    +0.024 C 
ENDBRANCH   1  27
TORSDOF 3
