REMARK  Name = ZINC33331666
REMARK  8 active torsions:
REMARK  status: ('A' for Active; 'I' for Inactive)
REMARK    1  A    between atoms: C_1  and  C_2
REMARK    2  A    between atoms: C_2  and  O_3
REMARK    3  A    between atoms: O_3  and  C_4
REMARK    4  A    between atoms: C_7  and  N_10
REMARK    5  A    between atoms: C_19  and  C_20
REMARK    6  A    between atoms: C_19  and  C_21
REMARK    7  A    between atoms: N_23  and  C_24
REMARK    8  A    between atoms: C_30  and  C_32
REMARK                            x       y       z     vdW  Elec       q    Type
REMARK                         _______ _______ _______ _____ _____    ______ ____
ROOT
ATOM      1  N   UNL     1      -3.145   1.357   3.067  0.00  0.00    -0.250 N 
ATOM      2  C   UNL     1      -3.186   2.704   2.931  0.00  0.00    +0.268 C 
ATOM      3  O   UNL     1      -2.391   3.431   3.499  0.00  0.00    -0.268 OA
ATOM      4  C   UNL     1      -4.242   3.238   2.063  0.00  0.00    +0.107 A 
ATOM      5  C   UNL     1      -4.442   4.498   1.582  0.00  0.00    +0.048 A 
ATOM      6  C   UNL     1      -5.582   4.457   0.788  0.00  0.00    +0.038 A 
ATOM      7  C   UNL     1      -6.099   3.153   0.777  0.00  0.00    +0.057 A 
ATOM      8  N   UNL     1      -5.254   2.413   1.584  0.00  0.00    -0.333 N 
ATOM      9  C   UNL     1      -5.331   0.995   1.941  0.00  0.00    +0.158 C 
ATOM     10  C   UNL     1      -3.921   0.469   2.210  0.00  0.00    +0.133 C 
ATOM     11  C   UNL     1      -4.025  -0.900   2.886  0.00  0.00    +0.044 C 
ATOM     12  C   UNL     1      -7.255   2.966   0.005  0.00  0.00    +0.034 A 
ATOM     13  C   UNL     1      -7.801   4.004  -0.664  0.00  0.00    +0.048 A 
ATOM     14  S   UNL     1      -6.706   5.352  -0.252  0.00  0.00    -0.095 S 
ENDROOT
BRANCH   1  18
ATOM     15  C   UNL     1      -0.722  -0.302   6.027  0.00  0.00    +0.121 A 
ATOM     16  C   UNL     1      -0.148   0.282   4.907  0.00  0.00    +0.047 A 
ATOM     17  C   UNL     1      -0.949   0.831   3.926  0.00  0.00    +0.027 A 
ATOM     18  C   UNL     1      -2.331   0.800   4.061  0.00  0.00    +0.038 A 
ATOM     19  C   UNL     1      -2.905   0.222   5.185  0.00  0.00    +0.027 A 
ATOM     20  C   UNL     1      -2.103  -0.333   6.162  0.00  0.00    +0.047 A 
BRANCH  15  21
ATOM     21  O   UNL     1       0.068  -0.843   6.992  0.00  0.00    -0.492 OA
BRANCH  21  23
ATOM     22  C   UNL     1       0.453  -1.980   9.089  0.00  0.00    +0.048 C 
ATOM     23  C   UNL     1      -0.591  -1.427   8.117  0.00  0.00    +0.225 C 
ENDBRANCH  21  23
ENDBRANCH  15  21
ENDBRANCH   1  18
BRANCH  10  24
ATOM     24  C   UNL     1      -3.202   0.309   0.895  0.00  0.00    +0.239 C 
ATOM     25  O   UNL     1      -3.835   0.140  -0.125  0.00  0.00    -0.273 OA
ATOM     26  N   UNL     1      -1.856   0.355   0.854  0.00  0.00    -0.310 N 
ATOM     27  H   UNL     1      -1.282   0.509   1.780  0.00  0.00    +0.149 HD
BRANCH  26  28
ATOM     28  C   UNL     1      -1.157   0.200  -0.424  0.00  0.00    +0.076 C 
ATOM     29  C   UNL     1      -0.969  -1.288  -0.725  0.00  0.00    +0.022 C 
ATOM     30  C   UNL     1      -0.143  -1.934   0.390  0.00  0.00    +0.002 C 
ATOM     31  C   UNL     1       1.225  -1.254   0.471  0.00  0.00    +0.000 C 
ATOM     32  C   UNL     1       1.037   0.235   0.772  0.00  0.00    +0.005 C 
ATOM     33  C   UNL     1       0.211   0.880  -0.343  0.00  0.00    +0.006 C 
ATOM     34  C   UNL     1       0.024   2.369  -0.042  0.00  0.00    +0.009 C 
ENDBRANCH  26  28
ENDBRANCH  10  24
TORSDOF 5
