REMARK  Name = ZINC48451590
REMARK  7 active torsions:
REMARK  status: ('A' for Active; 'I' for Inactive)
REMARK    1  A    between atoms: C_1  and  N_2
REMARK    2  A    between atoms: N_2  and  C_3
REMARK    3  A    between atoms: N_2  and  C_4
REMARK    4  A    between atoms: C_4  and  C_6
REMARK    5  A    between atoms: C_4  and  C_19
REMARK    6  A    between atoms: C_6  and  N_7
REMARK    7  A    between atoms: N_10  and  C_11
REMARK                            x       y       z     vdW  Elec       q    Type
REMARK                         _______ _______ _______ _____ _____    ______ ____
ROOT
ATOM      1  N   UNL     1      -1.180  -2.659   1.128  0.00  0.00    -0.300 N 
ATOM      2  C   UNL     1      -1.410  -3.972   1.321  0.00  0.00    +0.304 C 
ATOM      3  O   UNL     1      -2.008  -4.615   0.480  0.00  0.00    -0.253 OA
ATOM      4  N   UNL     1      -0.978  -4.574   2.447  0.00  0.00    -0.268 N 
ATOM      5  H   UNL     1      -0.703  -2.146   1.799  0.00  0.00    +0.150 HD
ATOM      6  H   UNL     1      -0.558  -4.049   3.147  0.00  0.00    +0.156 HD
ENDROOT
BRANCH   4   7
ATOM      7  C   UNL     1      -1.136  -5.956   2.608  0.00  0.00    +0.049 A 
ATOM      8  C   UNL     1      -1.081  -6.795   1.503  0.00  0.00    +0.027 A 
ATOM      9  C   UNL     1      -1.237  -8.158   1.664  0.00  0.00    +0.040 A 
ATOM     10  C   UNL     1      -1.448  -8.689   2.925  0.00  0.00    +0.125 A 
ATOM     11  C   UNL     1      -1.503  -7.854   4.029  0.00  0.00    +0.055 A 
ATOM     12  C   UNL     1      -1.343  -6.490   3.874  0.00  0.00    +0.042 A 
ATOM     13 BR   UNL     1      -1.411  -5.352   5.382  0.00  0.00    -0.048 Br
ATOM     14  F   UNL     1      -1.601 -10.022   3.080  0.00  0.00    -0.205 F 
ENDBRANCH   4   7
BRANCH   1  15
ATOM     15  C   UNL     1      -1.650  -2.005  -0.096  0.00  0.00    +0.098 C 
BRANCH  15  16
ATOM     16  C   UNL     1      -1.375  -0.502  -0.010  0.00  0.00    +0.016 C 
BRANCH  16  17
ATOM     17  C   UNL     1       0.113  -0.265   0.018  0.00  0.00    +0.093 A 
ATOM     18  C   UNL     1       0.870   0.111  -1.028  0.00  0.00    +0.043 A 
ATOM     19  C   UNL     1       2.199   0.216  -0.557  0.00  0.00    +0.041 A 
ATOM     20  C   UNL     1       2.175  -0.102   0.750  0.00  0.00    +0.195 A 
ATOM     21  O   UNL     1       0.908  -0.387   1.094  0.00  0.00    -0.469 OA
ENDBRANCH  16  17
BRANCH  16  23
ATOM     22  C   UNL     1      -1.798   1.494   1.252  0.00  0.00    -0.096 C 
ATOM     23  N   UNL     1      -1.980   0.037   1.216  0.00  0.00    +0.384 N 
ATOM     24  C   UNL     1      -3.415  -0.278   1.232  0.00  0.00    -0.096 C 
ATOM     25  H   UNL     1      -1.535  -0.378   2.021  0.00  0.00    -0.082 HD
ENDBRANCH  16  23
ENDBRANCH  15  16
ENDBRANCH   1  15
TORSDOF 5
