REMARK  Name = ZINC31164090
REMARK  17 active torsions:
REMARK  status: ('A' for Active; 'I' for Inactive)
REMARK    1  A    between atoms: C_1  and  C_2
REMARK    2  A    between atoms: C_2  and  C_3
REMARK    3  A    between atoms: C_2  and  C_4
REMARK    4  A    between atoms: C_8  and  C_42
REMARK    5  A    between atoms: C_10  and  C_12
REMARK    6  A    between atoms: C_13  and  C_14
REMARK    7  A    between atoms: C_13  and  C_16
REMARK    8  A    between atoms: C_14  and  O_15
REMARK    9  A    between atoms: C_16  and  O_18
REMARK   10  A    between atoms: O_18  and  C_19
REMARK   11  A    between atoms: C_19  and  C_20
REMARK   12  A    between atoms: C_20  and  O_41
REMARK   13  A    between atoms: C_23  and  C_38
REMARK   14  A    between atoms: C_33  and  C_35
REMARK   15  A    between atoms: C_38  and  C_39
REMARK   16  A    between atoms: C_38  and  C_40
REMARK   17  A    between atoms: C_42  and  O_43
REMARK                            x       y       z     vdW  Elec       q    Type
REMARK                         _______ _______ _______ _____ _____    ______ ____
ROOT
ATOM      1  C   UNL     1      -1.303  -1.877   0.157  0.00  0.00    +0.268 C 
ENDROOT
BRANCH   1   2
ATOM      2  C   UNL     1      -2.710  -2.460   0.014  0.00  0.00    +0.113 C 
ATOM      3  C   UNL     1      -3.227  -2.203  -1.402  0.00  0.00    +0.039 C 
ATOM      4  C   UNL     1      -4.636  -2.783  -1.543  0.00  0.00    +0.007 C 
ATOM      5  C   UNL     1      -4.587  -4.292  -1.294  0.00  0.00    -0.001 C 
ATOM      6  C   UNL     1      -4.054  -4.564   0.112  0.00  0.00    +0.032 C 
ATOM      7  C   UNL     1      -2.666  -3.968   0.278  0.00  0.00    +0.140 C 
ATOM      8  C   UNL     1      -2.128  -4.231   1.641  0.00  0.00    +0.314 C 
ATOM      9  O   UNL     1      -1.208  -5.006   1.747  0.00  0.00    -0.250 OA
ATOM     10  O   UNL     1      -2.598  -3.666   2.747  0.00  0.00    -0.459 OA
ATOM     11  C   UNL     1      -3.798  -4.184   3.352  0.00  0.00    +0.274 C 
ATOM     12  C   UNL     1      -4.956  -4.025   2.414  0.00  0.00    +0.074 C 
ATOM     13  C   UNL     1      -5.025  -4.159   1.148  0.00  0.00    -0.008 C 
BRANCH  12  14
ATOM     14  C   UNL     1      -6.222  -3.654   3.062  0.00  0.00    +0.386 C 
ATOM     15  O   UNL     1      -7.224  -3.499   2.392  0.00  0.00    -0.241 OA
ATOM     16  O   UNL     1      -6.271  -3.484   4.398  0.00  0.00    -0.241 OA
ENDBRANCH  12  14
BRANCH   5  17
ATOM     17  C   UNL     1      -3.665  -4.949  -2.323  0.00  0.00    -0.013 C 
ATOM     18  C   UNL     1      -3.617  -6.458  -2.075  0.00  0.00    +0.007 C 
ATOM     19  C   UNL     1      -4.200  -4.681  -3.731  0.00  0.00    +0.007 C 
ENDBRANCH   5  17
BRANCH   2  20
ATOM     20  O   UNL     1      -3.582  -1.837   0.960  0.00  0.00    -0.384 OA
ATOM     21  H   UNL     1      -4.641  -2.129   1.006  0.00  0.00    +0.210 HD
ENDBRANCH   2  20
ENDBRANCH   1   2
BRANCH   1  22
ATOM     22  O   UNL     1      -1.344  -0.447  -0.092  0.00  0.00    -0.458 OA
BRANCH  22  23
ATOM     23  C   UNL     1      -0.177   0.223  -0.005  0.00  0.00    +0.337 C 
ATOM     24  O   UNL     1       0.846  -0.372   0.271  0.00  0.00    -0.245 OA
BRANCH  23  26
ATOM     25  C   UNL     1       1.008   2.334  -0.159  0.00  0.00    -0.006 C 
ATOM     26  C   UNL     1      -0.143   1.673  -0.244  0.00  0.00    +0.058 C 
BRANCH  25  32
ATOM     27  C   UNL     1       1.866   4.408   0.893  0.00  0.00    +0.003 C 
ATOM     28  C   UNL     1       3.340   4.086   0.614  0.00  0.00    +0.009 C 
ATOM     29  C   UNL     1       3.785   4.882  -0.615  0.00  0.00    +0.033 C 
ATOM     30  C   UNL     1       2.800   4.702  -1.732  0.00  0.00    -0.048 C 
ATOM     31  C   UNL     1       1.596   4.252  -1.572  0.00  0.00    -0.018 C 
ATOM     32  C   UNL     1       1.022   3.838  -0.249  0.00  0.00    +0.038 C 
BRANCH  27  34
ATOM     33  C   UNL     1       2.322   4.300   3.347  0.00  0.00    +0.007 C 
ATOM     34  C   UNL     1       1.438   3.771   2.216  0.00  0.00    -0.013 C 
ATOM     35  C   UNL     1      -0.023   4.125   2.503  0.00  0.00    +0.007 C 
ENDBRANCH  27  34
BRANCH  30  36
ATOM     36  C   UNL     1       3.238   5.066  -3.127  0.00  0.00    +0.186 C 
BRANCH  36  37
ATOM     37  O   UNL     1       2.167   4.825  -4.042  0.00  0.00    -0.391 OA
ATOM     38  H   UNL     1       2.302   5.034  -5.113  0.00  0.00    +0.210 HD
ENDBRANCH  36  37
ENDBRANCH  30  36
ENDBRANCH  25  32
BRANCH  26  39
ATOM     39  C   UNL     1      -1.411   2.409  -0.593  0.00  0.00    +0.198 C 
BRANCH  39  40
ATOM     40  O   UNL     1      -2.039   1.774  -1.708  0.00  0.00    -0.390 OA
ATOM     41  H   UNL     1      -2.983   2.173  -2.108  0.00  0.00    +0.210 HD
ENDBRANCH  39  40
ENDBRANCH  26  39
ENDBRANCH  23  26
ENDBRANCH  22  23
ENDBRANCH   1  22
TORSDOF 13
