REMARK  Name = ZINC37130061
REMARK  4 active torsions:
REMARK  status: ('A' for Active; 'I' for Inactive)
REMARK    1  A    between atoms: C_1  and  C_2
REMARK    2  A    between atoms: C_2  and  C_4
REMARK    3  A    between atoms: C_2  and  N_12
REMARK    4  A    between atoms: N_12  and  C_13
REMARK                            x       y       z     vdW  Elec       q    Type
REMARK                         _______ _______ _______ _____ _____    ______ ____
ROOT
ATOM      1  N   UNL     1      -1.372  -0.511   0.012  0.00  0.00    -0.337 N 
ATOM      2  H   UNL     1      -1.794  -0.752   0.852  0.00  0.00    +0.147 HD
ENDROOT
BRANCH   1   3
ATOM      3  C   UNL     1      -2.076  -0.648  -1.188  0.00  0.00    +0.030 A 
ATOM      4  C   UNL     1      -1.470  -0.307  -2.392  0.00  0.00    +0.026 A 
ATOM      5  C   UNL     1      -2.160  -0.440  -3.580  0.00  0.00    +0.050 A 
ATOM      6  C   UNL     1      -3.463  -0.913  -3.576  0.00  0.00    +0.157 A 
ATOM      7  C   UNL     1      -4.074  -1.256  -2.370  0.00  0.00    +0.089 A 
ATOM      8  C   UNL     1      -3.378  -1.128  -1.178  0.00  0.00    +0.052 A 
ATOM      9  N   UNL     1      -5.361  -1.692  -2.684  0.00  0.00    -0.288 N 
ATOM     10  H   UNL     1      -6.032  -1.998  -2.054  0.00  0.00    +0.172 HD
ATOM     11  C   UNL     1      -5.502  -1.609  -4.022  0.00  0.00    +0.419 A 
ATOM     12  O   UNL     1      -6.503  -1.910  -4.642  0.00  0.00    -0.223 OA
ATOM     13  O   UNL     1      -4.366  -1.142  -4.563  0.00  0.00    -0.408 OA
ENDBRANCH   1   3
BRANCH   1  15
ATOM     14  C   UNL     1      -0.019   1.526   0.010  0.00  0.00    +0.033 C 
ATOM     15  C   UNL     1       0.002  -0.004   0.002  0.00  0.00    +0.098 C 
BRANCH  15  16
ATOM     16  C   UNL     1       0.731  -0.503   1.223  0.00  0.00    -0.026 A 
ATOM     17  C   UNL     1       0.080  -0.558   2.442  0.00  0.00    +0.007 A 
ATOM     18  C   UNL     1       0.748  -1.016   3.562  0.00  0.00    +0.022 A 
ATOM     19  C   UNL     1       2.067  -1.419   3.465  0.00  0.00    +0.059 A 
ATOM     20  C   UNL     1       2.719  -1.364   2.244  0.00  0.00    +0.060 A 
ATOM     21  C   UNL     1       2.048  -0.911   1.123  0.00  0.00    +0.027 A 
ATOM     22 CL   UNL     1       4.375  -1.869   2.120  0.00  0.00    -0.082 Cl
ATOM     23 CL   UNL     1       2.906  -1.993   4.872  0.00  0.00    -0.082 Cl
ENDBRANCH  15  16
ENDBRANCH   1  15
TORSDOF 3
