REMARK  Name = ZINC09716185
REMARK  6 active torsions:
REMARK  status: ('A' for Active; 'I' for Inactive)
REMARK    1  A    between atoms: N_11  and  C_14
REMARK    2  A    between atoms: C_14  and  C_15
REMARK    3  A    between atoms: N_17  and  C_18
REMARK    4  A    between atoms: C_18  and  C_19
REMARK    5  A    between atoms: C_19  and  N_20
REMARK    6  A    between atoms: C_24  and  C_25
REMARK                            x       y       z     vdW  Elec       q    Type
REMARK                         _______ _______ _______ _____ _____    ______ ____
ROOT
ATOM      1  C   UNL     1      -0.850   0.942   0.313  0.00  0.00    +0.235 C 
ATOM      2  O   UNL     1       0.130   0.281   0.583  0.00  0.00    -0.274 OA
ATOM      3  N   UNL     1      -0.725   2.259   0.058  0.00  0.00    -0.312 N 
ATOM      4  H   UNL     1      -1.509   2.788  -0.161  0.00  0.00    +0.149 HD
ENDROOT
BRANCH   1   5
ATOM      5  C   UNL     1      -2.208   0.290   0.264  0.00  0.00    +0.240 C 
BRANCH   5  16
ATOM      6  C   UNL     1      -1.790  -5.681   2.719  0.00  0.00    +0.001 A 
ATOM      7  C   UNL     1      -2.008  -4.785   3.751  0.00  0.00    +0.001 A 
ATOM      8  C   UNL     1      -2.136  -3.431   3.492  0.00  0.00    +0.014 A 
ATOM      9  C   UNL     1      -2.044  -2.971   2.186  0.00  0.00    +0.053 A 
ATOM     10  C   UNL     1      -1.822  -3.883   1.135  0.00  0.00    +0.053 A 
ATOM     11  C   UNL     1      -1.695  -5.237   1.411  0.00  0.00    +0.014 A 
ATOM     12  C   UNL     1      -1.728  -3.361  -0.246  0.00  0.00    +0.271 A 
ATOM     13  O   UNL     1      -1.536  -4.120  -1.176  0.00  0.00    -0.266 OA
ATOM     14  N   UNL     1      -1.857  -2.038  -0.465  0.00  0.00    -0.260 N 
ATOM     15  H   UNL     1      -1.795  -1.703  -1.373  0.00  0.00    +0.190 HD
ATOM     16  N   UNL     1      -2.078  -1.135   0.576  0.00  0.00    -0.240 N 
ATOM     17  C   UNL     1      -2.169  -1.534   1.860  0.00  0.00    +0.274 A 
ATOM     18  O   UNL     1      -2.357  -0.720   2.742  0.00  0.00    -0.266 OA
ENDBRANCH   5  16
ENDBRANCH   1   5
BRANCH   3  19
ATOM     19  C   UNL     1       0.595   2.893   0.106  0.00  0.00    +0.123 C 
BRANCH  19  20
ATOM     20  C   UNL     1       0.459   4.381  -0.220  0.00  0.00    +0.136 C 
BRANCH  20  21
ATOM     21  N   UNL     1       1.779   5.014  -0.172  0.00  0.00    -0.227 N 
ATOM     22  C   UNL     1       2.513   5.062  -1.271  0.00  0.00    +0.260 C 
ATOM     23  O   UNL     1       2.120   4.593  -2.323  0.00  0.00    -0.269 OA
ATOM     24  C   UNL     1       3.834   5.715  -1.156  0.00  0.00    +0.080 C 
ATOM     25  C   UNL     1       4.788   5.908  -2.101  0.00  0.00    +0.028 C 
ATOM     26  S   UNL     1       3.829   6.179   0.570  0.00  0.00    -0.026 S 
ATOM     27  C   UNL     1       2.216   5.540   0.991  0.00  0.00    +0.286 C 
ATOM     28  O   UNL     1       1.649   5.570   2.066  0.00  0.00    -0.262 OA
BRANCH  25  29
ATOM     29  C   UNL     1       5.964   6.735  -1.799  0.00  0.00    -0.024 A 
ATOM     30  C   UNL     1       6.020   7.471  -0.610  0.00  0.00    +0.009 A 
ATOM     31  C   UNL     1       7.129   8.240  -0.331  0.00  0.00    +0.020 A 
ATOM     32  C   UNL     1       8.182   8.295  -1.229  0.00  0.00    +0.041 A 
ATOM     33  C   UNL     1       8.132   7.573  -2.411  0.00  0.00    +0.020 A 
ATOM     34  C   UNL     1       7.032   6.795  -2.701  0.00  0.00    +0.009 A 
ATOM     35 CL   UNL     1       9.572   9.272  -0.872  0.00  0.00    -0.084 Cl
ENDBRANCH  25  29
ENDBRANCH  20  21
ENDBRANCH  19  20
ENDBRANCH   3  19
TORSDOF 6
