REMARK  Name = ZINC40723007
REMARK  4 active torsions:
REMARK  status: ('A' for Active; 'I' for Inactive)
REMARK    1  A    between atoms: C_10  and  N_11
REMARK    2  A    between atoms: C_13  and  N_26
REMARK    3  A    between atoms: C_14  and  S_18
REMARK    4  A    between atoms: S_18  and  C_19
REMARK                            x       y       z     vdW  Elec       q    Type
REMARK                         _______ _______ _______ _____ _____    ______ ____
ROOT
ATOM      1  N   UNL     1       4.870   0.096  -0.043  0.00  0.00    -0.297 N 
ATOM      2  C   UNL     1       6.082  -0.578   0.047  0.00  0.00    +0.148 A 
ATOM      3  C   UNL     1       7.281   0.130   0.151  0.00  0.00    +0.098 A 
ATOM      4  C   UNL     1       8.470  -0.597   0.239  0.00  0.00    +0.127 A 
ATOM      5  N   UNL     1       8.416  -1.927   0.221  0.00  0.00    -0.227 NA
ATOM      6  C   UNL     1       7.263  -2.556   0.122  0.00  0.00    +0.224 A 
ATOM      7  N   UNL     1       6.118  -1.909   0.042  0.00  0.00    -0.219 NA
ATOM      8  H   UNL     1       4.857   1.063  -0.122  0.00  0.00    +0.154 HD
ENDROOT
BRANCH   1  18
ATOM      9  C   UNL     1       0.199   0.947  -1.754  0.00  0.00    +0.001 A 
ATOM     10  C   UNL     1       1.386   1.676  -1.788  0.00  0.00    +0.001 A 
ATOM     11  C   UNL     1       2.526   1.184  -1.230  0.00  0.00    +0.010 A 
ATOM     12  C   UNL     1       2.510  -0.075  -0.611  0.00  0.00    +0.003 A 
ATOM     13  C   UNL     1       1.304  -0.818  -0.576  0.00  0.00    -0.016 A 
ATOM     14  C   UNL     1       0.146  -0.278  -1.163  0.00  0.00    +0.008 A 
ATOM     15  C   UNL     1       1.286  -2.079   0.044  0.00  0.00    +0.008 A 
ATOM     16  C   UNL     1       2.422  -2.577   0.606  0.00  0.00    +0.002 A 
ATOM     17  C   UNL     1       3.612  -1.857   0.578  0.00  0.00    +0.024 A 
ATOM     18  C   UNL     1       3.672  -0.617  -0.021  0.00  0.00    +0.040 A 
ENDBRANCH   1  18
BRANCH   3  19
ATOM     19  N   UNL     1       7.291   1.533   0.166  0.00  0.00    -0.353 N 
ATOM     20  H   UNL     1       6.457   2.025   0.103  0.00  0.00    +0.142 HD
ATOM     21  H   UNL     1       8.132   2.012   0.238  0.00  0.00    +0.142 HD
ENDBRANCH   3  19
BRANCH   4  22
ATOM     22  S   UNL     1      10.019   0.233   0.372  0.00  0.00    -0.068 S 
BRANCH  22  23
ATOM     23  C   UNL     1      11.207  -1.067   0.305  0.00  0.00    +0.014 A 
ATOM     24  C   UNL     1      11.649  -1.542  -0.923  0.00  0.00    +0.016 A 
ATOM     25  C   UNL     1      12.580  -2.561  -0.973  0.00  0.00    +0.021 A 
ATOM     26  C   UNL     1      13.072  -3.108   0.199  0.00  0.00    +0.041 A 
ATOM     27  C   UNL     1      12.632  -2.637   1.424  0.00  0.00    +0.021 A 
ATOM     28  C   UNL     1      11.707  -1.614   1.480  0.00  0.00    +0.016 A 
ATOM     29 CL   UNL     1      14.242  -4.389   0.133  0.00  0.00    -0.084 Cl
ENDBRANCH  22  23
ENDBRANCH   4  22
TORSDOF 4
