REMARK  Name = ZINC20477494
REMARK  4 active torsions:
REMARK  status: ('A' for Active; 'I' for Inactive)
REMARK    1  A    between atoms: C_1  and  C_2
REMARK    2  A    between atoms: C_5  and  N_8
REMARK    3  A    between atoms: C_24  and  C_30
REMARK    4  A    between atoms: C_30  and  C_32
REMARK                            x       y       z     vdW  Elec       q    Type
REMARK                         _______ _______ _______ _____ _____    ______ ____
ROOT
ATOM      1  N   UNL     1       0.059  -4.172  -0.021  0.00  0.00    -0.210 N 
ATOM      2  C   UNL     1       0.069  -4.934   1.112  0.00  0.00    +0.232 C 
ATOM      3  O   UNL     1      -0.212  -4.577   2.236  0.00  0.00    -0.274 OA
ATOM      4  C   UNL     1       0.502  -6.311   0.678  0.00  0.00    +0.115 C 
ATOM      5  C   UNL     1      -0.210  -7.536   1.228  0.00  0.00    +0.117 C 
ATOM      6  C   UNL     1       0.494  -8.175   2.378  0.00  0.00    -0.019 A 
ATOM      7  C   UNL     1       1.024  -7.405   3.394  0.00  0.00    +0.006 A 
ATOM      8  C   UNL     1       1.660  -8.004   4.466  0.00  0.00    +0.000 A 
ATOM      9  C   UNL     1       1.771  -9.382   4.532  0.00  0.00    +0.001 A 
ATOM     10  C   UNL     1       1.254 -10.165   3.522  0.00  0.00    +0.008 A 
ATOM     11  C   UNL     1       0.618  -9.568   2.431  0.00  0.00    -0.019 A 
ATOM     12  C   UNL     1       0.109 -10.409   1.332  0.00  0.00    +0.023 C 
ATOM     13  C   UNL     1      -0.317  -9.844   0.191  0.00  0.00    +0.072 C 
ATOM     14  N   UNL     1      -0.248  -8.474   0.079  0.00  0.00    -0.317 N 
ATOM     15  C   UNL     1      -0.185  -7.673  -1.175  0.00  0.00    +0.158 C 
ATOM     16  C   UNL     1      -0.233  -6.266  -0.724  0.00  0.00    +0.118 C 
ATOM     17  C   UNL     1       0.062  -4.926  -1.169  0.00  0.00    +0.232 C 
ATOM     18  O   UNL     1       0.269  -4.550  -2.303  0.00  0.00    -0.274 OA
ENDROOT
BRANCH   1  23
ATOM     19  C   UNL     1      -0.018   1.503   0.010  0.00  0.00    +0.044 C 
ATOM     20  C   UNL     1       0.002  -0.004   0.002  0.00  0.00    -0.050 A 
ATOM     21  C   UNL     1       0.006  -0.688  -1.200  0.00  0.00    +0.005 A 
ATOM     22  C   UNL     1       0.025  -2.068  -1.211  0.00  0.00    +0.024 A 
ATOM     23  C   UNL     1       0.040  -2.771  -0.013  0.00  0.00    +0.044 A 
ATOM     24  C   UNL     1       0.037  -2.082   1.192  0.00  0.00    +0.024 A 
ATOM     25  C   UNL     1       0.023  -0.700   1.196  0.00  0.00    +0.005 A 
ENDBRANCH   1  23
BRANCH  15  26
ATOM     26  C   UNL     1       1.114  -7.924  -1.897  0.00  0.00    +0.191 C 
ATOM     27  O   UNL     1       2.026  -8.489  -1.328  0.00  0.00    -0.289 OA
BRANCH  26  28
ATOM     28  C   UNL     1       1.271  -7.500  -3.235  0.00  0.00    +0.056 A 
ATOM     29  C   UNL     1       2.372  -7.636  -4.075  0.00  0.00    +0.019 A 
ATOM     30  C   UNL     1       2.225  -7.119  -5.337  0.00  0.00    +0.008 A 
ATOM     31  C   UNL     1       1.051  -6.525  -5.675  0.00  0.00    +0.046 A 
ATOM     32  S   UNL     1       0.107  -6.659  -4.292  0.00  0.00    -0.094 S 
ENDBRANCH  26  28
ENDBRANCH  15  26
TORSDOF 3
