REMARK  Name = ZINC33164384
REMARK  7 active torsions:
REMARK  status: ('A' for Active; 'I' for Inactive)
REMARK    1  A    between atoms: C_1  and  C_2
REMARK    2  A    between atoms: N_7  and  C_8
REMARK    3  A    between atoms: C_15  and  C_17
REMARK    4  A    between atoms: C_17  and  C_18
REMARK    5  A    between atoms: C_18  and  N_19
REMARK    6  A    between atoms: C_20  and  C_22
REMARK    7  A    between atoms: C_25  and  C_27
REMARK                            x       y       z     vdW  Elec       q    Type
REMARK                         _______ _______ _______ _____ _____    ______ ____
ROOT
ATOM      1  C   UNL     1      -1.579  -3.053   2.433  0.00  0.00    +0.044 C 
ATOM      2  C   UNL     1      -1.716  -1.569   2.657  0.00  0.00    -0.046 A 
ATOM      3  C   UNL     1      -2.459  -1.086   3.750  0.00  0.00    +0.021 A 
ATOM      4  C   UNL     1      -2.588   0.239   3.958  0.00  0.00    +0.096 A 
ATOM      5  N   UNL     1      -1.999   1.140   3.110  0.00  0.00    -0.273 N 
ATOM      6  C   UNL     1      -1.264   0.696   2.028  0.00  0.00    +0.114 A 
ATOM      7  N   UNL     1      -0.698   1.558   1.213  0.00  0.00    -0.368 N 
ATOM      8  C   UNL     1      -1.128  -0.695   1.801  0.00  0.00    +0.048 A 
ATOM      9  C   UNL     1      -2.138   2.462   3.332  0.00  0.00    +0.234 C 
ATOM     10  O   UNL     1      -1.618   3.261   2.582  0.00  0.00    -0.272 OA
ATOM     11  H   UNL     1      -0.889   2.635   1.333  0.00  0.00    +0.161 HD
ENDROOT
BRANCH   7  12
ATOM     12  C   UNL     1       0.185   1.085   0.145  0.00  0.00    +0.081 C 
ATOM     13  C   UNL     1      -0.422   1.442  -1.214  0.00  0.00    +0.024 C 
ATOM     14  C   UNL     1       0.501   0.948  -2.330  0.00  0.00    +0.002 C 
ATOM     15  C   UNL     1       1.871   1.616  -2.192  0.00  0.00    +0.000 C 
ATOM     16  C   UNL     1       2.478   1.259  -0.834  0.00  0.00    +0.002 C 
ATOM     17  C   UNL     1       1.555   1.753   0.282  0.00  0.00    +0.024 C 
ENDBRANCH   7  12
BRANCH   9  18
ATOM     18  C   UNL     1      -2.940   2.948   4.511  0.00  0.00    +0.118 C 
BRANCH  18  19
ATOM     19  C   UNL     1      -2.941   4.478   4.533  0.00  0.00    +0.113 C 
BRANCH  19  20
ATOM     20  N   UNL     1      -3.720   4.950   5.679  0.00  0.00    -0.315 N 
ATOM     21  C   UNL     1      -3.860   6.272   5.901  0.00  0.00    +0.216 C 
ATOM     22  O   UNL     1      -3.339   7.071   5.151  0.00  0.00    -0.276 OA
ATOM     23  H   UNL     1      -4.192   4.226   6.360  0.00  0.00    +0.149 HD
BRANCH  21  24
ATOM     24  C   UNL     1      -4.662   6.758   7.081  0.00  0.00    +0.078 C 
ATOM     25  C   UNL     1      -3.901   7.445   8.217  0.00  0.00    +0.017 C 
ATOM     26  C   UNL     1      -4.783   8.271   7.278  0.00  0.00    -0.002 C 
ATOM     27  C   UNL     1      -6.102   8.807   7.837  0.00  0.00    +0.008 C 
ENDBRANCH  21  24
ENDBRANCH  19  20
ENDBRANCH  18  19
ENDBRANCH   9  18
TORSDOF 5
