REMARK  Name = ZINC09185422
REMARK  2 active torsions:
REMARK  status: ('A' for Active; 'I' for Inactive)
REMARK    1  A    between atoms: C_10  and  C_24
REMARK    2  A    between atoms: C_13  and  C_16
REMARK                            x       y       z     vdW  Elec       q    Type
REMARK                         _______ _______ _______ _____ _____    ______ ____
ROOT
ATOM      1  C   UNL     1      -4.861   1.860  -1.186  0.00  0.00    +0.001 A 
ATOM      2  C   UNL     1      -4.122   1.952  -2.351  0.00  0.00    +0.004 A 
ATOM      3  C   UNL     1      -2.749   1.847  -2.309  0.00  0.00    +0.046 A 
ATOM      4  C   UNL     1      -2.089   1.646  -1.097  0.00  0.00    +0.129 A 
ATOM      5  C   UNL     1      -2.841   1.538   0.064  0.00  0.00    +0.017 A 
ATOM      6  C   UNL     1      -4.217   1.654   0.019  0.00  0.00    +0.009 A 
ATOM      7  C   UNL     1      -2.168   1.267   1.384  0.00  0.00    +0.136 C 
ATOM      8  C   UNL     1      -2.587   2.278   2.460  0.00  0.00    +0.086 C 
ATOM      9  C   UNL     1      -1.270   2.836   2.960  0.00  0.00    +0.069 C 
ATOM     10  N   UNL     1      -0.306   2.388   2.225  0.00  0.00    -0.185 NA
ATOM     11  N   UNL     1      -0.729   1.574   1.193  0.00  0.00    -0.205 N 
ATOM     12  C   UNL     1      -0.013   1.086   0.008  0.00  0.00    +0.310 C 
ATOM     13  O   UNL     1      -0.734   1.574  -1.129  0.00  0.00    -0.465 OA
ENDROOT
BRANCH   9  14
ATOM     14  C   UNL     1      -1.113   3.748   4.108  0.00  0.00    +0.001 A 
ATOM     15  C   UNL     1      -2.234   4.170   4.826  0.00  0.00    +0.013 A 
ATOM     16  C   UNL     1      -2.084   5.019   5.902  0.00  0.00    +0.050 A 
ATOM     17  C   UNL     1      -0.822   5.466   6.269  0.00  0.00    +0.166 A 
ATOM     18  C   UNL     1       0.300   5.054   5.552  0.00  0.00    +0.167 A 
ATOM     19  C   UNL     1       0.157   4.198   4.476  0.00  0.00    +0.059 A 
ATOM     20  O   UNL     1       1.407   5.628   6.108  0.00  0.00    -0.453 OA
ATOM     21  C   UNL     1       0.913   6.716   6.912  0.00  0.00    +0.466 C 
ATOM     22  O   UNL     1      -0.417   6.298   7.272  0.00  0.00    -0.453 OA
ENDBRANCH   9  14
BRANCH  12  23
ATOM     23  C   UNL     1       1.396   1.622  -0.003  0.00  0.00    +0.015 A 
ATOM     24  C   UNL     1       2.405   0.902  -0.615  0.00  0.00    +0.010 A 
ATOM     25  C   UNL     1       3.697   1.392  -0.626  0.00  0.00    +0.023 A 
ATOM     26  C   UNL     1       3.982   2.604  -0.024  0.00  0.00    +0.076 A 
ATOM     27  C   UNL     1       2.971   3.327   0.590  0.00  0.00    +0.142 A 
ATOM     28  C   UNL     1       1.677   2.836   0.595  0.00  0.00    +0.048 A 
ATOM     29  F   UNL     1       3.248   4.511   1.179  0.00  0.00    -0.204 F 
ATOM     30 CL   UNL     1       5.605   3.220  -0.037  0.00  0.00    -0.081 Cl
ENDBRANCH  12  23
TORSDOF 2
