REMARK  Name = ZINC08845178
REMARK  12 active torsions:
REMARK  status: ('A' for Active; 'I' for Inactive)
REMARK    1  A    between atoms: C_1  and  C_2
REMARK    2  A    between atoms: C_2  and  O_3
REMARK    3  A    between atoms: O_3  and  C_4
REMARK    4  A    between atoms: C_6  and  C_11
REMARK    5  A    between atoms: C_9  and  O_10
REMARK    6  A    between atoms: C_14  and  C_31
REMARK    7  A    between atoms: N_21  and  C_22
REMARK    8  A    between atoms: C_22  and  C_23
REMARK    9  A    between atoms: C_26  and  O_29
REMARK   10  A    between atoms: O_29  and  C_30
REMARK   11  A    between atoms: C_34  and  C_38
REMARK   12  A    between atoms: C_36  and  O_37
REMARK                            x       y       z     vdW  Elec       q    Type
REMARK                         _______ _______ _______ _____ _____    ______ ____
ROOT
ATOM      1  C   UNL     1       0.636  -4.880   0.178  0.00  0.00    +0.142 C 
ATOM      2  C   UNL     1       0.794  -5.607   1.485  0.00  0.00    +0.035 A 
ATOM      3  C   UNL     1       0.981  -5.520   2.869  0.00  0.00    +0.102 A 
ATOM      4  N   UNL     1       1.016  -6.750   3.341  0.00  0.00    -0.173 NA
ATOM      5  N   UNL     1       0.869  -7.606   2.393  0.00  0.00    -0.272 N 
ATOM      6  H   UNL     1       0.861  -8.569   2.509  0.00  0.00    +0.189 HD
ATOM      7  C   UNL     1       0.724  -6.957   1.200  0.00  0.00    +0.126 A 
ATOM      8  C   UNL     1       0.527  -7.119  -0.245  0.00  0.00    +0.266 C 
ATOM      9  O   UNL     1       0.425  -8.188  -0.817  0.00  0.00    -0.268 OA
ATOM     10  N   UNL     1       0.475  -5.917  -0.849  0.00  0.00    -0.281 N 
ENDROOT
BRANCH   3  11
ATOM     11  C   UNL     1       1.117  -4.271   3.660  0.00  0.00    +0.045 A 
ATOM     12  C   UNL     1       1.190  -3.039   3.014  0.00  0.00    +0.034 A 
ATOM     13  C   UNL     1       1.316  -1.880   3.755  0.00  0.00    +0.045 A 
ATOM     14  C   UNL     1       1.372  -1.939   5.137  0.00  0.00    -0.029 A 
ATOM     15  C   UNL     1       1.301  -3.156   5.786  0.00  0.00    +0.050 A 
ATOM     16  C   UNL     1       1.168  -4.326   5.055  0.00  0.00    +0.126 A 
ATOM     17  C   UNL     1       1.510  -0.669   5.937  0.00  0.00    +0.045 C 
ATOM     18 CL   UNL     1       1.407  -0.345   2.949  0.00  0.00    -0.083 Cl
BRANCH  16  19
ATOM     19  O   UNL     1       1.092  -5.524   5.693  0.00  0.00    -0.506 OA
ATOM     20  H   UNL     1       1.950  -5.944   5.843  0.00  0.00    +0.292 HD
ENDBRANCH  16  19
ENDBRANCH   3  11
BRANCH   1  23
ATOM     21  C   UNL     1      -2.968  -3.754   0.291  0.00  0.00    +0.162 A 
ATOM     22  C   UNL     1      -1.845  -4.564   0.252  0.00  0.00    +0.055 A 
ATOM     23  C   UNL     1      -0.584  -3.997   0.220  0.00  0.00    -0.019 A 
ATOM     24  C   UNL     1      -0.441  -2.622   0.227  0.00  0.00    +0.009 A 
ATOM     25  C   UNL     1      -1.558  -1.808   0.265  0.00  0.00    +0.049 A 
ATOM     26  C   UNL     1      -2.824  -2.369   0.291  0.00  0.00    +0.158 A 
BRANCH  26  27
ATOM     27  O   UNL     1      -3.924  -1.570   0.323  0.00  0.00    -0.503 OA
ATOM     28  H   UNL     1      -4.218  -1.342   1.216  0.00  0.00    +0.292 HD
ENDBRANCH  26  27
BRANCH  21  29
ATOM     29  O   UNL     1      -4.209  -4.310   0.322  0.00  0.00    -0.489 OA
BRANCH  29  31
ATOM     30  C   UNL     1      -5.743  -6.169   0.490  0.00  0.00    +0.048 C 
ATOM     31  C   UNL     1      -4.279  -5.735   0.400  0.00  0.00    +0.226 C 
ENDBRANCH  29  31
ENDBRANCH  21  29
ENDBRANCH   1  23
BRANCH  10  32
ATOM     32  C   UNL     1       0.289  -5.682  -2.283  0.00  0.00    +0.144 C 
BRANCH  32  33
ATOM     33  C   UNL     1       1.634  -5.635  -2.963  0.00  0.00    -0.030 A 
ATOM     34  C   UNL     1       2.304  -4.431  -3.083  0.00  0.00    +0.009 A 
ATOM     35  C   UNL     1       3.536  -4.385  -3.705  0.00  0.00    +0.046 A 
ATOM     36  C   UNL     1       4.101  -5.546  -4.211  0.00  0.00    +0.120 A 
ATOM     37  C   UNL     1       3.427  -6.753  -4.089  0.00  0.00    +0.046 A 
ATOM     38  C   UNL     1       2.197  -6.795  -3.461  0.00  0.00    +0.009 A 
BRANCH  36  39
ATOM     39  O   UNL     1       5.313  -5.503  -4.824  0.00  0.00    -0.495 OA
ATOM     40  C   UNL     1       5.833  -6.738  -5.320  0.00  0.00    +0.277 C 
ENDBRANCH  36  39
ENDBRANCH  32  33
ENDBRANCH  10  32
TORSDOF 9
