REMARK  Name = ZINC38661949
REMARK  15 active torsions:
REMARK  status: ('A' for Active; 'I' for Inactive)
REMARK    1  A    between atoms: C_1  and  C_2
REMARK    2  A    between atoms: C_5  and  N_9
REMARK    3  A    between atoms: C_6  and  C_8
REMARK    4  A    between atoms: C_10  and  C_12
REMARK    5  A    between atoms: C_12  and  S_13
REMARK    6  A    between atoms: S_13  and  C_14
REMARK    7  A    between atoms: C_18  and  C_21
REMARK    8  A    between atoms: C_21  and  C_23
REMARK    9  A    between atoms: C_21  and  N_33
REMARK   10  A    between atoms: C_23  and  C_24
REMARK   11  A    between atoms: C_34  and  O_36
REMARK   12  A    between atoms: O_36  and  C_37
REMARK   13  A    between atoms: C_37  and  C_38
REMARK   14  A    between atoms: C_37  and  C_39
REMARK   15  A    between atoms: C_37  and  C_40
REMARK                            x       y       z     vdW  Elec       q    Type
REMARK                         _______ _______ _______ _____ _____    ______ ____
ROOT
ATOM      1  C   UNL     1      -1.375 -11.543  -1.915  0.00  0.00    +0.133 C 
ENDROOT
BRANCH   1   5
ATOM      2  C   UNL     1      -0.373  -8.740  -2.726  0.00  0.00    +0.319 C 
ATOM      3  N   UNL     1       0.797  -9.244  -1.996  0.00  0.00    -0.146 NA
ATOM      4  N   UNL     1       0.445 -10.074  -1.149  0.00  0.00    -0.155 NA
ATOM      5  C   UNL     1      -1.013 -10.247  -1.187  0.00  0.00    +0.280 C 
ATOM      6  O   UNL     1      -1.512  -9.106  -1.919  0.00  0.00    -0.316 OA
BRANCH   2   7
ATOM      7  S   UNL     1      -0.278  -6.937  -2.899  0.00  0.00    -0.095 S 
BRANCH   7   8
ATOM      8  C   UNL     1      -0.155  -6.338  -1.192  0.00  0.00    +0.169 C 
BRANCH   8  10
ATOM      9  N   UNL     1       0.032  -4.164  -0.026  0.00  0.00    -0.285 N 
ATOM     10  C   UNL     1      -0.068  -4.833  -1.192  0.00  0.00    +0.227 C 
ATOM     11  O   UNL     1      -0.087  -4.225  -2.241  0.00  0.00    -0.275 OA
ATOM     12  H   UNL     1       0.112  -4.652   0.808  0.00  0.00    +0.155 HD
BRANCH   9  17
ATOM     13  C   UNL     1      -0.021   1.509  -0.002  0.00  0.00    +0.044 C 
ATOM     14  C   UNL     1      -0.007   0.002  -0.009  0.00  0.00    -0.050 A 
ATOM     15  C   UNL     1       0.590  -0.678  -1.054  0.00  0.00    +0.005 A 
ATOM     16  C   UNL     1       0.605  -2.059  -1.063  0.00  0.00    +0.024 A 
ATOM     17  C   UNL     1       0.019  -2.764  -0.020  0.00  0.00    +0.036 A 
ATOM     18  C   UNL     1      -0.579  -2.079   1.028  0.00  0.00    -0.029 A 
ATOM     19  C   UNL     1      -0.586  -0.698   1.034  0.00  0.00    +0.008 A 
ATOM     20  C   UNL     1      -1.216  -2.841   2.162  0.00  0.00    +0.045 C 
ENDBRANCH   9  17
ENDBRANCH   8  10
ENDBRANCH   7   8
ENDBRANCH   2   7
ENDBRANCH   1   5
BRANCH   1  21
ATOM     21  N   UNL     1      -0.731 -11.561  -3.231  0.00  0.00    -0.274 N 
ATOM     22  C   UNL     1      -1.472 -11.737  -4.342  0.00  0.00    +0.401 C 
ATOM     23  O   UNL     1      -2.683 -11.789  -4.263  0.00  0.00    -0.226 OA
ATOM     24  H   UNL     1       0.230 -11.446  -3.301  0.00  0.00    +0.152 HD
BRANCH  22  25
ATOM     25  O   UNL     1      -0.870 -11.855  -5.541  0.00  0.00    -0.445 OA
BRANCH  25  26
ATOM     26  C   UNL     1      -1.718 -12.039  -6.677  0.00  0.00    +0.107 C 
ATOM     27  C   UNL     1      -2.663 -10.843  -6.807  0.00  0.00    +0.055 C 
ATOM     28  C   UNL     1      -0.861 -12.152  -7.939  0.00  0.00    +0.055 C 
ATOM     29  C   UNL     1      -2.536 -13.319  -6.500  0.00  0.00    +0.055 C 
ENDBRANCH  25  26
ENDBRANCH  22  25
ENDBRANCH   1  21
BRANCH   1  30
ATOM     30  C   UNL     1      -0.893 -12.741  -1.094  0.00  0.00    +0.064 C 
BRANCH  30  31
ATOM     31  C   UNL     1      -1.356 -14.017  -1.748  0.00  0.00    -0.020 A 
ATOM     32  C   UNL     1      -0.682 -14.736  -2.832  0.00  0.00    +0.003 A 
ATOM     33  C   UNL     1       0.491 -14.519  -3.557  0.00  0.00    +0.010 A 
ATOM     34  C   UNL     1       0.858 -15.401  -4.534  0.00  0.00    +0.001 A 
ATOM     35  C   UNL     1       0.073 -16.512  -4.812  0.00  0.00    +0.002 A 
ATOM     36  C   UNL     1      -1.089 -16.745  -4.108  0.00  0.00    +0.026 A 
ATOM     37  C   UNL     1      -1.480 -15.860  -3.109  0.00  0.00    +0.047 A 
ATOM     38  N   UNL     1      -2.556 -15.816  -2.251  0.00  0.00    -0.360 N 
ATOM     39  C   UNL     1      -2.462 -14.714  -1.444  0.00  0.00    +0.087 A 
ATOM     40  H   UNL     1      -3.272 -16.470  -2.220  0.00  0.00    +0.165 HD
ENDBRANCH  30  31
ENDBRANCH   1  30
TORSDOF 10
