REMARK  Name = ZINC06954619
REMARK  4 active torsions:
REMARK  status: ('A' for Active; 'I' for Inactive)
REMARK    1  A    between atoms: C_1  and  O_2
REMARK    2  A    between atoms: O_2  and  C_3
REMARK    3  A    between atoms: C_7  and  C_9
REMARK    4  A    between atoms: C_22  and  N_25
REMARK                            x       y       z     vdW  Elec       q    Type
REMARK                         _______ _______ _______ _____ _____    ______ ____
ROOT
ATOM      1  C   UNL     1      -0.910   1.792   6.022  0.00  0.00    +0.105 C 
ATOM      2  C   UNL     1      -1.766   0.643   6.561  0.00  0.00    +0.029 C 
ATOM      3  C   UNL     1      -2.986   0.473   5.614  0.00  0.00    +0.033 C 
ATOM      4  C   UNL     1      -3.960   1.531   6.095  0.00  0.00    -0.030 C 
ATOM      5  C   UNL     1      -3.686   1.881   7.326  0.00  0.00    -0.023 C 
ATOM      6  C   UNL     1      -2.489   1.115   7.840  0.00  0.00    +0.049 C 
ATOM      7  C   UNL     1      -1.610   2.002   8.673  0.00  0.00    -0.017 A 
ATOM      8  C   UNL     1      -2.068   2.378   9.929  0.00  0.00    +0.006 A 
ATOM      9  C   UNL     1      -1.307   3.196  10.739  0.00  0.00    +0.003 A 
ATOM     10  C   UNL     1      -0.075   3.648  10.303  0.00  0.00    +0.034 A 
ATOM     11  C   UNL     1       0.389   3.280   9.059  0.00  0.00    +0.147 A 
ATOM     12  C   UNL     1      -0.377   2.454   8.237  0.00  0.00    +0.062 A 
ATOM     13  N   UNL     1       0.141   2.111   6.988  0.00  0.00    -0.335 N 
ATOM     14  H   UNL     1       0.747   2.838   6.637  0.00  0.00    +0.147 HD
ENDROOT
BRANCH   1  19
ATOM     15  C   UNL     1      -0.260   1.425   2.318  0.00  0.00    +0.120 A 
ATOM     16  C   UNL     1       0.871   0.620   2.316  0.00  0.00    +0.045 A 
ATOM     17  C   UNL     1       1.424   0.206   3.512  0.00  0.00    +0.004 A 
ATOM     18  C   UNL     1       0.846   0.585   4.710  0.00  0.00    +0.006 A 
ATOM     19  C   UNL     1      -0.283   1.382   4.715  0.00  0.00    -0.024 A 
ATOM     20  C   UNL     1      -0.838   1.803   3.521  0.00  0.00    +0.051 A 
BRANCH  15  22
ATOM     21  C   UNL     1      -0.155   1.411  -0.057  0.00  0.00    +0.277 C 
ATOM     22  O   UNL     1      -0.803   1.838   1.143  0.00  0.00    -0.495 OA
ENDBRANCH  15  22
ENDBRANCH   1  19
BRANCH  11  23
ATOM     23  N   UNL     1       1.708   3.764   8.592  0.00  0.00    +0.058 N 
ATOM     24  O   UNL     1       2.426   3.033   7.934  0.00  0.00    -0.126 OA
ATOM     25  O   UNL     1       2.074   4.893   8.865  0.00  0.00    -0.126 OA
ENDBRANCH  11  23
TORSDOF 3
