REMARK  Name = ZINC09420592
REMARK  13 active torsions:
REMARK  status: ('A' for Active; 'I' for Inactive)
REMARK    1  A    between atoms: C_1  and  C_2
REMARK    2  A    between atoms: C_2  and  C_3
REMARK    3  A    between atoms: C_2  and  C_4
REMARK    4  A    between atoms: C_2  and  C_5
REMARK    5  A    between atoms: C_11  and  C_26
REMARK    6  A    between atoms: C_12  and  C_24
REMARK    7  A    between atoms: C_13  and  S_15
REMARK    8  A    between atoms: S_15  and  C_16
REMARK    9  A    between atoms: C_16  and  C_17
REMARK   10  A    between atoms: N_19  and  C_20
REMARK   11  A    between atoms: C_20  and  C_21
REMARK   12  A    between atoms: C_20  and  C_22
REMARK   13  A    between atoms: C_20  and  C_23
REMARK                            x       y       z     vdW  Elec       q    Type
REMARK                         _______ _______ _______ _____ _____    ______ ____
ROOT
ATOM      1  C   UNL     1       1.429   2.027  -0.001  0.00  0.00    -0.001 C 
ATOM      2  C   UNL     1      -0.019   1.523   0.010  0.00  0.00    +0.010 C 
ATOM      3  C   UNL     1       0.002  -0.004   0.002  0.00  0.00    +0.056 C 
ATOM      4  C   UNL     1       0.879  -0.517  -1.112  0.00  0.00    +0.046 A 
ATOM      5  C   UNL     1       1.817   0.279  -1.735  0.00  0.00    -0.013 A 
ATOM      6  C   UNL     1       2.602  -0.256  -2.750  0.00  0.00    +0.080 A 
ATOM      7  C   UNL     1       2.413  -1.591  -3.118  0.00  0.00    +0.095 A 
ATOM      8  C   UNL     1       1.433  -2.339  -2.441  0.00  0.00    +0.116 A 
ATOM      9  N   UNL     1       0.718  -1.782  -1.481  0.00  0.00    -0.244 NA
ATOM     10  C   UNL     1       2.034   1.723  -1.370  0.00  0.00    +0.041 C 
ENDROOT
BRANCH   1  12
ATOM     11  C   UNL     1       0.820   3.838   1.609  0.00  0.00    +0.011 C 
ATOM     12  C   UNL     1       1.451   3.537   0.249  0.00  0.00    -0.035 C 
ATOM     13  C   UNL     1       2.898   4.034   0.237  0.00  0.00    +0.011 C 
ATOM     14  C   UNL     1       0.658   4.247  -0.850  0.00  0.00    +0.011 C 
ENDBRANCH   1  12
BRANCH   6  15
ATOM     15  C   UNL     1       3.638   0.590  -3.444  0.00  0.00    +0.419 C 
ATOM     16  F   UNL     1       3.793   0.150  -4.763  0.00  0.00    -0.166 F 
ATOM     17  F   UNL     1       3.224   1.927  -3.445  0.00  0.00    -0.166 F 
ATOM     18  F   UNL     1       4.858   0.480  -2.768  0.00  0.00    -0.166 F 
ENDBRANCH   6  15
BRANCH   7  19
ATOM     19  C   UNL     1       3.200  -2.183  -4.157  0.00  0.00    +0.102 C 
ATOM     20  N   UNL     1       3.824  -2.652  -4.982  0.00  0.00    -0.191 NA
ENDBRANCH   7  19
BRANCH   8  21
ATOM     21  S   UNL     1       1.159  -4.025  -2.876  0.00  0.00    -0.095 S 
BRANCH  21  22
ATOM     22  C   UNL     1      -0.163  -4.439  -1.711  0.00  0.00    +0.171 C 
BRANCH  22  23
ATOM     23  C   UNL     1      -0.571  -5.876  -1.905  0.00  0.00    +0.224 C 
ATOM     24  O   UNL     1      -0.022  -6.554  -2.747  0.00  0.00    -0.275 OA
ATOM     25  N   UNL     1      -1.546  -6.409  -1.142  0.00  0.00    -0.310 N 
ATOM     26  H   UNL     1      -1.985  -5.866  -0.468  0.00  0.00    +0.149 HD
BRANCH  25  27
ATOM     27  C   UNL     1      -1.943  -7.806  -1.330  0.00  0.00    +0.026 C 
ATOM     28  C   UNL     1      -0.739  -8.716  -1.079  0.00  0.00    +0.031 C 
ATOM     29  C   UNL     1      -3.061  -8.156  -0.346  0.00  0.00    +0.031 C 
ATOM     30  C   UNL     1      -2.444  -8.006  -2.762  0.00  0.00    +0.031 C 
ENDBRANCH  25  27
ENDBRANCH  22  23
ENDBRANCH  21  22
ENDBRANCH   8  21
TORSDOF 7
