REMARK  Name = ZINC09090346
REMARK  5 active torsions:
REMARK  status: ('A' for Active; 'I' for Inactive)
REMARK    1  A    between atoms: C_12  and  C_28
REMARK    2  A    between atoms: C_14  and  C_21
REMARK    3  A    between atoms: C_16  and  C_17
REMARK    4  A    between atoms: C_16  and  C_19
REMARK    5  A    between atoms: C_28  and  C_30
REMARK                            x       y       z     vdW  Elec       q    Type
REMARK                         _______ _______ _______ _____ _____    ______ ____
ROOT
ATOM      1  C   UNL     1       6.144   1.313  -1.061  0.00  0.00    +0.001 A 
ATOM      2  C   UNL     1       5.600   0.041  -1.014  0.00  0.00    +0.002 A 
ATOM      3  C   UNL     1       4.229  -0.136  -0.977  0.00  0.00    +0.024 A 
ATOM      4  C   UNL     1       3.392   0.963  -0.988  0.00  0.00    +0.038 A 
ATOM      5  C   UNL     1       3.945   2.262  -1.042  0.00  0.00    -0.004 A 
ATOM      6  C   UNL     1       5.323   2.424  -1.077  0.00  0.00    +0.010 A 
ATOM      7  C   UNL     1       3.023   3.422  -1.063  0.00  0.00    +0.007 C 
ATOM      8  C   UNL     1       1.793   3.252  -0.547  0.00  0.00    -0.002 C 
ATOM      9  C   UNL     1       1.480   1.890  -0.002  0.00  0.00    +0.132 C 
ATOM     10  N   UNL     1       2.023   0.879  -0.947  0.00  0.00    -0.309 N 
ATOM     11  C   UNL     1       1.388  -0.382  -0.579  0.00  0.00    +0.156 C 
ATOM     12  C   UNL     1       0.002  -0.004   0.002  0.00  0.00    +0.085 C 
ATOM     13  C   UNL     1      -0.019   1.550   0.011  0.00  0.00    +0.173 C 
ENDROOT
BRANCH  12  14
ATOM     14  C   UNL     1      -1.100  -0.538  -0.876  0.00  0.00    -0.021 A 
ATOM     15  C   UNL     1      -1.155  -0.181  -2.211  0.00  0.00    +0.005 A 
ATOM     16  C   UNL     1      -2.163  -0.675  -3.017  0.00  0.00    +0.000 A 
ATOM     17  C   UNL     1      -3.123  -1.517  -2.487  0.00  0.00    +0.001 A 
ATOM     18  C   UNL     1      -3.072  -1.870  -1.152  0.00  0.00    +0.020 A 
ATOM     19  C   UNL     1      -2.060  -1.381  -0.345  0.00  0.00    +0.045 A 
ATOM     20 CL   UNL     1      -1.996  -1.823   1.332  0.00  0.00    -0.083 Cl
ENDBRANCH  12  14
BRANCH  13  21
ATOM     21  C   UNL     1      -0.687   2.073  -1.192  0.00  0.00    +0.087 C 
ATOM     22  N   UNL     1      -1.202   2.477  -2.121  0.00  0.00    -0.195 NA
ENDBRANCH  13  21
BRANCH  13  23
ATOM     23  C   UNL     1      -0.664   2.060   1.232  0.00  0.00    +0.087 C 
ATOM     24  N   UNL     1      -1.161   2.454   2.174  0.00  0.00    -0.195 NA
ENDBRANCH  13  23
BRANCH  11  25
ATOM     25  C   UNL     1       1.220  -1.255  -1.796  0.00  0.00    +0.191 C 
ATOM     26  O   UNL     1       1.402  -0.792  -2.905  0.00  0.00    -0.289 OA
BRANCH  25  27
ATOM     27  C   UNL     1       0.852  -2.610  -1.649  0.00  0.00    +0.056 A 
ATOM     28  C   UNL     1       0.648  -3.575  -2.630  0.00  0.00    +0.019 A 
ATOM     29  C   UNL     1       0.293  -4.829  -2.205  0.00  0.00    +0.008 A 
ATOM     30  C   UNL     1       0.160  -5.067  -0.872  0.00  0.00    +0.046 A 
ATOM     31  S   UNL     1       0.536  -3.534  -0.155  0.00  0.00    -0.094 S 
ENDBRANCH  25  27
ENDBRANCH  11  25
TORSDOF 5
