REMARK  Name = ZINC48440996
REMARK  2 active torsions:
REMARK  status: ('A' for Active; 'I' for Inactive)
REMARK    1  A    between atoms: N_7  and  S_11
REMARK    2  A    between atoms: S_11  and  C_14
REMARK                            x       y       z     vdW  Elec       q    Type
REMARK                         _______ _______ _______ _____ _____    ______ ____
ROOT
ATOM      1  C   UNL     1      -0.017   1.379   0.010  0.00  0.00    +0.002 A 
ATOM      2  C   UNL     1       1.170   2.087   0.002  0.00  0.00    +0.004 A 
ATOM      3  C   UNL     1       2.381   1.420  -0.015  0.00  0.00    +0.047 A 
ATOM      4  C   UNL     1       2.410   0.034  -0.023  0.00  0.00    +0.143 A 
ATOM      5  C   UNL     1       1.213  -0.678  -0.013  0.00  0.00    +0.093 A 
ATOM      6  C   UNL     1       0.002  -0.004   0.002  0.00  0.00    +0.028 A 
ATOM      7  N   UNL     1       1.237  -2.082  -0.014  0.00  0.00    -0.196 N 
ATOM      8  C   UNL     1       2.512  -2.744  -0.339  0.00  0.00    +0.172 C 
ATOM      9  C   UNL     1       3.630  -1.978   0.383  0.00  0.00    +0.250 C 
ATOM     10  O   UNL     1       3.604  -0.614  -0.044  0.00  0.00    -0.488 OA
ENDROOT
BRANCH   7  11
ATOM     11  S   UNL     1      -0.120  -2.962   0.338  0.00  0.00    +0.082 S 
ATOM     12  O   UNL     1       0.326  -4.231   0.797  0.00  0.00    -0.149 OA
ATOM     13  O   UNL     1      -0.959  -2.121   1.119  0.00  0.00    -0.149 OA
BRANCH  11  14
ATOM     14  C   UNL     1      -0.967  -3.245  -1.181  0.00  0.00    +0.160 A 
ATOM     15  C   UNL     1      -2.127  -3.911  -1.401  0.00  0.00    +0.052 A 
ATOM     16  C   UNL     1      -2.609  -4.009  -2.693  0.00  0.00    +0.025 A 
ATOM     17  C   UNL     1      -1.908  -3.435  -3.701  0.00  0.00    +0.048 A 
ATOM     18  S   UNL     1      -0.523  -2.722  -2.829  0.00  0.00    -0.076 S 
ATOM     19 BR   UNL     1      -3.071  -4.696   0.038  0.00  0.00    -0.048 Br
ENDBRANCH  11  14
ENDBRANCH   7  11
TORSDOF 2
