REMARK  Name = ZINC12431789
REMARK  4 active torsions:
REMARK  status: ('A' for Active; 'I' for Inactive)
REMARK    1  A    between atoms: C_8  and  C_11
REMARK    2  A    between atoms: C_11  and  N_53
REMARK    3  A    between atoms: C_24  and  C_26
REMARK    4  A    between atoms: C_30  and  O_32
REMARK                            x       y       z     vdW  Elec       q    Type
REMARK                         _______ _______ _______ _____ _____    ______ ____
ROOT
ATOM      1  C   UNL     1      -1.348   7.274   0.796  0.00  0.00    -0.072 C 
ATOM      2  C   UNL     1      -1.990   7.593  -0.561  0.00  0.00    +0.019 C 
ATOM      3  C   UNL     1      -1.206   6.870  -1.628  0.00  0.00    -0.022 A 
ATOM      4  C   UNL     1      -1.200   7.076  -3.059  0.00  0.00    +0.003 A 
ATOM      5  C   UNL     1      -1.883   7.966  -3.894  0.00  0.00    +0.010 A 
ATOM      6  C   UNL     1      -1.624   7.877  -5.239  0.00  0.00    +0.001 A 
ATOM      7  C   UNL     1      -0.732   6.954  -5.758  0.00  0.00    +0.002 A 
ATOM      8  C   UNL     1      -0.043   6.061  -4.956  0.00  0.00    +0.026 A 
ATOM      9  C   UNL     1      -0.285   6.127  -3.585  0.00  0.00    +0.047 A 
ATOM     10  N   UNL     1       0.211   5.412  -2.533  0.00  0.00    -0.359 N 
ATOM     11  H   UNL     1       0.860   4.694  -2.602  0.00  0.00    +0.166 HD
ATOM     12  C   UNL     1      -0.344   5.861  -1.365  0.00  0.00    +0.011 A 
ATOM     13  C   UNL     1      -0.076   5.351   0.030  0.00  0.00    +0.011 C 
ATOM     14  N   UNL     1      -1.180   5.808   0.908  0.00  0.00    +0.392 N 
ATOM     15  H   UNL     1      -2.050   5.350   0.613  0.00  0.00    -0.080 HD
ENDROOT
BRANCH  13  16
ATOM     16  C   UNL     1      -0.051   3.844   0.022  0.00  0.00    -0.052 A 
ATOM     17  C   UNL     1      -1.237   3.133   0.030  0.00  0.00    +0.002 A 
ATOM     18  C   UNL     1      -1.218   1.751   0.017  0.00  0.00    +0.004 A 
ATOM     19  C   UNL     1      -0.013   1.076   0.008  0.00  0.00    +0.045 A 
ATOM     20  C   UNL     1       1.179   1.786   0.000  0.00  0.00    +0.117 A 
ATOM     21  C   UNL     1       1.157   3.174   0.008  0.00  0.00    +0.047 A 
BRANCH  20  22
ATOM     22  O   UNL     1       2.366   1.125  -0.015  0.00  0.00    -0.507 OA
ATOM     23  H   UNL     1       2.701   0.938  -0.902  0.00  0.00    +0.292 HD
ENDBRANCH  20  22
ENDBRANCH  13  16
BRANCH  14  24
ATOM     24  C   UNL     1      -0.895   5.439   2.310  0.00  0.00    -0.023 C 
BRANCH  24  32
ATOM     25  C   UNL     1      -5.180   7.801   5.928  0.00  0.00    +0.001 A 
ATOM     26  C   UNL     1      -4.325   8.895   5.936  0.00  0.00    +0.002 A 
ATOM     27  C   UNL     1      -3.143   8.868   5.229  0.00  0.00    +0.026 A 
ATOM     28  C   UNL     1      -2.800   7.734   4.500  0.00  0.00    +0.047 A 
ATOM     29  C   UNL     1      -3.670   6.628   4.495  0.00  0.00    -0.000 A 
ATOM     30  C   UNL     1      -4.863   6.678   5.219  0.00  0.00    +0.010 A 
ATOM     31  C   UNL     1      -3.033   5.616   3.649  0.00  0.00    +0.029 A 
ATOM     32  C   UNL     1      -1.876   6.140   3.213  0.00  0.00    +0.000 A 
ATOM     33  N   UNL     1      -1.717   7.402   3.716  0.00  0.00    -0.360 N 
ATOM     34  H   UNL     1      -0.957   7.979   3.544  0.00  0.00    +0.166 HD
ENDBRANCH  24  32
ENDBRANCH  14  24
TORSDOF 4
