REMARK  Name = ZINC40018228
REMARK  6 active torsions:
REMARK  status: ('A' for Active; 'I' for Inactive)
REMARK    1  A    between atoms: C_4  and  C_7
REMARK    2  A    between atoms: C_7  and  C_9
REMARK    3  A    between atoms: C_7  and  N_20
REMARK    4  A    between atoms: C_9  and  C_11
REMARK    5  A    between atoms: N_23  and  S_26
REMARK    6  A    between atoms: S_26  and  C_29
REMARK                            x       y       z     vdW  Elec       q    Type
REMARK                         _______ _______ _______ _____ _____    ______ ____
ROOT
ATOM      1  C   UNL     1       3.711  -0.707  -0.038  0.00  0.00    +0.159 C 
ENDROOT
BRANCH   1   5
ATOM      2  C   UNL     1      -0.017   1.378   0.010  0.00  0.00    +0.000 A 
ATOM      3  C   UNL     1       1.171   2.086   0.002  0.00  0.00    +0.000 A 
ATOM      4  C   UNL     1       2.377   1.411  -0.013  0.00  0.00    +0.005 A 
ATOM      5  C   UNL     1       2.396   0.029  -0.020  0.00  0.00    -0.023 A 
ATOM      6  C   UNL     1       1.208  -0.679  -0.012  0.00  0.00    +0.005 A 
ATOM      7  C   UNL     1       0.002  -0.004   0.002  0.00  0.00    +0.000 A 
ENDBRANCH   1   5
BRANCH   1   8
ATOM      8  N   UNL     1       3.611  -1.868  -0.933  0.00  0.00    -0.286 NA
ATOM      9  C   UNL     1       3.188  -1.459  -2.279  0.00  0.00    +0.102 C 
ATOM     10  C   UNL     1       2.921  -2.707  -3.127  0.00  0.00    +0.124 C 
ATOM     11  N   UNL     1       4.115  -3.565  -3.084  0.00  0.00    -0.178 NA
ATOM     12  C   UNL     1       4.680  -3.906  -1.770  0.00  0.00    +0.124 C 
ATOM     13  C   UNL     1       4.878  -2.611  -0.975  0.00  0.00    +0.102 C 
BRANCH  11  14
ATOM     14  S   UNL     1       4.804  -4.134  -4.479  0.00  0.00    +0.045 S 
ATOM     15  O   UNL     1       5.463  -5.333  -4.095  0.00  0.00    -0.157 OA
ATOM     16  O   UNL     1       3.742  -4.161  -5.423  0.00  0.00    -0.157 OA
BRANCH  14  17
ATOM     17  C   UNL     1       6.022  -2.873  -4.945  0.00  0.00    +0.213 C 
ATOM     18  C   UNL     1       6.596  -3.133  -6.362  0.00  0.00    +0.066 C 
ATOM     19  C   UNL     1       6.783  -1.847  -7.102  0.00  0.00    -0.017 C 
ATOM     20  C   UNL     1       6.155  -0.760  -6.698  0.00  0.00    +0.038 C 
ATOM     21  S   UNL     1       5.221  -1.243  -5.255  0.00  0.00    -0.105 S 
ENDBRANCH  14  17
ENDBRANCH  11  14
ENDBRANCH   1   8
BRANCH   1  22
ATOM     22  C   UNL     1       4.044  -1.175   1.356  0.00  0.00    +0.183 C 
ATOM     23  O   UNL     1       3.918  -2.346   1.649  0.00  0.00    -0.290 OA
BRANCH  22  24
ATOM     24  C   UNL     1       4.501  -0.251   2.320  0.00  0.00    +0.025 C 
ATOM     25  C   UNL     1       4.852  -0.515   3.631  0.00  0.00    +0.006 A 
ATOM     26  C   UNL     1       4.873  -1.702   4.401  0.00  0.00    +0.010 A 
ATOM     27  C   UNL     1       5.271  -1.669   5.693  0.00  0.00    +0.001 A 
ATOM     28  C   UNL     1       5.675  -0.483   6.327  0.00  0.00    +0.002 A 
ATOM     29  C   UNL     1       5.691   0.703   5.682  0.00  0.00    +0.026 A 
ATOM     30  C   UNL     1       5.273   0.755   4.271  0.00  0.00    +0.043 A 
ATOM     31  N   UNL     1       5.192   1.742   3.424  0.00  0.00    -0.380 N 
ATOM     32  C   UNL     1       4.716   1.235   2.133  0.00  0.00    +0.152 C 
ATOM     33  H   UNL     1       5.416   2.666   3.616  0.00  0.00    +0.160 HD
ENDBRANCH  22  24
ENDBRANCH   1  22
TORSDOF 6
