REMARK  Name = ZINC19898636
REMARK  10 active torsions:
REMARK  status: ('A' for Active; 'I' for Inactive)
REMARK    1  A    between atoms: C_1  and  C_2
REMARK    2  A    between atoms: C_2  and  O_3
REMARK    3  A    between atoms: O_3  and  C_4
REMARK    4  A    between atoms: C_4  and  C_6
REMARK    5  A    between atoms: C_8  and  C_20
REMARK    6  A    between atoms: C_14  and  C_15
REMARK    7  A    between atoms: C_14  and  O_19
REMARK    8  A    between atoms: C_23  and  C_26
REMARK    9  A    between atoms: C_26  and  O_28
REMARK   10  A    between atoms: O_28  and  C_29
REMARK                            x       y       z     vdW  Elec       q    Type
REMARK                         _______ _______ _______ _____ _____    ______ ____
ROOT
ATOM      1  C   UNL     1       1.263   1.415   0.257  0.00  0.00    +0.181 C 
ATOM      2  C   UNL     1      -0.133   2.010   0.044  0.00  0.00    +0.123 C 
ATOM      3  N   UNL     1      -0.994   1.004  -0.580  0.00  0.00    -0.292 N 
ATOM      4  C   UNL     1      -0.797  -0.307  -0.375  0.00  0.00    +0.302 C 
ATOM      5  O   UNL     1      -1.547  -1.100  -0.909  0.00  0.00    -0.253 OA
ATOM      6  N   UNL     1       0.196  -0.777   0.395  0.00  0.00    -0.264 N 
ATOM      7  C   UNL     1       1.125   0.127   1.075  0.00  0.00    +0.246 C 
ATOM      8  H   UNL     1      -1.823   1.318  -1.231  0.00  0.00    +0.151 HD
ATOM      9  H   UNL     1       0.304  -1.866   0.509  0.00  0.00    +0.153 HD
ENDROOT
BRANCH   2  10
ATOM     10  C   UNL     1      -0.715   2.416   1.374  0.00  0.00    -0.026 A 
ATOM     11  C   UNL     1      -1.573   1.560   2.041  0.00  0.00    +0.006 A 
ATOM     12  C   UNL     1      -2.104   1.923   3.261  0.00  0.00    +0.015 A 
ATOM     13  C   UNL     1      -1.784   3.163   3.817  0.00  0.00    +0.059 A 
ATOM     14  C   UNL     1      -0.921   4.025   3.136  0.00  0.00    +0.015 A 
ATOM     15  C   UNL     1      -0.392   3.646   1.920  0.00  0.00    +0.006 A 
BRANCH  13  16
ATOM     16  C   UNL     1      -2.354   3.561   5.121  0.00  0.00    +0.339 C 
ATOM     17  O   UNL     1      -2.072   4.640   5.602  0.00  0.00    -0.245 OA
BRANCH  16  18
ATOM     18  O   UNL     1      -3.185   2.727   5.775  0.00  0.00    -0.464 OA
ATOM     19  C   UNL     1      -3.707   3.184   7.051  0.00  0.00    +0.280 C 
ENDBRANCH  16  18
ENDBRANCH  13  16
ENDBRANCH   2  10
BRANCH   7  20
ATOM     20  C   UNL     1       2.493  -0.547   1.202  0.00  0.00    +0.436 C 
ATOM     21  F   UNL     1       2.983  -0.852  -0.073  0.00  0.00    -0.166 F 
ATOM     22  F   UNL     1       3.381   0.319   1.848  0.00  0.00    -0.166 F 
ATOM     23  F   UNL     1       2.366  -1.725   1.946  0.00  0.00    -0.166 F 
ENDBRANCH   7  20
BRANCH   1  24
ATOM     24  C   UNL     1       1.888   1.101  -1.078  0.00  0.00    +0.317 C 
ATOM     25  O   UNL     1       1.231   0.574  -1.944  0.00  0.00    -0.250 OA
BRANCH  24  26
ATOM     26  O   UNL     1       3.175   1.408  -1.306  0.00  0.00    -0.465 OA
BRANCH  26  28
ATOM     27  C   UNL     1       5.179   1.499  -2.685  0.00  0.00    +0.048 C 
ATOM     28  C   UNL     1       3.710   1.078  -2.614  0.00  0.00    +0.229 C 
ENDBRANCH  26  28
ENDBRANCH  24  26
ENDBRANCH   1  24
BRANCH   7  29
ATOM     29  O   UNL     1       0.622   0.438   2.376  0.00  0.00    -0.364 OA
ATOM     30  H   UNL     1       0.457  -0.366   3.108  0.00  0.00    +0.212 HD
ENDBRANCH   7  29
TORSDOF 8
