REMARK  Name = ZINC49147321
REMARK  8 active torsions:
REMARK  status: ('A' for Active; 'I' for Inactive)
REMARK    1  A    between atoms: C_1  and  C_2
REMARK    2  A    between atoms: C_2  and  C_4
REMARK    3  A    between atoms: C_2  and  N_23
REMARK    4  A    between atoms: C_7  and  S_10
REMARK    5  A    between atoms: S_10  and  N_13
REMARK    6  A    between atoms: N_13  and  C_14
REMARK    7  A    between atoms: C_14  and  C_16
REMARK    8  A    between atoms: C_14  and  C_17
REMARK                            x       y       z     vdW  Elec       q    Type
REMARK                         _______ _______ _______ _____ _____    ______ ____
ROOT
ATOM      1  S   UNL     1       2.920  -2.003   4.890  0.00  0.00    +0.059 S 
ATOM      2  O   UNL     1       2.026  -2.874   5.569  0.00  0.00    -0.153 OA
ATOM      3  O   UNL     1       4.206  -2.422   4.452  0.00  0.00    -0.153 OA
ENDROOT
BRANCH   1   7
ATOM      4  C   UNL     1       0.731  -0.503   1.223  0.00  0.00    -0.062 A 
ATOM      5  C   UNL     1       2.113  -0.514   1.247  0.00  0.00    +0.004 A 
ATOM      6  C   UNL     1       2.782  -0.972   2.366  0.00  0.00    +0.029 A 
ATOM      7  C   UNL     1       2.068  -1.419   3.463  0.00  0.00    +0.105 A 
ATOM      8  C   UNL     1       0.686  -1.407   3.439  0.00  0.00    +0.029 A 
ATOM      9  C   UNL     1       0.017  -0.945   2.321  0.00  0.00    +0.004 A 
BRANCH   4  11
ATOM     10  C   UNL     1      -0.019   1.526   0.010  0.00  0.00    -0.009 C 
ATOM     11  C   UNL     1       0.002  -0.004   0.002  0.00  0.00    -0.047 C 
BRANCH  11  12
ATOM     12  N   UNL     1       0.690  -0.478  -1.207  0.00  0.00    +0.382 N 
ATOM     13  H   UNL     1       1.636  -0.129  -1.214  0.00  0.00    -0.089 HD
ATOM     14  H   UNL     1       0.703  -1.487  -1.212  0.00  0.00    -0.089 HD
ATOM     15  H   UNL     1       0.202  -0.144  -2.024  0.00  0.00    -0.089 HD
ENDBRANCH  11  12
ENDBRANCH   4  11
ENDBRANCH   1   7
BRANCH   1  16
ATOM     16  N   UNL     1       3.159  -0.702   5.885  0.00  0.00    -0.182 NA
ATOM     17  H   UNL     1       4.060  -0.392   6.070  0.00  0.00    +0.149 HD
BRANCH  16  18
ATOM     18  C   UNL     1       2.011  -0.018   6.486  0.00  0.00    +0.110 C 
ATOM     19  C   UNL     1       1.759  -0.580   7.886  0.00  0.00    +0.031 C 
BRANCH  18  20
ATOM     20  C   UNL     1       2.299   1.458   6.581  0.00  0.00    +0.009 A 
ATOM     21  C   UNL     1       1.468   2.505   6.358  0.00  0.00    +0.014 A 
ATOM     22  C   UNL     1       1.955   3.791   6.506  0.00  0.00    +0.028 A 
ATOM     23  C   UNL     1       3.249   3.965   6.872  0.00  0.00    +0.078 A 
ATOM     24  S   UNL     1       3.820   2.281   7.024  0.00  0.00    -0.080 S 
ATOM     25 CL   UNL     1       4.123   5.443   7.130  0.00  0.00    -0.076 Cl
ENDBRANCH  18  20
ENDBRANCH  16  18
ENDBRANCH   1  16
TORSDOF 6
