REMARK  Name = ZINC33250235
REMARK  3 active torsions:
REMARK  status: ('A' for Active; 'I' for Inactive)
REMARK    1  A    between atoms: C_6  and  S_7
REMARK    2  A    between atoms: S_7  and  N_10
REMARK    3  A    between atoms: N_10  and  C_11
REMARK                            x       y       z     vdW  Elec       q    Type
REMARK                         _______ _______ _______ _____ _____    ______ ____
ROOT
ATOM      1  C   UNL     1       2.393   0.037  -0.017  0.00  0.00    +0.030 A 
ATOM      2  C   UNL     1       2.398   1.415  -0.011  0.00  0.00    +0.028 A 
ATOM      3  C   UNL     1       1.193   2.110   0.002  0.00  0.00    +0.047 A 
ATOM      4  C   UNL     1      -0.017   1.392   0.010  0.00  0.00    +0.005 A 
ATOM      5  C   UNL     1       0.002  -0.004   0.002  0.00  0.00    +0.038 A 
ATOM      6  C   UNL     1       1.197  -0.667  -0.011  0.00  0.00    +0.106 A 
ATOM      7  C   UNL     1      -1.080   2.397   0.031  0.00  0.00    -0.019 A 
ATOM      8  C   UNL     1      -0.490   3.603   0.024  0.00  0.00    +0.020 A 
ATOM      9  N   UNL     1       0.871   3.448   0.010  0.00  0.00    -0.358 N 
ATOM     10  H   UNL     1       1.669   4.206   0.005  0.00  0.00    +0.166 HD
ATOM     11  C   UNL     1      -1.219   4.926   0.023  0.00  0.00    +0.053 C 
ATOM     12  C   UNL     1      -2.322   4.902   1.083  0.00  0.00    +0.006 C 
ATOM     13  C   UNL     1      -3.612   4.362   0.471  0.00  0.00    +0.001 C 
ATOM     14  C   UNL     1      -3.302   3.307  -0.588  0.00  0.00    +0.005 C 
ATOM     15  C   UNL     1      -2.563   2.134   0.061  0.00  0.00    +0.037 C 
ENDROOT
BRANCH   6  16
ATOM     16  S   UNL     1       1.220  -2.428  -0.019  0.00  0.00    +0.059 S 
ATOM     17  O   UNL     1       2.474  -2.821   0.520  0.00  0.00    -0.153 OA
ATOM     18  O   UNL     1      -0.016  -2.853   0.540  0.00  0.00    -0.153 OA
BRANCH  16  19
ATOM     19  N   UNL     1       1.213  -2.911  -1.603  0.00  0.00    -0.187 NA
ATOM     20  H   UNL     1       0.288  -3.318  -2.037  0.00  0.00    +0.148 HD
BRANCH  19  21
ATOM     21  C   UNL     1       2.352  -2.597  -2.469  0.00  0.00    +0.077 C 
ATOM     22  C   UNL     1       2.065  -1.307  -3.241  0.00  0.00    +0.020 C 
ATOM     23  C   UNL     1       3.255  -0.979  -4.146  0.00  0.00    +0.002 C 
ATOM     24  C   UNL     1       3.476  -2.127  -5.133  0.00  0.00    +0.000 C 
ATOM     25  C   UNL     1       3.763  -3.416  -4.361  0.00  0.00    +0.002 C 
ATOM     26  C   UNL     1       2.573  -3.744  -3.457  0.00  0.00    +0.020 C 
ENDBRANCH  19  21
ENDBRANCH  16  19
ENDBRANCH   6  16
TORSDOF 3
