REMARK  Name = ZINC00916005
REMARK  4 active torsions:
REMARK  status: ('A' for Active; 'I' for Inactive)
REMARK    1  A    between atoms: C_1  and  C_2
REMARK    2  A    between atoms: N_12  and  C_22
REMARK    3  A    between atoms: C_16  and  S_20
REMARK    4  A    between atoms: S_20  and  C_21
REMARK                            x       y       z     vdW  Elec       q    Type
REMARK                         _______ _______ _______ _____ _____    ______ ____
ROOT
ATOM      1  C   UNL     1       0.162   3.201   1.131  0.00  0.00    +0.012 C 
ATOM      2  C   UNL     1      -0.189   3.303   2.617  0.00  0.00    +0.018 C 
ATOM      3  C   UNL     1      -1.704   3.451   2.777  0.00  0.00    +0.008 C 
ATOM      4  C   UNL     1      -2.083   3.349   4.257  0.00  0.00    +0.006 C 
ATOM      5  C   UNL     1      -1.871   1.903   4.729  0.00  0.00    +0.043 C 
ATOM      6  C   UNL     1      -0.520   1.452   4.267  0.00  0.00    -0.004 A 
ATOM      7  C   UNL     1       0.262   2.038   3.337  0.00  0.00    -0.020 A 
ATOM      8  C   UNL     1       1.547   1.386   3.077  0.00  0.00    +0.075 A 
ATOM      9  C   UNL     1       2.600   1.799   2.122  0.00  0.00    +0.268 A 
ATOM     10  O   UNL     1       2.448   2.792   1.434  0.00  0.00    -0.266 OA
ATOM     11  N   UNL     1       3.726   1.073   2.017  0.00  0.00    -0.245 N 
ATOM     12  C   UNL     1       3.928  -0.063   2.786  0.00  0.00    +0.245 A 
ATOM     13  N   UNL     1       4.931  -0.907   2.848  0.00  0.00    -0.109 NA
ATOM     14  N   UNL     1       4.619  -1.884   3.801  0.00  0.00    -0.120 NA
ATOM     15  C   UNL     1       3.435  -1.609   4.292  0.00  0.00    +0.198 A 
ATOM     16  N   UNL     1       2.973  -0.475   3.679  0.00  0.00    -0.249 N 
ATOM     17  C   UNL     1       1.804   0.240   3.820  0.00  0.00    +0.102 A 
ATOM     18  S   UNL     1       0.407   0.045   4.812  0.00  0.00    -0.074 S 
ENDROOT
BRANCH  11  19
ATOM     19  C   UNL     1       4.716   1.472   1.112  0.00  0.00    +0.053 A 
ATOM     20  C   UNL     1       5.721   2.340   1.518  0.00  0.00    +0.026 A 
ATOM     21  C   UNL     1       6.700   2.727   0.624  0.00  0.00    +0.002 A 
ATOM     22  C   UNL     1       6.674   2.260  -0.677  0.00  0.00    +0.000 A 
ATOM     23  C   UNL     1       5.671   1.400  -1.086  0.00  0.00    +0.002 A 
ATOM     24  C   UNL     1       4.693   1.004  -0.196  0.00  0.00    +0.026 A 
ENDBRANCH  11  19
BRANCH  15  25
ATOM     25  S   UNL     1       2.586  -2.538   5.526  0.00  0.00    -0.089 S 
ATOM     26  C   UNL     1       3.723  -3.898   5.912  0.00  0.00    +0.093 C 
ENDBRANCH  15  25
TORSDOF 2
