REMARK  Name = ZINC11101111
REMARK  13 active torsions:
REMARK  status: ('A' for Active; 'I' for Inactive)
REMARK    1  A    between atoms: C_1  and  C_2
REMARK    2  A    between atoms: C_3  and  N_15
REMARK    3  A    between atoms: N_6  and  C_9
REMARK    4  A    between atoms: N_7  and  C_8
REMARK    5  A    between atoms: C_16  and  C_18
REMARK    6  A    between atoms: C_18  and  C_20
REMARK    7  A    between atoms: C_18  and  N_75
REMARK    8  A    between atoms: C_21  and  C_23
REMARK    9  A    between atoms: C_21  and  C_35
REMARK   10  A    between atoms: C_21  and  N_75
REMARK   11  A    between atoms: C_26  and  C_29
REMARK   12  A    between atoms: C_35  and  C_36
REMARK   13  A    between atoms: C_35  and  C_37
REMARK                            x       y       z     vdW  Elec       q    Type
REMARK                         _______ _______ _______ _____ _____    ______ ____
ROOT
ATOM      1  C   UNL     1      -4.041   5.436   2.173  0.00  0.00    +0.014 C 
ATOM      2  C   UNL     1      -2.594   5.914   2.308  0.00  0.00    -0.004 C 
ENDROOT
BRANCH   1   4
ATOM      3  N   UNL     1      -3.410   3.090   1.711  0.00  0.00    -0.281 N 
ATOM      4  C   UNL     1      -4.082   4.192   1.324  0.00  0.00    +0.203 C 
ATOM      5  O   UNL     1      -4.721   4.183   0.292  0.00  0.00    -0.277 OA
ATOM      6  H   UNL     1      -2.837   3.121   2.493  0.00  0.00    +0.155 HD
BRANCH   3   9
ATOM      7  C   UNL     1      -4.189   0.380   2.921  0.00  0.00    +0.067 C 
ATOM      8  C   UNL     1      -3.881   0.682   1.477  0.00  0.00    +0.059 A 
ATOM      9  C   UNL     1      -3.541   1.892   0.980  0.00  0.00    +0.121 A 
ATOM     10  C   UNL     1      -3.327   1.726  -0.458  0.00  0.00    +0.293 A 
ATOM     11  O   UNL     1      -3.003   2.594  -1.248  0.00  0.00    -0.264 OA
ATOM     12  N   UNL     1      -3.560   0.428  -0.742  0.00  0.00    -0.216 N 
ATOM     13  N   UNL     1      -3.900  -0.223   0.449  0.00  0.00    -0.282 N 
ATOM     14  C   UNL     1      -4.222  -1.647   0.577  0.00  0.00    +0.171 C 
BRANCH  12  15
ATOM     15  C   UNL     1      -3.471  -0.165  -2.006  0.00  0.00    +0.067 A 
ATOM     16  C   UNL     1      -4.057   0.449  -3.105  0.00  0.00    +0.028 A 
ATOM     17  C   UNL     1      -3.962  -0.136  -4.353  0.00  0.00    +0.002 A 
ATOM     18  C   UNL     1      -3.296  -1.338  -4.505  0.00  0.00    +0.000 A 
ATOM     19  C   UNL     1      -2.717  -1.956  -3.412  0.00  0.00    +0.002 A 
ATOM     20  C   UNL     1      -2.803  -1.373  -2.163  0.00  0.00    +0.028 A 
ENDBRANCH  12  15
ENDBRANCH   3   9
ENDBRANCH   1   4
BRANCH   1  21
ATOM     21  N   UNL     1      -4.849   6.489   1.529  0.00  0.00    +0.391 N 
ATOM     22  H   UNL     1      -5.668   6.061   1.082  0.00  0.00    -0.084 HD
ATOM     23  H   UNL     1      -4.281   6.965   0.818  0.00  0.00    -0.084 HD
BRANCH  21  24
ATOM     24  C   UNL     1      -5.300   7.473   2.531  0.00  0.00    -0.037 C 
BRANCH  24  25
ATOM     25  C   UNL     1      -6.519   6.946   3.242  0.00  0.00    -0.061 A 
ATOM     26  C   UNL     1      -7.495   6.269   2.533  0.00  0.00    +0.002 A 
ATOM     27  C   UNL     1      -8.610   5.780   3.187  0.00  0.00    +0.004 A 
ATOM     28  C   UNL     1      -8.756   5.978   4.547  0.00  0.00    -0.044 A 
ATOM     29  C   UNL     1      -7.784   6.658   5.255  0.00  0.00    +0.004 A 
ATOM     30  C   UNL     1      -6.665   7.142   4.603  0.00  0.00    +0.002 A 
BRANCH  28  31
ATOM     31  C   UNL     1      -9.976   5.450   5.258  0.00  0.00    +0.019 C 
ATOM     32  C   UNL     1     -10.044   3.930   5.095  0.00  0.00    +0.008 C 
ATOM     33  C   UNL     1     -11.282   3.395   5.817  0.00  0.00    +0.001 C 
ATOM     34  C   UNL     1     -12.537   4.029   5.216  0.00  0.00    +0.000 C 
ATOM     35  C   UNL     1     -12.469   5.548   5.378  0.00  0.00    +0.001 C 
ATOM     36  C   UNL     1     -11.232   6.084   4.656  0.00  0.00    +0.008 C 
ENDBRANCH  28  31
ENDBRANCH  24  25
BRANCH  24  37
ATOM     37  C   UNL     1      -5.650   8.784   1.824  0.00  0.00    -0.027 C 
ATOM     38  C   UNL     1      -6.162   9.797   2.851  0.00  0.00    +0.006 C 
ATOM     39  C   UNL     1      -4.402   9.342   1.137  0.00  0.00    +0.006 C 
ENDBRANCH  24  37
ENDBRANCH  21  24
ENDBRANCH   1  21
TORSDOF 8
