REMARK  Name = ZINC15973201
REMARK  11 active torsions:
REMARK  status: ('A' for Active; 'I' for Inactive)
REMARK    1  A    between atoms: C_1  and  C_2
REMARK    2  A    between atoms: C_13  and  C_23
REMARK    3  A    between atoms: C_16  and  C_19
REMARK    4  A    between atoms: C_19  and  C_20
REMARK    5  A    between atoms: C_20  and  C_21
REMARK    6  A    between atoms: C_20  and  C_22
REMARK    7  A    between atoms: N_25  and  C_26
REMARK    8  A    between atoms: C_28  and  O_34
REMARK    9  A    between atoms: C_31  and  O_32
REMARK   10  A    between atoms: O_32  and  C_33
REMARK   11  A    between atoms: O_34  and  C_35
REMARK                            x       y       z     vdW  Elec       q    Type
REMARK                         _______ _______ _______ _____ _____    ______ ____
ROOT
ATOM      1  C   UNL     1      -0.386   1.599  -0.257  0.00  0.00    +0.044 C 
ATOM      2  C   UNL     1      -0.358   0.093  -0.214  0.00  0.00    -0.049 A 
ATOM      3  C   UNL     1      -0.229  -0.633  -1.385  0.00  0.00    +0.011 A 
ATOM      4  C   UNL     1      -0.203  -2.009  -1.344  0.00  0.00    +0.005 A 
ATOM      5  C   UNL     1      -0.305  -2.684  -0.132  0.00  0.00    +0.057 A 
ATOM      6  C   UNL     1      -0.434  -1.947   1.043  0.00  0.00    +0.063 A 
ATOM      7  C   UNL     1      -0.455  -0.567   0.997  0.00  0.00    +0.025 A 
ATOM      8 CL   UNL     1      -0.564  -2.765   2.569  0.00  0.00    -0.082 Cl
ATOM      9  N   UNL     1      -0.253  -4.064  -0.343  0.00  0.00    -0.282 N 
ATOM     10  C   UNL     1      -0.120  -4.374  -1.646  0.00  0.00    +0.243 C 
ATOM     11  O   UNL     1      -0.048  -5.488  -2.121  0.00  0.00    -0.273 OA
ATOM     12  C   UNL     1      -0.080  -3.071  -2.403  0.00  0.00    +0.135 C 
ATOM     13  C   UNL     1       1.245  -2.928  -3.169  0.00  0.00    +0.110 C 
ATOM     14  C   UNL     1       0.851  -3.327  -4.617  0.00  0.00    +0.034 C 
ATOM     15  C   UNL     1      -0.591  -2.767  -4.717  0.00  0.00    +0.056 C 
ATOM     16  N   UNL     1      -1.176  -2.986  -3.375  0.00  0.00    -0.296 NA
ATOM     17  H   UNL     1      -0.306  -4.723   0.367  0.00  0.00    +0.155 HD
ATOM     18  H   UNL     1      -1.739  -3.824  -3.358  0.00  0.00    +0.123 HD
ENDROOT
BRANCH  13  19
ATOM     19  C   UNL     1       1.740  -1.506  -3.119  0.00  0.00    +0.223 C 
ATOM     20  O   UNL     1       1.349  -0.699  -3.936  0.00  0.00    -0.275 OA
ATOM     21  N   UNL     1       2.616  -1.130  -2.167  0.00  0.00    -0.282 N 
ATOM     22  H   UNL     1       2.978  -1.788  -1.553  0.00  0.00    +0.155 HD
BRANCH  21  23
ATOM     23  C   UNL     1       3.006   0.212  -2.063  0.00  0.00    +0.079 A 
ATOM     24  C   UNL     1       2.993   1.028  -3.185  0.00  0.00    +0.072 A 
ATOM     25  C   UNL     1       3.379   2.355  -3.080  0.00  0.00    +0.122 A 
ATOM     26  C   UNL     1       3.777   2.867  -1.854  0.00  0.00    +0.049 A 
ATOM     27  C   UNL     1       3.792   2.057  -0.735  0.00  0.00    +0.051 A 
ATOM     28  C   UNL     1       3.401   0.731  -0.833  0.00  0.00    +0.141 A 
BRANCH  28  29
ATOM     29  O   UNL     1       3.409  -0.065   0.271  0.00  0.00    -0.493 OA
ATOM     30  C   UNL     1       3.826   0.534   1.499  0.00  0.00    +0.277 C 
ENDBRANCH  28  29
BRANCH  25  31
ATOM     31  O   UNL     1       3.367   3.155  -4.179  0.00  0.00    -0.495 OA
ATOM     32  C   UNL     1       3.777   4.512  -3.998  0.00  0.00    +0.277 C 
ENDBRANCH  25  31
ENDBRANCH  21  23
ENDBRANCH  13  19
BRANCH  15  33
ATOM     33  C   UNL     1      -1.386  -3.530  -5.778  0.00  0.00    +0.021 C 
BRANCH  33  34
ATOM     34  C   UNL     1      -2.761  -2.882  -5.948  0.00  0.00    -0.016 C 
ATOM     35  C   UNL     1      -3.509  -3.565  -7.095  0.00  0.00    +0.007 C 
ATOM     36  C   UNL     1      -3.562  -3.037  -4.654  0.00  0.00    +0.007 C 
ENDBRANCH  33  34
ENDBRANCH  15  33
TORSDOF 6
