REMARK  Name = ZINC40796901
REMARK  5 active torsions:
REMARK  status: ('A' for Active; 'I' for Inactive)
REMARK    1  A    between atoms: C_1  and  C_2
REMARK    2  A    between atoms: C_11  and  N_12
REMARK    3  A    between atoms: C_14  and  N_31
REMARK    4  A    between atoms: C_15  and  O_19
REMARK    5  A    between atoms: O_19  and  C_20
REMARK                            x       y       z     vdW  Elec       q    Type
REMARK                         _______ _______ _______ _____ _____    ______ ____
ROOT
ATOM      1  N   UNL     1       0.066  -4.885  -1.142  0.00  0.00    -0.297 N 
ATOM      2  C   UNL     1       0.191  -6.268  -1.087  0.00  0.00    +0.151 A 
ATOM      3  C   UNL     1       0.304  -7.019  -2.260  0.00  0.00    +0.128 A 
ATOM      4  C   UNL     1       0.427  -8.403  -2.148  0.00  0.00    +0.246 A 
ATOM      5  N   UNL     1       0.432  -8.953  -0.937  0.00  0.00    -0.199 NA
ATOM      6  C   UNL     1       0.323  -8.210   0.146  0.00  0.00    +0.227 A 
ATOM      7  N   UNL     1       0.210  -6.899   0.085  0.00  0.00    -0.218 NA
ATOM      8  H   UNL     1      -0.030  -4.441  -1.999  0.00  0.00    +0.154 HD
ENDROOT
BRANCH   1  19
ATOM      9  C   UNL     1      -2.354   0.940   0.390  0.00  0.00    +0.063 C 
ATOM     10  C   UNL     1      -1.708  -0.417   0.281  0.00  0.00    +0.013 A 
ATOM     11  C   UNL     1      -1.766  -1.099  -0.931  0.00  0.00    +0.021 A 
ATOM     12  C   UNL     1      -1.186  -2.332  -1.048  0.00  0.00    +0.013 A 
ATOM     13  C   UNL     1      -0.542  -2.871   0.078  0.00  0.00    +0.020 A 
ATOM     14  C   UNL     1      -0.519  -2.124   1.282  0.00  0.00    +0.048 A 
ATOM     15  N   UNL     1      -1.102  -0.921   1.329  0.00  0.00    -0.358 N 
ATOM     16  C   UNL     1       0.123  -2.661   2.410  0.00  0.00    +0.026 A 
ATOM     17  C   UNL     1       0.716  -3.886   2.340  0.00  0.00    +0.004 A 
ATOM     18  C   UNL     1       0.700  -4.627   1.164  0.00  0.00    +0.024 A 
ATOM     19  C   UNL     1       0.079  -4.137   0.033  0.00  0.00    +0.042 A 
ATOM     20  H   UNL     1      -1.079  -0.414   2.155  0.00  0.00    +0.166 HD
ENDBRANCH   1  19
BRANCH   3  21
ATOM     21  N   UNL     1       0.294  -6.396  -3.518  0.00  0.00    -0.351 N 
ATOM     22  H   UNL     1       0.208  -5.432  -3.580  0.00  0.00    +0.143 HD
ATOM     23  H   UNL     1       0.373  -6.929  -4.324  0.00  0.00    +0.143 HD
ENDBRANCH   3  21
BRANCH   4  24
ATOM     24  O   UNL     1       0.539  -9.177  -3.256  0.00  0.00    -0.434 OA
BRANCH  24  25
ATOM     25  C   UNL     1       0.551 -10.525  -3.094  0.00  0.00    +0.156 A 
ATOM     26  C   UNL     1       1.742 -11.214  -3.111  0.00  0.00    +0.049 A 
ATOM     27  C   UNL     1       1.770 -12.596  -2.946  0.00  0.00    +0.019 A 
ATOM     28  C   UNL     1       0.619 -13.303  -2.763  0.00  0.00    +0.027 A 
ATOM     29  C   UNL     1      -0.616 -12.635  -2.740  0.00  0.00    +0.018 A 
ATOM     30  C   UNL     1      -0.656 -11.228  -2.901  0.00  0.00    +0.114 A 
ATOM     31  N   UNL     1      -1.829 -10.588  -2.875  0.00  0.00    -0.251 NA
ATOM     32  C   UNL     1      -2.955 -11.236  -2.697  0.00  0.00    +0.111 A 
ATOM     33  C   UNL     1      -2.986 -12.618  -2.526  0.00  0.00    +0.020 A 
ATOM     34  C   UNL     1      -1.823 -13.335  -2.553  0.00  0.00    +0.013 A 
ATOM     35 BR   UNL     1       0.685 -15.180  -2.542  0.00  0.00    -0.050 Br
ENDBRANCH  24  25
ENDBRANCH   4  24
TORSDOF 4
