REMARK  Name = ZINC13779182
REMARK  4 active torsions:
REMARK  status: ('A' for Active; 'I' for Inactive)
REMARK    1  A    between atoms: C_1  and  C_2
REMARK    2  A    between atoms: C_7  and  C_8
REMARK    3  A    between atoms: N_16  and  C_19
REMARK    4  A    between atoms: N_30  and  C_31
REMARK                            x       y       z     vdW  Elec       q    Type
REMARK                         _______ _______ _______ _____ _____    ______ ____
ROOT
ATOM      1  C   UNL     1       0.243   0.037   2.499  0.00  0.00    +0.157 C 
ATOM      2  C   UNL     1      -1.130   0.234   3.128  0.00  0.00    +0.145 C 
ATOM      3  C   UNL     1      -0.667   0.198   4.634  0.00  0.00    +0.249 C 
ATOM      4  C   UNL     1      -1.801   0.808   5.300  0.00  0.00    +0.259 C 
ATOM      5  O   UNL     1      -2.228   0.555   6.406  0.00  0.00    -0.272 OA
ATOM      6  N   UNL     1      -2.287   1.733   4.414  0.00  0.00    -0.208 N 
ATOM      7  C   UNL     1      -1.775   1.585   3.143  0.00  0.00    +0.235 C 
ATOM      8  O   UNL     1      -1.826   2.378   2.227  0.00  0.00    -0.274 OA
ATOM      9  O   UNL     1       0.119  -0.918   4.683  0.00  0.00    -0.257 OA
ATOM     10  N   UNL     1       0.977  -0.784   3.506  0.00  0.00    -0.244 N 
ENDROOT
BRANCH   6  11
ATOM     11  C   UNL     1      -3.220   2.721   4.757  0.00  0.00    +0.045 A 
ATOM     12  C   UNL     1      -3.665   3.620   3.781  0.00  0.00    +0.024 A 
ATOM     13  C   UNL     1      -4.569   4.589   4.084  0.00  0.00    +0.010 A 
ATOM     14  C   UNL     1      -5.067   4.693   5.395  0.00  0.00    -0.018 A 
ATOM     15  C   UNL     1      -6.003   5.683   5.741  0.00  0.00    +0.008 A 
ATOM     16  C   UNL     1      -6.465   5.755   7.020  0.00  0.00    +0.001 A 
ATOM     17  C   UNL     1      -6.024   4.861   7.994  0.00  0.00    +0.001 A 
ATOM     18  C   UNL     1      -5.118   3.890   7.695  0.00  0.00    +0.008 A 
ATOM     19  C   UNL     1      -4.619   3.784   6.385  0.00  0.00    -0.016 A 
ATOM     20  C   UNL     1      -3.688   2.791   6.039  0.00  0.00    +0.032 A 
ENDBRANCH   6  11
BRANCH   1  27
ATOM     21  C   UNL     1       0.169   1.499   0.009  0.00  0.00    +0.044 C 
ATOM     22  C   UNL     1       0.092  -0.006   0.001  0.00  0.00    -0.045 A 
ATOM     23  C   UNL     1      -0.009  -0.687  -1.198  0.00  0.00    +0.004 A 
ATOM     24  C   UNL     1      -0.080  -2.067  -1.204  0.00  0.00    +0.000 A 
ATOM     25  C   UNL     1      -0.050  -2.767  -0.012  0.00  0.00    +0.000 A 
ATOM     26  C   UNL     1       0.052  -2.086   1.186  0.00  0.00    +0.006 A 
ATOM     27  C   UNL     1       0.127  -0.705   1.193  0.00  0.00    -0.019 A 
ENDBRANCH   1  27
BRANCH  10  28
ATOM     28  C   UNL     1       2.251  -1.333   3.345  0.00  0.00    +0.065 A 
ATOM     29  C   UNL     1       2.954  -1.129   2.164  0.00  0.00    +0.028 A 
ATOM     30  C   UNL     1       4.214  -1.673   2.009  0.00  0.00    +0.002 A 
ATOM     31  C   UNL     1       4.776  -2.421   3.027  0.00  0.00    +0.000 A 
ATOM     32  C   UNL     1       4.079  -2.627   4.204  0.00  0.00    +0.002 A 
ATOM     33  C   UNL     1       2.821  -2.081   4.368  0.00  0.00    +0.028 A 
ENDBRANCH  10  28
TORSDOF 3
