REMARK  Name = ZINC34934640
REMARK  10 active torsions:
REMARK  status: ('A' for Active; 'I' for Inactive)
REMARK    1  A    between atoms: C_1  and  C_2
REMARK    2  A    between atoms: C_7  and  N_8
REMARK    3  A    between atoms: N_11  and  C_12
REMARK    4  A    between atoms: C_12  and  C_14
REMARK    5  A    between atoms: C_12  and  C_17
REMARK    6  A    between atoms: C_14  and  C_15
REMARK    7  A    between atoms: C_14  and  C_16
REMARK    8  A    between atoms: C_21  and  C_30
REMARK    9  A    between atoms: C_26  and  C_28
REMARK   10  A    between atoms: C_26  and  C_29
REMARK                            x       y       z     vdW  Elec       q    Type
REMARK                         _______ _______ _______ _____ _____    ______ ____
ROOT
ATOM      1  C   UNL     1      -0.143  -0.529   5.752  0.00  0.00    +0.163 C 
ENDROOT
BRANCH   1   2
ATOM      2  C   UNL     1       0.259   0.362   6.899  0.00  0.00    +0.236 C 
ATOM      3  O   UNL     1      -0.284   1.436   7.052  0.00  0.00    -0.274 OA
ATOM      4  N   UNL     1       1.222  -0.034   7.755  0.00  0.00    -0.296 N 
ATOM      5  C   UNL     1       2.037  -1.252   7.631  0.00  0.00    +0.114 C 
ATOM      6  C   UNL     1       2.953  -1.293   8.876  0.00  0.00    -0.014 C 
ATOM      7  C   UNL     1       3.106   0.213   9.219  0.00  0.00    +0.030 C 
ATOM      8  C   UNL     1       1.651   0.684   8.972  0.00  0.00    +0.077 C 
ATOM      9  C   UNL     1       0.814   0.209  10.157  0.00  0.00    +0.029 C 
ATOM     10  C   UNL     1       0.890  -1.288  10.401  0.00  0.00    -0.033 C 
ATOM     11  C   UNL     1       2.199  -1.955  10.027  0.00  0.00    +0.014 C 
ATOM     12  C   UNL     1      -0.278  -1.988   9.690  0.00  0.00    +0.011 C 
ATOM     13  C   UNL     1       0.676  -1.515  11.918  0.00  0.00    +0.011 C 
ATOM     14  C   UNL     1       4.303  -1.967   8.584  0.00  0.00    +0.013 C 
ENDBRANCH   1   2
BRANCH   1  18
ATOM     15  N   UNL     1       0.443   0.144   2.186  0.00  0.00    -0.269 N 
ATOM     16  C   UNL     1       0.259  -0.510   3.349  0.00  0.00    +0.304 C 
ATOM     17  O   UNL     1       0.276  -1.726   3.372  0.00  0.00    -0.252 OA
ATOM     18  N   UNL     1       0.057   0.182   4.487  0.00  0.00    -0.288 N 
ATOM     19  H   UNL     1       0.495   1.113   2.177  0.00  0.00    +0.156 HD
ATOM     20  H   UNL     1       0.043   1.152   4.469  0.00  0.00    +0.151 HD
BRANCH  15  27
ATOM     21  C   UNL     1      -0.634   1.297  -0.183  0.00  0.00    +0.045 C 
ATOM     22  C   UNL     1       0.046  -0.048  -0.189  0.00  0.00    -0.029 A 
ATOM     23  C   UNL     1       0.166  -0.756  -1.369  0.00  0.00    +0.005 A 
ATOM     24  C   UNL     1       0.790  -1.990  -1.376  0.00  0.00    +0.000 A 
ATOM     25  C   UNL     1       1.295  -2.519  -0.202  0.00  0.00    +0.002 A 
ATOM     26  C   UNL     1       1.178  -1.816   0.981  0.00  0.00    +0.023 A 
ATOM     27  C   UNL     1       0.558  -0.573   0.990  0.00  0.00    +0.038 A 
ENDBRANCH  15  27
ENDBRANCH   1  18
BRANCH   1  28
ATOM     28  C   UNL     1      -1.618  -0.910   5.896  0.00  0.00    +0.012 C 
ATOM     29  C   UNL     1      -1.838  -1.597   7.245  0.00  0.00    +0.009 C 
ATOM     30  C   UNL     1      -2.481   0.351   5.818  0.00  0.00    +0.009 C 
ENDBRANCH   1  28
TORSDOF 4
