REMARK  Name = ZINC67180030
REMARK  4 active torsions:
REMARK  status: ('A' for Active; 'I' for Inactive)
REMARK    1  A    between atoms: C_4  and  O_26
REMARK    2  A    between atoms: C_5  and  C_7
REMARK    3  A    between atoms: C_7  and  C_8
REMARK    4  A    between atoms: C_14  and  C_16
REMARK                            x       y       z     vdW  Elec       q    Type
REMARK                         _______ _______ _______ _____ _____    ______ ____
ROOT
ATOM      1  C   UNL     1       1.372  -2.695   1.389  0.00  0.00    +0.220 C 
ATOM      2  O   UNL     1       1.451  -1.911   2.311  0.00  0.00    -0.275 OA
ATOM      3  N   UNL     1       1.413  -4.021   1.627  0.00  0.00    -0.294 N 
ATOM      4  C   UNL     1       1.334  -5.080   0.604  0.00  0.00    +0.108 C 
ATOM      5  C   UNL     1       0.808  -6.325   1.362  0.00  0.00    +0.021 C 
ATOM      6  C   UNL     1       1.520  -6.179   2.732  0.00  0.00    +0.029 C 
ATOM      7  C   UNL     1       1.550  -4.651   2.948  0.00  0.00    +0.110 C 
ENDROOT
BRANCH   7   8
ATOM      8  C   UNL     1       2.859  -4.245   3.576  0.00  0.00    +0.018 A 
ATOM      9  C   UNL     1       3.881  -3.754   2.785  0.00  0.00    +0.009 A 
ATOM     10  C   UNL     1       5.082  -3.381   3.358  0.00  0.00    +0.004 A 
ATOM     11  C   UNL     1       5.266  -3.499   4.723  0.00  0.00    +0.049 A 
ATOM     12  C   UNL     1       4.245  -3.991   5.521  0.00  0.00    +0.162 A 
ATOM     13  C   UNL     1       3.034  -4.359   4.947  0.00  0.00    +0.167 A 
ATOM     14  O   UNL     1       2.015  -4.832   5.714  0.00  0.00    -0.485 OA
ATOM     15  C   UNL     1       2.355  -5.283   7.030  0.00  0.00    +0.270 C 
ATOM     16  C   UNL     1       3.267  -4.232   7.676  0.00  0.00    +0.270 C 
ATOM     17  O   UNL     1       4.443  -4.105   6.863  0.00  0.00    -0.485 OA
ENDBRANCH   7   8
BRANCH   1  18
ATOM     18  C   UNL     1       1.227  -2.187  -0.022  0.00  0.00    +0.134 C 
BRANCH  18  23
ATOM     19  C   UNL     1      -0.017   1.378   0.010  0.00  0.00    +0.001 A 
ATOM     20  C   UNL     1       1.170   2.088   0.002  0.00  0.00    +0.004 A 
ATOM     21  C   UNL     1       2.377   1.417  -0.013  0.00  0.00    +0.046 A 
ATOM     22  C   UNL     1       2.399   0.030  -0.021  0.00  0.00    +0.120 A 
ATOM     23  C   UNL     1       1.207  -0.680  -0.013  0.00  0.00    +0.003 A 
ATOM     24  C   UNL     1       0.002  -0.004   0.002  0.00  0.00    +0.008 A 
BRANCH  22  25
ATOM     25  O   UNL     1       3.586  -0.632  -0.037  0.00  0.00    -0.506 OA
ATOM     26  H   UNL     1       3.938  -0.829   0.842  0.00  0.00    +0.292 HD
ENDBRANCH  22  25
ENDBRANCH  18  23
ENDBRANCH   1  18
TORSDOF 4
