REMARK  Name = ZINC41074383
REMARK  6 active torsions:
REMARK  status: ('A' for Active; 'I' for Inactive)
REMARK    1  A    between atoms: C_1  and  C_2
REMARK    2  A    between atoms: C_2  and  C_3
REMARK    3  A    between atoms: C_3  and  C_4
REMARK    4  A    between atoms: C_7  and  C_18
REMARK    5  A    between atoms: C_8  and  C_12
REMARK    6  A    between atoms: C_28  and  C_30
REMARK                            x       y       z     vdW  Elec       q    Type
REMARK                         _______ _______ _______ _____ _____    ______ ____
ROOT
ATOM      1  C   UNL     1       0.739  -2.004  -1.265  0.00  0.00    +0.102 A 
ATOM      2  N   UNL     1       0.249  -2.833  -0.393  0.00  0.00    -0.162 NA
ATOM      3  N   UNL     1       0.359  -4.210  -0.560  0.00  0.00    -0.206 N 
ATOM      4  C   UNL     1      -0.017  -5.382   0.117  0.00  0.00    +0.095 A 
ATOM      5  C   UNL     1       0.438  -6.458  -0.659  0.00  0.00    +0.099 A 
ATOM      6  N   UNL     1       1.046  -5.948  -1.731  0.00  0.00    -0.219 NA
ATOM      7  C   UNL     1       1.003  -4.640  -1.679  0.00  0.00    +0.196 A 
ATOM      8  S   UNL     1       1.436  -3.112  -2.480  0.00  0.00    -0.033 S 
ENDROOT
BRANCH   4   9
ATOM      9  C   UNL     1      -0.708  -5.460   1.328  0.00  0.00    +0.046 C 
ATOM     10  C   UNL     1      -0.278  -4.717   2.424  0.00  0.00    +0.082 C 
ATOM     11  C   UNL     1      -0.980  -4.776   3.732  0.00  0.00    +0.153 C 
ATOM     12  N   UNL     1      -1.569  -5.855   4.184  0.00  0.00    -0.283 NA
ATOM     13  N   UNL     1      -0.950  -3.555   4.440  0.00  0.00    -0.152 N 
ATOM     14  C   UNL     1       0.065  -2.671   4.140  0.00  0.00    +0.181 C 
ATOM     15  N   UNL     1       0.967  -2.784   3.199  0.00  0.00    -0.152 NA
ATOM     16  C   UNL     1       0.904  -3.833   2.349  0.00  0.00    +0.273 C 
ATOM     17  O   UNL     1       1.795  -4.043   1.540  0.00  0.00    -0.268 OA
ATOM     18  S   UNL     1      -0.203  -1.382   5.328  0.00  0.00    -0.029 S 
ATOM     19  C   UNL     1      -1.688  -2.049   6.066  0.00  0.00    +0.202 C 
ATOM     20  N   UNL     1      -1.841  -3.168   5.417  0.00  0.00    -0.160 NA
ATOM     21  H   UNL     1      -2.014  -5.840   5.045  0.00  0.00    +0.188 HD
BRANCH  19  22
ATOM     22  C   UNL     1      -2.545  -1.466   7.160  0.00  0.00    +0.442 C 
ATOM     23  F   UNL     1      -3.613  -2.329   7.427  0.00  0.00    -0.164 F 
ATOM     24  F   UNL     1      -1.777  -1.303   8.318  0.00  0.00    -0.164 F 
ATOM     25  F   UNL     1      -3.041  -0.223   6.751  0.00  0.00    -0.164 F 
ENDBRANCH  19  22
ENDBRANCH   4   9
BRANCH   5  26
ATOM     26  C   UNL     1       0.275  -7.895  -0.345  0.00  0.00    +0.003 A 
ATOM     27  C   UNL     1       0.314  -8.332   0.980  0.00  0.00    +0.010 A 
ATOM     28  C   UNL     1       0.160  -9.673   1.265  0.00  0.00    +0.001 A 
ATOM     29  C   UNL     1      -0.032 -10.584   0.241  0.00  0.00    +0.000 A 
ATOM     30  C   UNL     1      -0.072 -10.157  -1.074  0.00  0.00    +0.001 A 
ATOM     31  C   UNL     1       0.074  -8.818  -1.373  0.00  0.00    +0.010 A 
ENDBRANCH   5  26
BRANCH   1  32
ATOM     32  C   UNL     1       0.718  -0.497  -1.257  0.00  0.00    +0.064 C 
BRANCH  32  34
ATOM     33  C   UNL     1      -0.019   1.526   0.010  0.00  0.00    +0.004 C 
ATOM     34  C   UNL     1       0.002  -0.004   0.002  0.00  0.00    +0.003 C 
ENDBRANCH  32  34
ENDBRANCH   1  32
TORSDOF 5
