REMARK  Name = ZINC58761377
REMARK  7 active torsions:
REMARK  status: ('A' for Active; 'I' for Inactive)
REMARK    1  A    between atoms: C_1  and  C_2
REMARK    2  A    between atoms: C_2  and  C_4
REMARK    3  A    between atoms: C_2  and  N_12
REMARK    4  A    between atoms: N_15  and  C_16
REMARK    5  A    between atoms: C_16  and  C_17
REMARK    6  A    between atoms: N_23  and  C_24
REMARK    7  A    between atoms: N_23  and  C_25
REMARK                            x       y       z     vdW  Elec       q    Type
REMARK                         _______ _______ _______ _____ _____    ______ ____
ROOT
ATOM      1  N   UNL     1      -1.372  -0.511   0.012  0.00  0.00    -0.293 N 
ATOM      2  C   UNL     1      -2.029  -0.655   1.181  0.00  0.00    +0.300 C 
ATOM      3  O   UNL     1      -1.480  -0.364   2.226  0.00  0.00    -0.253 OA
ATOM      4  N   UNL     1      -3.293  -1.122   1.190  0.00  0.00    -0.295 N 
ATOM      5  H   UNL     1      -1.810  -0.743  -0.822  0.00  0.00    +0.151 HD
ATOM      6  H   UNL     1      -3.731  -1.354   0.356  0.00  0.00    +0.151 HD
ENDROOT
BRANCH   1   8
ATOM      7  C   UNL     1      -0.019   1.526   0.010  0.00  0.00    +0.033 C 
ATOM      8  C   UNL     1       0.002  -0.004   0.002  0.00  0.00    +0.103 C 
BRANCH   8   9
ATOM      9  C   UNL     1       0.707  -0.490  -1.238  0.00  0.00    -0.009 A 
ATOM     10  C   UNL     1      -0.023  -0.817  -2.365  0.00  0.00    +0.008 A 
ATOM     11  C   UNL     1       0.623  -1.263  -3.502  0.00  0.00    +0.020 A 
ATOM     12  C   UNL     1       2.002  -1.382  -3.514  0.00  0.00    +0.042 A 
ATOM     13  C   UNL     1       2.733  -1.054  -2.386  0.00  0.00    +0.040 A 
ATOM     14  C   UNL     1       2.086  -0.603  -1.250  0.00  0.00    +0.047 A 
ATOM     15 CL   UNL     1       3.004  -0.186   0.164  0.00  0.00    -0.083 Cl
ATOM     16 CL   UNL     1       2.813  -1.942  -4.942  0.00  0.00    -0.083 Cl
ENDBRANCH   8   9
ENDBRANCH   1   8
BRANCH   4  17
ATOM     17  C   UNL     1      -4.006  -1.278   2.460  0.00  0.00    +0.141 C 
BRANCH  17  18
ATOM     18  C   UNL     1      -5.391  -1.812   2.196  0.00  0.00    -0.026 A 
ATOM     19  C   UNL     1      -6.454  -0.948   1.972  0.00  0.00    +0.023 A 
ATOM     20  C   UNL     1      -7.710  -1.468   1.733  0.00  0.00    +0.084 A 
ATOM     21  N   UNL     1      -7.910  -2.773   1.715  0.00  0.00    -0.350 N 
ATOM     22  C   UNL     1      -6.922  -3.629   1.924  0.00  0.00    +0.098 A 
ATOM     23  C   UNL     1      -5.630  -3.174   2.166  0.00  0.00    +0.047 A 
ATOM     24  N   UNL     1      -7.177  -4.995   1.897  0.00  0.00    -0.323 N 
ATOM     25  C   UNL     1      -8.534  -5.482   1.637  0.00  0.00    +0.130 C 
ATOM     26  C   UNL     1      -6.089  -5.949   2.128  0.00  0.00    +0.130 C 
ATOM     27  H   UNL     1      -8.802  -3.112   1.544  0.00  0.00    +0.166 HD
ENDBRANCH  17  18
ENDBRANCH   4  17
TORSDOF 4
