REMARK  Name = ZINC12502702
REMARK  9 active torsions:
REMARK  status: ('A' for Active; 'I' for Inactive)
REMARK    1  A    between atoms: C_4  and  C_7
REMARK    2  A    between atoms: C_7  and  C_8
REMARK    3  A    between atoms: C_7  and  C_14
REMARK    4  A    between atoms: N_16  and  C_17
REMARK    5  A    between atoms: C_17  and  N_19
REMARK    6  A    between atoms: N_19  and  N_20
REMARK    7  A    between atoms: C_21  and  C_23
REMARK    8  A    between atoms: C_23  and  C_24
REMARK    9  A    between atoms: C_23  and  C_30
REMARK                            x       y       z     vdW  Elec       q    Type
REMARK                         _______ _______ _______ _____ _____    ______ ____
ROOT
ATOM      1  C   UNL     1      -0.257  -1.370   4.726  0.00  0.00    +0.153 C 
ATOM      2  S   UNL     1      -1.435  -2.523   5.186  0.00  0.00    -0.017 S 
ENDROOT
BRANCH   1   5
ATOM      3  C   UNL     1      -0.604  -1.911   2.482  0.00  0.00    +0.230 C 
ATOM      4  O   UNL     1      -1.439  -2.728   2.808  0.00  0.00    -0.274 OA
ATOM      5  N   UNL     1       0.034  -1.187   3.423  0.00  0.00    -0.266 N 
ATOM      6  H   UNL     1       0.701  -0.533   3.162  0.00  0.00    +0.157 HD
BRANCH   3   7
ATOM      7  C   UNL     1      -0.280  -1.706   1.024  0.00  0.00    +0.135 C 
BRANCH   7  11
ATOM      8  C   UNL     1      -1.099   2.344  -0.061  0.00  0.00    +0.000 A 
ATOM      9  C   UNL     1       0.131   1.784  -0.355  0.00  0.00    +0.000 A 
ATOM     10  C   UNL     1       0.396   0.473  -0.004  0.00  0.00    +0.005 A 
ATOM     11  C   UNL     1      -0.569  -0.277   0.642  0.00  0.00    -0.031 A 
ATOM     12  C   UNL     1      -1.800   0.280   0.931  0.00  0.00    +0.005 A 
ATOM     13  C   UNL     1      -2.063   1.592   0.585  0.00  0.00    +0.000 A 
ENDBRANCH   7  11
BRANCH   7  14
ATOM     14  C   UNL     1      -1.124  -2.631   0.187  0.00  0.00    -0.031 A 
ATOM     15  C   UNL     1      -2.499  -2.634   0.333  0.00  0.00    +0.005 A 
ATOM     16  C   UNL     1      -3.274  -3.479  -0.439  0.00  0.00    +0.000 A 
ATOM     17  C   UNL     1      -2.674  -4.329  -1.350  0.00  0.00    +0.000 A 
ATOM     18  C   UNL     1      -1.299  -4.330  -1.492  0.00  0.00    +0.000 A 
ATOM     19  C   UNL     1      -0.524  -3.481  -0.723  0.00  0.00    +0.005 A 
ENDBRANCH   7  14
ENDBRANCH   3   7
ENDBRANCH   1   5
BRANCH   1  20
ATOM     20  N   UNL     1       0.381  -0.646   5.667  0.00  0.00    -0.246 N 
ATOM     21  H   UNL     1       0.172  -0.778   6.605  0.00  0.00    +0.172 HD
BRANCH  20  22
ATOM     22  N   UNL     1       1.346   0.298   5.290  0.00  0.00    -0.234 N 
ATOM     23  C   UNL     1       1.983   1.022   6.231  0.00  0.00    +0.241 C 
ATOM     24  O   UNL     1       1.722   0.857   7.403  0.00  0.00    -0.273 OA
ATOM     25  H   UNL     1       1.554   0.430   4.352  0.00  0.00    +0.173 HD
BRANCH  23  26
ATOM     26  C   UNL     1       3.021   2.037   5.825  0.00  0.00    +0.136 C 
BRANCH  26  27
ATOM     27  C   UNL     1       3.578   2.705   7.056  0.00  0.00    -0.031 A 
ATOM     28  C   UNL     1       4.094   1.939   8.084  0.00  0.00    +0.005 A 
ATOM     29  C   UNL     1       4.610   2.551   9.211  0.00  0.00    +0.000 A 
ATOM     30  C   UNL     1       4.600   3.930   9.314  0.00  0.00    +0.000 A 
ATOM     31  C   UNL     1       4.079   4.696   8.288  0.00  0.00    +0.000 A 
ATOM     32  C   UNL     1       3.568   4.083   7.159  0.00  0.00    +0.005 A 
ENDBRANCH  26  27
BRANCH  26  33
ATOM     33  C   UNL     1       4.134   1.347   5.080  0.00  0.00    -0.031 A 
ATOM     34  C   UNL     1       4.751   0.239   5.630  0.00  0.00    +0.005 A 
ATOM     35  C   UNL     1       5.769  -0.396   4.945  0.00  0.00    +0.000 A 
ATOM     36  C   UNL     1       6.177   0.082   3.713  0.00  0.00    +0.000 A 
ATOM     37  C   UNL     1       5.564   1.193   3.166  0.00  0.00    +0.000 A 
ATOM     38  C   UNL     1       4.542   1.826   3.849  0.00  0.00    +0.005 A 
ENDBRANCH  26  33
ENDBRANCH  23  26
ENDBRANCH  20  22
ENDBRANCH   1  20
TORSDOF 9
