REMARK  Name = ZINC63140595
REMARK  14 active torsions:
REMARK  status: ('A' for Active; 'I' for Inactive)
REMARK    1  A    between atoms: C_1  and  C_2
REMARK    2  A    between atoms: C_2  and  O_3
REMARK    3  A    between atoms: O_3  and  C_4
REMARK    4  A    between atoms: C_9  and  C_10
REMARK    5  A    between atoms: N_29  and  C_32
REMARK    6  A    between atoms: C_32  and  C_33
REMARK    7  A    between atoms: C_33  and  C_34
REMARK    8  A    between atoms: C_34  and  C_35
REMARK    9  A    between atoms: C_35  and  O_36
REMARK   10  A    between atoms: C_35  and  O_39
REMARK   11  A    between atoms: O_36  and  C_37
REMARK   12  A    between atoms: C_37  and  C_38
REMARK   13  A    between atoms: O_39  and  C_40
REMARK   14  A    between atoms: C_40  and  C_41
REMARK                            x       y       z     vdW  Elec       q    Type
REMARK                         _______ _______ _______ _____ _____    ______ ____
ROOT
ATOM      1  C   UNL     1       1.334  -0.946   3.492  0.00  0.00    +0.137 C 
ATOM      2  C   UNL     1       2.655  -0.425   2.928  0.00  0.00    +0.131 C 
ATOM      3  C   UNL     1       3.427   0.134   4.120  0.00  0.00    -0.034 C 
ATOM      4  C   UNL     1       3.622   1.423   3.879  0.00  0.00    -0.001 A 
ATOM      5  C   UNL     1       4.320   2.469   4.645  0.00  0.00    +0.010 A 
ATOM      6  C   UNL     1       4.325   3.712   4.096  0.00  0.00    +0.001 A 
ATOM      7  C   UNL     1       3.712   4.017   2.877  0.00  0.00    +0.002 A 
ATOM      8  C   UNL     1       3.050   3.118   2.105  0.00  0.00    +0.026 A 
ATOM      9  C   UNL     1       2.978   1.775   2.577  0.00  0.00    +0.043 A 
ATOM     10  N   UNL     1       2.419   0.714   2.031  0.00  0.00    -0.375 N 
ATOM     11  C   UNL     1       3.796  -0.739   5.288  0.00  0.00    +0.065 C 
ATOM     12  C   UNL     1       2.647  -1.653   5.627  0.00  0.00    +0.167 C 
ATOM     13  N   UNL     1       1.530  -1.718   4.710  0.00  0.00    -0.279 N 
ATOM     14  C   UNL     1       0.523  -2.579   5.072  0.00  0.00    +0.234 C 
ATOM     15  O   UNL     1      -0.436  -2.772   4.354  0.00  0.00    -0.274 OA
ATOM     16  C   UNL     1       0.666  -3.276   6.408  0.00  0.00    +0.203 C 
ATOM     17  N   UNL     1       1.117  -2.288   7.405  0.00  0.00    -0.291 N 
ATOM     18  C   UNL     1       2.139  -1.464   7.034  0.00  0.00    +0.237 C 
ATOM     19  O   UNL     1       2.610  -0.638   7.786  0.00  0.00    -0.274 OA
ATOM     20  H   UNL     1       1.934   0.681   1.191  0.00  0.00    +0.160 HD
ENDROOT
BRANCH   1  26
ATOM     21  C   UNL     1       1.153  -3.096   2.216  0.00  0.00    +0.125 A 
ATOM     22  C   UNL     1       0.536  -3.900   1.268  0.00  0.00    +0.046 A 
ATOM     23  C   UNL     1      -0.554  -3.426   0.566  0.00  0.00    +0.004 A 
ATOM     24  C   UNL     1      -1.032  -2.150   0.807  0.00  0.00    +0.001 A 
ATOM     25  C   UNL     1      -0.418  -1.347   1.750  0.00  0.00    +0.009 A 
ATOM     26  C   UNL     1       0.669  -1.819   2.459  0.00  0.00    +0.017 A 
BRANCH  21  27
ATOM     27  O   UNL     1       2.226  -3.561   2.908  0.00  0.00    -0.492 OA
BRANCH  27  29
ATOM     28  C   UNL     1       3.878  -5.231   3.477  0.00  0.00    +0.048 C 
ATOM     29  C   UNL     1       2.670  -4.885   2.605  0.00  0.00    +0.225 C 
ENDBRANCH  27  29
ENDBRANCH  21  27
ENDBRANCH   1  26
BRANCH  17  30
ATOM     30  C   UNL     1       0.496  -2.193   8.729  0.00  0.00    +0.108 C 
BRANCH  30  31
ATOM     31  C   UNL     1       1.232  -3.114   9.704  0.00  0.00    +0.024 C 
BRANCH  31  32
ATOM     32  C   UNL     1       0.585  -3.015  11.087  0.00  0.00    +0.063 C 
BRANCH  32  33
ATOM     33  C   UNL     1       1.321  -3.935  12.062  0.00  0.00    +0.250 C 
BRANCH  33  34
ATOM     34  O   UNL     1       2.660  -3.470  12.238  0.00  0.00    -0.352 OA
BRANCH  34  35
ATOM     35  C   UNL     1       3.536  -4.430  12.833  0.00  0.00    +0.159 C 
ATOM     36  C   UNL     1       4.967  -3.889  12.823  0.00  0.00    +0.034 C 
ENDBRANCH  34  35
ENDBRANCH  33  34
BRANCH  33  37
ATOM     37  O   UNL     1       0.646  -3.932  13.322  0.00  0.00    -0.352 OA
BRANCH  37  38
ATOM     38  C   UNL     1       0.852  -5.116  14.095  0.00  0.00    +0.159 C 
ATOM     39  C   UNL     1      -0.030  -5.069  15.345  0.00  0.00    +0.034 C 
ENDBRANCH  37  38
ENDBRANCH  33  37
ENDBRANCH  32  33
ENDBRANCH  31  32
ENDBRANCH  30  31
ENDBRANCH  17  30
TORSDOF 11
