REMARK  Name = ZINC21301675
REMARK  11 active torsions:
REMARK  status: ('A' for Active; 'I' for Inactive)
REMARK    1  A    between atoms: C_1  and  C_2
REMARK    2  A    between atoms: C_2  and  C_3
REMARK    3  A    between atoms: C_2  and  C_4
REMARK    4  A    between atoms: C_2  and  O_5
REMARK    5  A    between atoms: O_5  and  C_6
REMARK    6  A    between atoms: C_6  and  C_8
REMARK    7  A    between atoms: C_8  and  C_10
REMARK    8  A    between atoms: C_8  and  C_18
REMARK    9  A    between atoms: C_18  and  C_20
REMARK   10  A    between atoms: C_18  and  N_24
REMARK   11  A    between atoms: C_20  and  C_21
REMARK                            x       y       z     vdW  Elec       q    Type
REMARK                         _______ _______ _______ _____ _____    ______ ____
ROOT
ATOM      1  C   UNL     1      -2.470   0.845   0.098  0.00  0.00    +0.114 C 
ENDROOT
BRANCH   1   2
ATOM      2  C   UNL     1      -1.031   0.655  -0.306  0.00  0.00    -0.034 A 
ATOM      3  C   UNL     1      -0.405  -0.557  -0.082  0.00  0.00    +0.006 A 
ATOM      4  C   UNL     1       0.913  -0.735  -0.458  0.00  0.00    +0.022 A 
ATOM      5  C   UNL     1       1.609   0.303  -1.053  0.00  0.00    +0.059 A 
ATOM      6  C   UNL     1       0.983   1.518  -1.273  0.00  0.00    +0.060 A 
ATOM      7  C   UNL     1      -0.336   1.694  -0.896  0.00  0.00    +0.025 A 
ATOM      8 CL   UNL     1       1.854   2.820  -2.020  0.00  0.00    -0.082 Cl
ATOM      9 CL   UNL     1       3.265   0.080  -1.524  0.00  0.00    -0.082 Cl
ENDBRANCH   1   2
BRANCH   1  10
ATOM     10  C   UNL     1      -3.293   1.183  -1.118  0.00  0.00    +0.313 C 
ATOM     11  O   UNL     1      -2.825   1.876  -1.991  0.00  0.00    -0.250 OA
BRANCH  10  12
ATOM     12  O   UNL     1      -4.546   0.715  -1.232  0.00  0.00    -0.459 OA
BRANCH  12  14
ATOM     13  C   UNL     1      -4.534   0.565  -3.663  0.00  0.00    +0.055 C 
ATOM     14  C   UNL     1      -5.280   1.081  -2.430  0.00  0.00    +0.105 C 
ATOM     15  C   UNL     1      -6.677   0.460  -2.382  0.00  0.00    +0.055 C 
ATOM     16  C   UNL     1      -5.401   2.604  -2.509  0.00  0.00    +0.055 C 
ENDBRANCH  12  14
ENDBRANCH  10  12
ENDBRANCH   1  10
BRANCH   1  17
ATOM     17  C   UNL     1      -2.568   1.985   1.114  0.00  0.00    -0.046 C 
BRANCH  17  18
ATOM     18  N   UNL     1      -1.877   1.600   2.351  0.00  0.00    +0.381 N 
ATOM     19  H   UNL     1      -1.947   2.420   3.081  0.00  0.00    -0.090 HD
ATOM     20  H   UNL     1      -0.819   1.395   2.131  0.00  0.00    -0.090 HD
ATOM     21  H   UNL     1      -2.346   0.697   2.768  0.00  0.00    -0.090 HD
ENDBRANCH  17  18
BRANCH  17  22
ATOM     22  C   UNL     1      -4.040   2.270   1.420  0.00  0.00    +0.110 C 
BRANCH  22  23
ATOM     23  C   UNL     1      -4.140   3.450   2.353  0.00  0.00    +0.354 C 
ATOM     24  O   UNL     1      -3.137   4.005   2.734  0.00  0.00    -0.246 OA
ATOM     25  O   UNL     1      -5.343   3.883   2.760  0.00  0.00    -0.246 OA
ENDBRANCH  22  23
ENDBRANCH  17  22
ENDBRANCH   1  17
TORSDOF 8
