REMARK  Name = ZINC61908049
REMARK  2 active torsions:
REMARK  status: ('A' for Active; 'I' for Inactive)
REMARK    1  A    between atoms: C_9  and  C_17
REMARK    2  A    between atoms: C_24  and  C_27
REMARK                            x       y       z     vdW  Elec       q    Type
REMARK                         _______ _______ _______ _____ _____    ______ ____
ROOT
ATOM      1  C   UNL     1      -0.017   1.375   0.010  0.00  0.00    +0.001 A 
ATOM      2  C   UNL     1       1.172   2.087   0.002  0.00  0.00    +0.004 A 
ATOM      3  C   UNL     1       2.387   1.431  -0.019  0.00  0.00    +0.046 A 
ATOM      4  C   UNL     1       2.431   0.045  -0.031  0.00  0.00    +0.130 A 
ATOM      5  C   UNL     1       1.223  -0.676  -0.013  0.00  0.00    +0.039 A 
ATOM      6  C   UNL     1       0.002  -0.004   0.002  0.00  0.00    +0.013 A 
ATOM      7  C   UNL     1       1.296  -2.141  -0.004  0.00  0.00    +0.065 C 
ATOM      8  C   UNL     1       2.618  -2.759  -0.433  0.00  0.00    +0.113 C 
ATOM      9  C   UNL     1       2.782  -4.256  -0.116  0.00  0.00    +0.154 C 
ATOM     10  N   UNL     1       1.560  -4.942   0.333  0.00  0.00    -0.221 N 
ATOM     11  C   UNL     1       0.408  -4.248   0.514  0.00  0.00    +0.249 A 
ATOM     12  N   UNL     1      -0.518  -5.131   0.872  0.00  0.00    -0.198 NA
ATOM     13  C   UNL     1       0.016  -6.345   0.947  0.00  0.00    +0.247 A 
ATOM     14  N   UNL     1       1.286  -6.280   0.636  0.00  0.00    -0.156 NA
ATOM     15  N   UNL     1       0.322  -2.903   0.366  0.00  0.00    -0.215 NA
ATOM     16  C   UNL     1       3.692  -1.973   0.317  0.00  0.00    +0.221 C 
ATOM     17  O   UNL     1       3.623  -0.597  -0.064  0.00  0.00    -0.482 OA
ENDROOT
BRANCH   9  18
ATOM     18  C   UNL     1       3.281  -4.950  -1.356  0.00  0.00    -0.022 A 
ATOM     19  C   UNL     1       2.534  -4.912  -2.518  0.00  0.00    +0.007 A 
ATOM     20  C   UNL     1       2.992  -5.549  -3.656  0.00  0.00    +0.015 A 
ATOM     21  C   UNL     1       4.199  -6.225  -3.632  0.00  0.00    +0.018 A 
ATOM     22  C   UNL     1       4.947  -6.263  -2.469  0.00  0.00    +0.015 A 
ATOM     23  C   UNL     1       4.490  -5.621  -1.333  0.00  0.00    +0.007 A 
ATOM     24 BR   UNL     1       4.826  -7.097  -5.189  0.00  0.00    -0.050 Br
ENDBRANCH   9  18
BRANCH  16  25
ATOM     25  C   UNL     1       3.462  -2.096   1.801  0.00  0.00    +0.031 A 
ATOM     26  C   UNL     1       4.083  -2.902   2.697  0.00  0.00    +0.015 A 
ATOM     27  C   UNL     1       3.704  -2.845   4.025  0.00  0.00    +0.008 A 
ATOM     28  C   UNL     1       2.721  -1.986   4.392  0.00  0.00    +0.045 A 
ATOM     29  S   UNL     1       2.305  -1.215   2.837  0.00  0.00    -0.098 S 
ENDBRANCH  16  25
TORSDOF 2
