REMARK  Name = ZINC28678813
REMARK  8 active torsions:
REMARK  status: ('A' for Active; 'I' for Inactive)
REMARK    1  A    between atoms: C_1  and  C_2
REMARK    2  A    between atoms: C_5  and  C_8
REMARK    3  A    between atoms: C_11  and  S_14
REMARK    4  A    between atoms: N_12  and  N_13
REMARK    5  A    between atoms: S_14  and  C_15
REMARK    6  A    between atoms: C_15  and  C_17
REMARK    7  A    between atoms: C_15  and  C_18
REMARK    8  A    between atoms: N_20  and  C_21
REMARK                            x       y       z     vdW  Elec       q    Type
REMARK                         _______ _______ _______ _____ _____    ______ ____
ROOT
ATOM      1  C   UNL     1       1.067   2.188   0.056  0.00  0.00    +0.182 A 
ATOM      2  N   UNL     1       0.603   3.416   0.062  0.00  0.00    -0.127 NA
ATOM      3  N   UNL     1      -0.682   3.399   0.065  0.00  0.00    -0.121 NA
ATOM      4  C   UNL     1      -1.117   2.159   0.054  0.00  0.00    +0.209 A 
ATOM      5  N   UNL     1      -0.020   1.345   0.054  0.00  0.00    -0.224 N 
ENDROOT
BRANCH   1  10
ATOM      6  C   UNL     1       6.606   0.627   0.039  0.00  0.00    +0.044 C 
ATOM      7  C   UNL     1       5.156   1.036   0.043  0.00  0.00    -0.050 A 
ATOM      8  C   UNL     1       4.807   2.340  -0.261  0.00  0.00    +0.004 A 
ATOM      9  C   UNL     1       3.481   2.721  -0.259  0.00  0.00    +0.012 A 
ATOM     10  C   UNL     1       2.490   1.787   0.051  0.00  0.00    +0.021 A 
ATOM     11  C   UNL     1       2.850   0.475   0.362  0.00  0.00    +0.012 A 
ATOM     12  C   UNL     1       4.179   0.106   0.351  0.00  0.00    +0.004 A 
ENDBRANCH   1  10
BRANCH   5  13
ATOM     13  N   UNL     1      -0.005  -0.021   0.047  0.00  0.00    -0.295 N 
ATOM     14  H   UNL     1      -0.952  -0.581   0.046  0.00  0.00    +0.163 HD
ATOM     15  H   UNL     1       0.953  -0.560   0.042  0.00  0.00    +0.163 HD
ENDBRANCH   5  13
BRANCH   4  16
ATOM     16  S   UNL     1      -2.801   1.641   0.045  0.00  0.00    -0.072 S 
BRANCH  16  17
ATOM     17  C   UNL     1      -3.625   3.253   0.051  0.00  0.00    +0.137 C 
ATOM     18  C   UNL     1      -3.309   3.992  -1.251  0.00  0.00    +0.029 C 
BRANCH  17  19
ATOM     19  C   UNL     1      -5.114   3.056   0.169  0.00  0.00    +0.230 C 
ATOM     20  O   UNL     1      -5.609   1.986  -0.118  0.00  0.00    -0.274 OA
ATOM     21  N   UNL     1      -5.897   4.068   0.593  0.00  0.00    -0.283 N 
ATOM     22  H   UNL     1      -5.442   5.014   0.923  0.00  0.00    +0.155 HD
BRANCH  21  23
ATOM     23  C   UNL     1      -7.288   3.916   0.613  0.00  0.00    +0.053 A 
ATOM     24  C   UNL     1      -7.849   2.682   0.911  0.00  0.00    +0.044 A 
ATOM     25  C   UNL     1      -9.223   2.534   0.930  0.00  0.00    +0.043 A 
ATOM     26  C   UNL     1     -10.040   3.617   0.652  0.00  0.00    +0.021 A 
ATOM     27  C   UNL     1      -9.485   4.847   0.355  0.00  0.00    +0.023 A 
ATOM     28  C   UNL     1      -8.111   5.002   0.339  0.00  0.00    +0.062 A 
ATOM     29 CL   UNL     1      -7.415   6.549  -0.027  0.00  0.00    -0.082 Cl
ATOM     30 CL   UNL     1      -9.925   0.991   1.302  0.00  0.00    -0.083 Cl
ENDBRANCH  21  23
ENDBRANCH  17  19
ENDBRANCH  16  17
ENDBRANCH   4  16
TORSDOF 6
