REMARK  Name = ZINC38779565
REMARK  8 active torsions:
REMARK  status: ('A' for Active; 'I' for Inactive)
REMARK    1  A    between atoms: C_1  and  C_2
REMARK    2  A    between atoms: N_10  and  N_11
REMARK    3  A    between atoms: N_11  and  C_12
REMARK    4  A    between atoms: C_22  and  C_25
REMARK    5  A    between atoms: C_28  and  C_31
REMARK    6  A    between atoms: C_31  and  C_32
REMARK    7  A    between atoms: C_31  and  C_33
REMARK    8  A    between atoms: C_31  and  C_34
REMARK                            x       y       z     vdW  Elec       q    Type
REMARK                         _______ _______ _______ _____ _____    ______ ____
ROOT
ATOM      1  C   UNL     1      -0.018   1.503   0.010  0.00  0.00    +0.045 C 
ATOM      2  C   UNL     1       0.002  -0.004   0.002  0.00  0.00    -0.029 A 
ATOM      3  C   UNL     1       0.006  -0.682  -1.203  0.00  0.00    +0.051 A 
ATOM      4  C   UNL     1       0.025  -2.068  -1.220  0.00  0.00    +0.131 A 
ATOM      5  C   UNL     1       0.045  -2.768  -0.006  0.00  0.00    +0.041 A 
ATOM      6  C   UNL     1       0.039  -2.079   1.203  0.00  0.00    +0.033 A 
ATOM      7  C   UNL     1       0.023  -0.697   1.201  0.00  0.00    +0.045 A 
ATOM      8 CL   UNL     1       0.022   0.172   2.704  0.00  0.00    -0.083 Cl
ATOM      9  C   UNL     1       0.077  -4.248  -0.032  0.00  0.00    +0.073 C 
ATOM     10  N   UNL     1       0.324  -4.944   1.034  0.00  0.00    -0.188 NA
ATOM     11  C   UNL     1      -0.196  -4.907  -1.373  0.00  0.00    +0.107 C 
ATOM     12  C   UNL     1       0.517  -4.069  -2.443  0.00  0.00    +0.209 C 
ATOM     13  O   UNL     1       0.022  -2.731  -2.404  0.00  0.00    -0.483 OA
ENDROOT
BRANCH  12  14
ATOM     14  C   UNL     1       0.255  -4.662  -3.804  0.00  0.00    -0.007 A 
ATOM     15  C   UNL     1      -0.891  -4.321  -4.497  0.00  0.00    +0.007 A 
ATOM     16  C   UNL     1      -1.131  -4.865  -5.745  0.00  0.00    +0.004 A 
ATOM     17  C   UNL     1      -0.225  -5.750  -6.300  0.00  0.00    -0.042 A 
ATOM     18  C   UNL     1       0.922  -6.090  -5.606  0.00  0.00    +0.004 A 
ATOM     19  C   UNL     1       1.164  -5.542  -4.360  0.00  0.00    +0.007 A 
BRANCH  17  20
ATOM     20  C   UNL     1      -0.487  -6.344  -7.660  0.00  0.00    -0.013 C 
ATOM     21  C   UNL     1      -0.589  -5.222  -8.695  0.00  0.00    +0.015 C 
ATOM     22  C   UNL     1       0.661  -7.282  -8.036  0.00  0.00    +0.015 C 
ATOM     23  C   UNL     1      -1.799  -7.130  -7.628  0.00  0.00    +0.015 C 
ENDBRANCH  17  20
ENDBRANCH  12  14
BRANCH  10  24
ATOM     24  N   UNL     1       0.346  -6.344   0.967  0.00  0.00    -0.229 N 
ATOM     25  H   UNL     1       0.175  -6.792   0.124  0.00  0.00    +0.172 HD
BRANCH  24  26
ATOM     26  C   UNL     1       0.625  -7.130   2.171  0.00  0.00    +0.283 C 
ATOM     27  N   UNL     1       2.061  -7.428   2.256  0.00  0.00    -0.347 N 
ATOM     28  C   UNL     1       2.192  -8.723   2.236  0.00  0.00    +0.061 A 
ATOM     29  C   UNL     1       3.363  -9.609   2.291  0.00  0.00    +0.027 A 
ATOM     30  C   UNL     1       3.189 -10.945   2.250  0.00  0.00    +0.002 A 
ATOM     31  C   UNL     1       1.919 -11.542   2.155  0.00  0.00    +0.002 A 
ATOM     32  C   UNL     1       0.780 -10.822   2.098  0.00  0.00    +0.027 A 
ATOM     33  C   UNL     1       0.848  -9.354   2.136  0.00  0.00    +0.061 A 
ATOM     34  N   UNL     1      -0.063  -8.425   2.099  0.00  0.00    -0.347 N 
ATOM     35  H   UNL     1       2.779  -6.779   2.316  0.00  0.00    +0.163 HD
ATOM     36  H   UNL     1      -1.021  -8.563   2.034  0.00  0.00    +0.163 HD
ENDBRANCH  24  26
ENDBRANCH  10  24
TORSDOF 4
