REMARK  Name = ZINC23360031
REMARK  6 active torsions:
REMARK  status: ('A' for Active; 'I' for Inactive)
REMARK    1  A    between atoms: C_4  and  C_7
REMARK    2  A    between atoms: C_7  and  C_9
REMARK    3  A    between atoms: C_7  and  N_23
REMARK    4  A    between atoms: C_17  and  C_19
REMARK    5  A    between atoms: C_24  and  C_26
REMARK    6  A    between atoms: C_26  and  C_27
REMARK                            x       y       z     vdW  Elec       q    Type
REMARK                         _______ _______ _______ _____ _____    ______ ____
ROOT
ATOM      1  C   UNL     1       1.151   3.592   0.010  0.00  0.00    +0.134 C 
ENDROOT
BRANCH   1   2
ATOM      2  C   UNL     1       1.377   4.105  -1.389  0.00  0.00    -0.021 A 
ATOM      3  C   UNL     1       2.666   4.163  -1.901  0.00  0.00    +0.008 A 
ATOM      4  C   UNL     1       2.892   4.620  -3.169  0.00  0.00    +0.030 A 
ATOM      5  C   UNL     1       1.819   5.045  -3.957  0.00  0.00    +0.089 A 
ATOM      6  C   UNL     1       0.515   4.991  -3.437  0.00  0.00    +0.067 A 
ATOM      7  C   UNL     1       0.304   4.519  -2.149  0.00  0.00    +0.033 A 
ATOM      8  N   UNL     1      -0.313   5.468  -4.434  0.00  0.00    -0.335 N 
ATOM      9  H   UNL     1      -1.398   5.526  -4.266  0.00  0.00    +0.167 HD
ATOM     10  C   UNL     1       0.475   5.788  -5.495  0.00  0.00    +0.213 A 
ATOM     11  N   UNL     1       1.722   5.541  -5.217  0.00  0.00    -0.224 NA
BRANCH  10  12
ATOM     12  C   UNL     1      -0.023   6.348  -6.803  0.00  0.00    +0.450 C 
ATOM     13  F   UNL     1       0.982   6.240  -7.770  0.00  0.00    -0.163 F 
ATOM     14  F   UNL     1      -1.149   5.630  -7.218  0.00  0.00    -0.163 F 
ATOM     15  F   UNL     1      -0.364   7.694  -6.634  0.00  0.00    -0.163 F 
ENDBRANCH  10  12
ENDBRANCH   1   2
BRANCH   1  19
ATOM     16  C   UNL     1       1.208  -0.679  -0.014  0.00  0.00    +0.000 A 
ATOM     17  C   UNL     1       0.002  -0.004   0.002  0.00  0.00    +0.000 A 
ATOM     18  C   UNL     1      -0.017   1.378   0.010  0.00  0.00    +0.006 A 
ATOM     19  C   UNL     1       1.171   2.086   0.002  0.00  0.00    -0.023 A 
ATOM     20  C   UNL     1       2.377   1.411  -0.014  0.00  0.00    +0.006 A 
ATOM     21  C   UNL     1       2.396   0.029  -0.021  0.00  0.00    +0.000 A 
ENDBRANCH   1  19
BRANCH   1  22
ATOM     22  N   UNL     1       2.210   4.090   0.890  0.00  0.00    -0.304 N 
ATOM     23  C   UNL     1       1.986   4.209   2.214  0.00  0.00    +0.214 C 
ATOM     24  O   UNL     1       0.907   3.904   2.676  0.00  0.00    -0.276 OA
ATOM     25  H   UNL     1       3.189   4.368   0.471  0.00  0.00    +0.150 HD
BRANCH  23  26
ATOM     26  C   UNL     1       3.076   4.722   3.120  0.00  0.00    +0.103 C 
BRANCH  26  27
ATOM     27  C   UNL     1       2.566   4.759   4.562  0.00  0.00    +0.020 C 
ATOM     28  C   UNL     1       3.639   5.362   5.498  0.00  0.00    +0.012 C 
ATOM     29  C   UNL     1       3.443   4.509   6.774  0.00  0.00    +0.027 C 
ATOM     30  C   UNL     1       2.825   3.220   6.285  0.00  0.00    -0.031 C 
ATOM     31  C   UNL     1       2.346   3.356   5.079  0.00  0.00    -0.027 C 
ENDBRANCH  26  27
ENDBRANCH  23  26
ENDBRANCH   1  22
TORSDOF 6
