REMARK  Name = ZINC04851730
REMARK  3 active torsions:
REMARK  status: ('A' for Active; 'I' for Inactive)
REMARK    1  A    between atoms: C_1  and  C_2
REMARK    2  A    between atoms: C_7  and  C_8
REMARK    3  A    between atoms: N_17  and  C_27
REMARK                            x       y       z     vdW  Elec       q    Type
REMARK                         _______ _______ _______ _____ _____    ______ ____
ROOT
ATOM      1  C   UNL     1      -5.884   1.299   0.348  0.00  0.00    +0.093 C 
ATOM      2  C   UNL     1      -4.613   0.504   0.417  0.00  0.00    +0.067 A 
ATOM      3  C   UNL     1      -4.662  -0.901   0.477  0.00  0.00    +0.260 A 
ATOM      4  O   UNL     1      -5.735  -1.478   0.464  0.00  0.00    -0.267 OA
ATOM      5  N   UNL     1      -3.514  -1.603   0.548  0.00  0.00    -0.274 N 
ATOM      6  H   UNL     1      -3.547  -2.602   0.592  0.00  0.00    +0.173 HD
ATOM      7  C   UNL     1      -2.325  -0.974   0.561  0.00  0.00    +0.335 A 
ATOM      8  O   UNL     1      -1.302  -1.627   0.627  0.00  0.00    -0.246 OA
ATOM      9  N   UNL     1      -2.252   0.369   0.500  0.00  0.00    -0.250 N 
ATOM     10  C   UNL     1      -3.400   1.124   0.431  0.00  0.00    +0.121 A 
ATOM     11  N   UNL     1      -3.325   2.493   0.369  0.00  0.00    -0.303 N 
ATOM     12  C   UNL     1      -4.383   3.230  -0.090  0.00  0.00    +0.017 C 
ATOM     13  C   UNL     1      -5.626   2.706  -0.118  0.00  0.00    +0.024 C 
ATOM     14  C   UNL     1      -6.719   3.456  -0.588  0.00  0.00    +0.162 C 
ATOM     15  O   UNL     1      -7.822   2.947  -0.619  0.00  0.00    -0.292 OA
ATOM     16  C   UNL     1      -6.547   4.876  -1.054  0.00  0.00    +0.080 C 
ATOM     17  C   UNL     1      -5.360   5.503  -0.315  0.00  0.00    +0.014 C 
ATOM     18  C   UNL     1      -4.122   4.638  -0.567  0.00  0.00    +0.051 C 
ATOM     19  H   UNL     1      -2.514   2.943   0.653  0.00  0.00    +0.153 HD
ENDROOT
BRANCH   1  26
ATOM     20  C   UNL     1      -8.524   0.208   0.780  0.00  0.00    +0.044 C 
ATOM     21  C   UNL     1      -7.769   0.832   1.926  0.00  0.00    -0.046 A 
ATOM     22  C   UNL     1      -8.341   0.883   3.184  0.00  0.00    +0.003 A 
ATOM     23  C   UNL     1      -7.649   1.455   4.235  0.00  0.00    +0.000 A 
ATOM     24  C   UNL     1      -6.385   1.977   4.028  0.00  0.00    +0.000 A 
ATOM     25  C   UNL     1      -5.812   1.922   2.771  0.00  0.00    +0.005 A 
ATOM     26  C   UNL     1      -6.507   1.354   1.719  0.00  0.00    -0.032 A 
ENDBRANCH   1  26
BRANCH   9  27
ATOM     27  C   UNL     1      -1.002   1.000   0.513  0.00  0.00    +0.053 A 
ATOM     28  C   UNL     1      -0.246   1.023   1.678  0.00  0.00    +0.026 A 
ATOM     29  C   UNL     1       0.989   1.642   1.687  0.00  0.00    +0.002 A 
ATOM     30  C   UNL     1       1.470   2.243   0.538  0.00  0.00    +0.000 A 
ATOM     31  C   UNL     1       0.718   2.227  -0.622  0.00  0.00    +0.002 A 
ATOM     32  C   UNL     1      -0.518   1.609  -0.637  0.00  0.00    +0.026 A 
ENDBRANCH   9  27
TORSDOF 2
