REMARK  Name = ZINC28629385
REMARK  9 active torsions:
REMARK  status: ('A' for Active; 'I' for Inactive)
REMARK    1  A    between atoms: C_1  and  C_2
REMARK    2  A    between atoms: C_5  and  C_8
REMARK    3  A    between atoms: C_8  and  O_32
REMARK    4  A    between atoms: C_9  and  C_26
REMARK    5  A    between atoms: C_11  and  C_17
REMARK    6  A    between atoms: C_20  and  C_23
REMARK    7  A    between atoms: C_23  and  C_24
REMARK    8  A    between atoms: C_23  and  C_25
REMARK    9  A    between atoms: C_26  and  C_28
REMARK                            x       y       z     vdW  Elec       q    Type
REMARK                         _______ _______ _______ _____ _____    ______ ____
ROOT
ATOM      1  C   UNL     1       0.903   0.582  -0.415  0.00  0.00    +0.172 C 
ATOM      2  C   UNL     1       1.295  -0.043   0.927  0.00  0.00    +0.144 C 
ATOM      3  C   UNL     1       0.111   0.088   1.891  0.00  0.00    +0.120 C 
ATOM      4  N   UNL     1      -1.074  -0.518   1.282  0.00  0.00    -0.292 N 
ATOM      5  C   UNL     1      -1.233  -0.552  -0.050  0.00  0.00    +0.302 C 
ATOM      6  O   UNL     1      -2.241  -1.058  -0.504  0.00  0.00    -0.253 OA
ATOM      7  N   UNL     1      -0.325  -0.050  -0.900  0.00  0.00    -0.267 N 
ATOM      8  H   UNL     1      -1.856  -0.958   1.918  0.00  0.00    +0.151 HD
ATOM      9  H   UNL     1      -0.517  -0.122  -1.980  0.00  0.00    +0.153 HD
ENDROOT
BRANCH   1  14
ATOM     10  C   UNL     1       0.010   6.249   0.282  0.00  0.00    +0.044 C 
ATOM     11  C   UNL     1       0.243   4.771   0.101  0.00  0.00    -0.050 A 
ATOM     12  C   UNL     1      -0.782   3.960  -0.349  0.00  0.00    +0.004 A 
ATOM     13  C   UNL     1      -0.569   2.605  -0.516  0.00  0.00    +0.008 A 
ATOM     14  C   UNL     1       0.670   2.060  -0.233  0.00  0.00    +0.003 A 
ATOM     15  C   UNL     1       1.694   2.870   0.222  0.00  0.00    +0.008 A 
ATOM     16  C   UNL     1       1.481   4.226   0.385  0.00  0.00    +0.004 A 
ENDBRANCH   1  14
BRANCH   3  17
ATOM     17  C   UNL     1      -0.154   1.545   2.168  0.00  0.00    -0.026 A 
ATOM     18  C   UNL     1      -1.410   2.075   1.938  0.00  0.00    +0.006 A 
ATOM     19  C   UNL     1      -1.655   3.411   2.196  0.00  0.00    +0.004 A 
ATOM     20  C   UNL     1      -0.641   4.219   2.674  0.00  0.00    -0.045 A 
ATOM     21  C   UNL     1       0.617   3.691   2.899  0.00  0.00    +0.004 A 
ATOM     22  C   UNL     1       0.860   2.354   2.646  0.00  0.00    +0.006 A 
BRANCH  20  23
ATOM     23  C   UNL     1      -0.906   5.677   2.950  0.00  0.00    +0.013 C 
ATOM     24  C   UNL     1      -2.157   6.121   2.189  0.00  0.00    +0.012 C 
ATOM     25  C   UNL     1      -1.123   5.880   4.451  0.00  0.00    +0.012 C 
ENDBRANCH  20  23
ENDBRANCH   3  17
BRANCH   2  26
ATOM     26  C   UNL     1       1.632  -1.499   0.728  0.00  0.00    +0.245 C 
ATOM     27  O   UNL     1       1.162  -2.105  -0.205  0.00  0.00    -0.287 OA
BRANCH  26  28
ATOM     28  C   UNL     1       2.554  -2.198   1.694  0.00  0.00    +0.451 C 
ATOM     29  F   UNL     1       2.714  -3.532   1.303  0.00  0.00    -0.163 F 
ATOM     30  F   UNL     1       3.799  -1.560   1.693  0.00  0.00    -0.163 F 
ATOM     31  F   UNL     1       2.006  -2.151   2.980  0.00  0.00    -0.163 F 
ENDBRANCH  26  28
ENDBRANCH   2  26
BRANCH   1  32
ATOM     32  O   UNL     1       1.953   0.378  -1.363  0.00  0.00    -0.367 OA
ATOM     33  H   UNL     1       2.265  -0.644  -1.625  0.00  0.00    +0.212 HD
ENDBRANCH   1  32
TORSDOF 6
