REMARK  Name = ZINC18045308
REMARK  7 active torsions:
REMARK  status: ('A' for Active; 'I' for Inactive)
REMARK    1  A    between atoms: C_1  and  C_2
REMARK    2  A    between atoms: C_7  and  N_8
REMARK    3  A    between atoms: C_13  and  C_27
REMARK    4  A    between atoms: N_15  and  C_21
REMARK    5  A    between atoms: C_31  and  O_34
REMARK    6  A    between atoms: C_32  and  O_33
REMARK    7  A    between atoms: O_34  and  C_35
REMARK                            x       y       z     vdW  Elec       q    Type
REMARK                         _______ _______ _______ _____ _____    ______ ____
ROOT
ATOM      1  N   UNL     1      -0.510   0.545   1.657  0.00  0.00    -0.208 N 
ATOM      2  C   UNL     1      -1.553   0.873   2.429  0.00  0.00    +0.235 C 
ATOM      3  O   UNL     1      -2.684   1.061   2.037  0.00  0.00    -0.274 OA
ATOM      4  C   UNL     1      -1.099   0.973   3.867  0.00  0.00    +0.146 C 
ATOM      5  C   UNL     1      -1.173   2.447   4.327  0.00  0.00    +0.161 C 
ATOM      6  N   UNL     1       0.150   2.656   4.966  0.00  0.00    -0.244 N 
ATOM      7  O   UNL     1       1.065   1.935   4.140  0.00  0.00    -0.257 OA
ATOM      8  C   UNL     1       0.423   0.675   3.787  0.00  0.00    +0.249 C 
ATOM      9  C   UNL     1       0.644   0.395   2.317  0.00  0.00    +0.259 C 
ATOM     10  O   UNL     1       1.703   0.086   1.814  0.00  0.00    -0.272 OA
ENDROOT
BRANCH   1  17
ATOM     11  C   UNL     1      -0.100   2.803  -0.027  0.00  0.00    +0.045 C 
ATOM     12  C   UNL     1      -0.427   1.442  -0.586  0.00  0.00    -0.029 A 
ATOM     13  C   UNL     1      -0.530   1.262  -1.952  0.00  0.00    +0.005 A 
ATOM     14  C   UNL     1      -0.830   0.014  -2.465  0.00  0.00    +0.000 A 
ATOM     15  C   UNL     1      -1.028  -1.058  -1.614  0.00  0.00    +0.002 A 
ATOM     16  C   UNL     1      -0.926  -0.884  -0.248  0.00  0.00    +0.024 A 
ATOM     17  C   UNL     1      -0.620   0.367   0.271  0.00  0.00    +0.047 A 
ENDBRANCH   1  17
BRANCH   6  18
ATOM     18  C   UNL     1       0.435   3.393   6.117  0.00  0.00    +0.065 A 
ATOM     19  C   UNL     1       1.113   2.799   7.174  0.00  0.00    +0.028 A 
ATOM     20  C   UNL     1       1.394   3.530   8.311  0.00  0.00    +0.002 A 
ATOM     21  C   UNL     1       1.002   4.854   8.398  0.00  0.00    +0.000 A 
ATOM     22  C   UNL     1       0.327   5.449   7.348  0.00  0.00    +0.002 A 
ATOM     23  C   UNL     1       0.048   4.724   6.205  0.00  0.00    +0.028 A 
ENDBRANCH   6  18
BRANCH   5  24
ATOM     24  C   UNL     1      -2.288   2.642   5.321  0.00  0.00    +0.023 A 
ATOM     25  C   UNL     1      -2.089   2.328   6.653  0.00  0.00    +0.009 A 
ATOM     26  C   UNL     1      -3.110   2.506   7.568  0.00  0.00    +0.004 A 
ATOM     27  C   UNL     1      -4.335   2.998   7.155  0.00  0.00    +0.049 A 
ATOM     28  C   UNL     1      -4.540   3.315   5.822  0.00  0.00    +0.162 A 
ATOM     29  C   UNL     1      -3.510   3.142   4.902  0.00  0.00    +0.164 A 
BRANCH  29  30
ATOM     30  O   UNL     1      -3.705   3.456   3.593  0.00  0.00    -0.503 OA
ATOM     31  H   UNL     1      -4.044   2.725   3.059  0.00  0.00    +0.292 HD
ENDBRANCH  29  30
BRANCH  28  32
ATOM     32  O   UNL     1      -5.744   3.799   5.414  0.00  0.00    -0.491 OA
ATOM     33  C   UNL     1      -6.752   3.956   6.415  0.00  0.00    +0.277 C 
ENDBRANCH  28  32
ENDBRANCH   5  24
TORSDOF 5
