REMARK  Name = ZINC13135650
REMARK  3 active torsions:
REMARK  status: ('A' for Active; 'I' for Inactive)
REMARK    1  A    between atoms: C_1  and  C_2
REMARK    2  A    between atoms: C_22  and  C_30
REMARK    3  A    between atoms: C_30  and  C_32
REMARK                            x       y       z     vdW  Elec       q    Type
REMARK                         _______ _______ _______ _____ _____    ______ ____
ROOT
ATOM      1  C   UNL     1      -0.182   1.466   0.003  0.00  0.00    +0.044 C 
ATOM      2  C   UNL     1      -0.170  -0.041   0.008  0.00  0.00    -0.050 A 
ATOM      3  C   UNL     1      -0.219  -0.738  -1.186  0.00  0.00    +0.005 A 
ATOM      4  C   UNL     1      -0.208  -2.117  -1.188  0.00  0.00    +0.024 A 
ATOM      5  C   UNL     1      -0.147  -2.819   0.015  0.00  0.00    +0.036 A 
ATOM      6  C   UNL     1      -0.098  -2.107   1.208  0.00  0.00    -0.026 A 
ATOM      7  C   UNL     1      -0.102  -0.730   1.206  0.00  0.00    +0.008 A 
ATOM      8  C   UNL     1      -0.042  -3.137   2.304  0.00  0.00    +0.060 C 
ATOM      9  C   UNL     1      -0.066  -4.463   1.586  0.00  0.00    +0.212 C 
ATOM     10  O   UNL     1      -0.036  -5.562   2.097  0.00  0.00    -0.277 OA
ATOM     11  N   UNL     1      -0.125  -4.191   0.270  0.00  0.00    -0.286 N 
ATOM     12  C   UNL     1       1.217  -2.988   3.150  0.00  0.00    +0.085 C 
ATOM     13  C   UNL     1       1.722  -1.574   3.174  0.00  0.00    -0.011 A 
ATOM     14  C   UNL     1       1.165  -0.374   3.556  0.00  0.00    +0.006 A 
ATOM     15  C   UNL     1       1.902   0.793   3.459  0.00  0.00    +0.000 A 
ATOM     16  C   UNL     1       3.199   0.751   2.980  0.00  0.00    +0.002 A 
ATOM     17  C   UNL     1       3.761  -0.449   2.597  0.00  0.00    +0.023 A 
ATOM     18  C   UNL     1       3.026  -1.629   2.690  0.00  0.00    +0.038 A 
ATOM     19  N   UNL     1       3.368  -2.945   2.370  0.00  0.00    -0.285 N 
ATOM     20  C   UNL     1       2.360  -3.805   2.612  0.00  0.00    +0.228 C 
ATOM     21  O   UNL     1       2.371  -5.004   2.430  0.00  0.00    -0.275 OA
ATOM     22  C   UNL     1       0.801  -3.461   4.550  0.00  0.00    +0.066 C 
ATOM     23  C   UNL     1      -0.719  -3.228   4.599  0.00  0.00    -0.055 C 
ATOM     24  N   UNL     1      -1.188  -3.009   3.214  0.00  0.00    +0.395 N 
ATOM     25  C   UNL     1      -1.741  -1.641   3.119  0.00  0.00    -0.076 C 
ATOM     26  C   UNL     1      -2.147  -1.273   4.568  0.00  0.00    -0.020 C 
ATOM     27  C   UNL     1      -1.011  -1.944   5.402  0.00  0.00    -0.016 C 
ATOM     28  H   UNL     1      -0.151  -4.870  -0.422  0.00  0.00    +0.155 HD
ATOM     29  H   UNL     1       4.231  -3.209   2.015  0.00  0.00    +0.155 HD
ATOM     30  H   UNL     1      -1.898  -3.685   2.976  0.00  0.00    -0.079 HD
ENDROOT
BRANCH  22  31
ATOM     31  C   UNL     1       1.118  -4.923   4.728  0.00  0.00    +0.166 C 
ATOM     32  O   UNL     1       0.278  -5.761   4.476  0.00  0.00    -0.292 OA
BRANCH  31  33
ATOM     33  C   UNL     1       2.446  -5.335   5.207  0.00  0.00    +0.018 A 
ATOM     34  C   UNL     1       3.417  -4.358   5.504  0.00  0.00    +0.012 A 
ATOM     35  C   UNL     1       4.649  -4.714   5.947  0.00  0.00    +0.009 A 
ATOM     36  C   UNL     1       4.972  -6.074   6.115  0.00  0.00    -0.018 A 
ATOM     37  C   UNL     1       6.241  -6.465   6.572  0.00  0.00    +0.008 A 
ATOM     38  C   UNL     1       6.525  -7.787   6.726  0.00  0.00    +0.001 A 
ATOM     39  C   UNL     1       5.575  -8.764   6.436  0.00  0.00    +0.001 A 
ATOM     40  C   UNL     1       4.335  -8.425   5.991  0.00  0.00    +0.008 A 
ATOM     41  C   UNL     1       4.005  -7.068   5.820  0.00  0.00    -0.017 A 
ATOM     42  C   UNL     1       2.734  -6.683   5.369  0.00  0.00    +0.020 A 
ENDBRANCH  31  33
ENDBRANCH  22  31
TORSDOF 2
