REMARK  Name = ZINC38806208
REMARK  9 active torsions:
REMARK  status: ('A' for Active; 'I' for Inactive)
REMARK    1  A    between atoms: C_1  and  C_2
REMARK    2  A    between atoms: C_2  and  C_28
REMARK    3  A    between atoms: C_5  and  C_24
REMARK    4  A    between atoms: C_6  and  N_13
REMARK    5  A    between atoms: C_9  and  C_11
REMARK    6  A    between atoms: C_9  and  C_12
REMARK    7  A    between atoms: C_14  and  C_16
REMARK    8  A    between atoms: C_24  and  O_26
REMARK    9  A    between atoms: O_26  and  C_27
REMARK                            x       y       z     vdW  Elec       q    Type
REMARK                         _______ _______ _______ _____ _____    ______ ____
ROOT
ATOM      1  C   UNL     1      -0.019   1.526   0.010  0.00  0.00    -0.010 C 
ATOM      2  C   UNL     1       0.002  -0.004   0.002  0.00  0.00    -0.069 C 
ATOM      3  C   UNL     1      -1.434  -0.533  -0.096  0.00  0.00    +0.024 C 
ATOM      4  C   UNL     1      -2.142  -0.137   1.190  0.00  0.00    -0.024 A 
ATOM      5  C   UNL     1      -3.548   0.162   1.354  0.00  0.00    +0.091 A 
ATOM      6  C   UNL     1      -3.973   0.508   2.631  0.00  0.00    +0.086 A 
ATOM      7  S   UNL     1      -2.577   0.437   3.563  0.00  0.00    -0.079 S 
ATOM      8  C   UNL     1      -1.412  -0.053   2.327  0.00  0.00    -0.016 A 
ATOM      9  C   UNL     1       0.047  -0.332   2.463  0.00  0.00    -0.041 C 
ATOM     10  N   UNL     1       0.700  -0.526   1.169  0.00  0.00    +0.389 N 
ATOM     11  C   UNL     1       0.719   0.817   3.228  0.00  0.00    -0.005 C 
ATOM     12  C   UNL     1       0.217  -1.617   3.297  0.00  0.00    -0.005 C 
ATOM     13  C   UNL     1       0.759  -0.459  -1.260  0.00  0.00    -0.010 C 
ATOM     14  H   UNL     1       0.857  -1.526   1.032  0.00  0.00    -0.084 HD
ATOM     15  H   UNL     1       1.629  -0.104   1.207  0.00  0.00    -0.084 HD
ENDROOT
BRANCH   6  16
ATOM     16  N   UNL     1      -5.255   0.835   3.041  0.00  0.00    -0.275 N 
ATOM     17  C   UNL     1      -5.491   1.148   4.330  0.00  0.00    +0.250 C 
ATOM     18  O   UNL     1      -4.579   1.143   5.134  0.00  0.00    -0.270 OA
ATOM     19  H   UNL     1      -5.982   0.840   2.399  0.00  0.00    +0.156 HD
BRANCH  17  20
ATOM     20  C   UNL     1      -6.858   1.497   4.767  0.00  0.00    +0.056 A 
ATOM     21  C   UNL     1      -7.909   1.498   3.847  0.00  0.00    +0.029 A 
ATOM     22  C   UNL     1      -9.184   1.825   4.262  0.00  0.00    +0.019 A 
ATOM     23  C   UNL     1      -9.423   2.151   5.587  0.00  0.00    +0.017 A 
ATOM     24  C   UNL     1      -8.387   2.152   6.503  0.00  0.00    +0.022 A 
ATOM     25  C   UNL     1      -7.107   1.821   6.103  0.00  0.00    +0.053 A 
ATOM     26 CL   UNL     1      -5.809   1.817   7.256  0.00  0.00    -0.083 Cl
ATOM     27 BR   UNL     1     -10.609   1.827   3.018  0.00  0.00    -0.050 Br
ENDBRANCH  17  20
ENDBRANCH   6  16
BRANCH   5  28
ATOM     28  C   UNL     1      -4.489   0.104   0.234  0.00  0.00    +0.342 C 
ATOM     29  O   UNL     1      -5.072  -0.933  -0.018  0.00  0.00    -0.245 OA
BRANCH  28  30
ATOM     30  O   UNL     1      -4.711   1.202  -0.519  0.00  0.00    -0.464 OA
ATOM     31  C   UNL     1      -5.642   1.073  -1.595  0.00  0.00    +0.280 C 
ENDBRANCH  28  30
ENDBRANCH   5  28
TORSDOF 4
