REMARK  Name = ZINC09461981
REMARK  8 active torsions:
REMARK  status: ('A' for Active; 'I' for Inactive)
REMARK    1  A    between atoms: C_6  and  C_7
REMARK    2  A    between atoms: C_7  and  C_9
REMARK    3  A    between atoms: C_7  and  N_51
REMARK    4  A    between atoms: C_9  and  N_10
REMARK    5  A    between atoms: N_10  and  C_11
REMARK    6  A    between atoms: C_14  and  S_20
REMARK    7  A    between atoms: C_16  and  N_17
REMARK    8  A    between atoms: S_20  and  C_23
REMARK                            x       y       z     vdW  Elec       q    Type
REMARK                         _______ _______ _______ _____ _____    ______ ____
ROOT
ATOM      1  N   UNL     1       0.934   2.629   1.181  0.00  0.00    -0.343 N 
ATOM      2  H   UNL     1       1.604   2.535   1.876  0.00  0.00    +0.146 HD
ENDROOT
BRANCH   1   3
ATOM      3  C   UNL     1      -0.115   3.538   1.341  0.00  0.00    +0.058 A 
ATOM      4  C   UNL     1      -1.153   3.571   0.418  0.00  0.00    +0.027 A 
ATOM      5  C   UNL     1      -2.189   4.470   0.579  0.00  0.00    +0.029 A 
ATOM      6  C   UNL     1      -2.192   5.338   1.656  0.00  0.00    +0.100 A 
ATOM      7  C   UNL     1      -1.160   5.308   2.575  0.00  0.00    +0.062 A 
ATOM      8  C   UNL     1      -0.124   4.406   2.424  0.00  0.00    +0.149 A 
BRANCH   8   9
ATOM      9  N   UNL     1       0.977   4.370   3.412  0.00  0.00    +0.058 N 
ATOM     10  O   UNL     1       0.915   5.054   4.418  0.00  0.00    -0.126 OA
ATOM     11  O   UNL     1       1.945   3.657   3.219  0.00  0.00    -0.126 OA
ENDBRANCH   8   9
BRANCH   6  12
ATOM     12  S   UNL     1      -3.515   6.485   1.857  0.00  0.00    +0.091 S 
ATOM     13  O   UNL     1      -2.954   7.558   2.600  0.00  0.00    -0.161 OA
ATOM     14  O   UNL     1      -4.014   6.696   0.543  0.00  0.00    -0.161 OA
BRANCH  12  15
ATOM     15  C   UNL     1      -4.745   5.606   2.859  0.00  0.00    +0.526 C 
ATOM     16  F   UNL     1      -4.178   5.250   4.087  0.00  0.00    -0.150 F 
ATOM     17  F   UNL     1      -5.848   6.439   3.078  0.00  0.00    -0.150 F 
ATOM     18  F   UNL     1      -5.159   4.453   2.184  0.00  0.00    -0.150 F 
ENDBRANCH  12  15
ENDBRANCH   6  12
ENDBRANCH   1   3
BRANCH   1  19
ATOM     19  C   UNL     1       1.018   1.813  -0.033  0.00  0.00    +0.091 C 
BRANCH  19  20
ATOM     20  C   UNL     1       2.314   0.999  -0.011  0.00  0.00    -0.020 C 
BRANCH  20  26
ATOM     21  C   UNL     1       3.907   2.485  -1.244  0.00  0.00    +0.005 A 
ATOM     22  C   UNL     1       4.986   3.347  -1.274  0.00  0.00    +0.038 A 
ATOM     23  C   UNL     1       5.663   3.651  -0.105  0.00  0.00    +0.123 A 
ATOM     24  C   UNL     1       5.253   3.094   1.095  0.00  0.00    +0.038 A 
ATOM     25  C   UNL     1       4.169   2.237   1.124  0.00  0.00    +0.005 A 
ATOM     26  C   UNL     1       3.495   1.935  -0.044  0.00  0.00    -0.059 A 
ATOM     27  F   UNL     1       6.722   4.488  -0.135  0.00  0.00    -0.205 F 
ENDBRANCH  20  26
BRANCH  20  33
ATOM     28  C   UNL     1       1.214  -0.811  -1.187  0.00  0.00    -0.049 C 
ATOM     29  C   UNL     1       1.265  -1.671  -2.453  0.00  0.00    +0.141 C 
ATOM     30  O   UNL     1       2.519  -2.356  -2.508  0.00  0.00    -0.383 OA
ATOM     31  C   UNL     1       3.652  -1.484  -2.507  0.00  0.00    +0.141 C 
ATOM     32  C   UNL     1       3.626  -0.623  -1.242  0.00  0.00    -0.049 C 
ATOM     33  N   UNL     1       2.355   0.130  -1.207  0.00  0.00    +0.388 N 
ATOM     34  H   UNL     1       2.290   0.715  -2.048  0.00  0.00    -0.081 HD
ENDBRANCH  20  33
ENDBRANCH  19  20
ENDBRANCH   1  19
TORSDOF 8
