REMARK  Name = ZINC12801684
REMARK  11 active torsions:
REMARK  status: ('A' for Active; 'I' for Inactive)
REMARK    1  A    between atoms: C_1  and  C_2
REMARK    2  A    between atoms: C_2  and  O_3
REMARK    3  A    between atoms: O_3  and  C_4
REMARK    4  A    between atoms: C_7  and  C_12
REMARK    5  A    between atoms: C_9  and  O_10
REMARK    6  A    between atoms: O_10  and  C_11
REMARK    7  A    between atoms: N_16  and  C_20
REMARK    8  A    between atoms: C_20  and  C_21
REMARK    9  A    between atoms: C_21  and  N_22
REMARK   10  A    between atoms: C_23  and  C_25
REMARK   11  A    between atoms: C_28  and  N_31
REMARK                            x       y       z     vdW  Elec       q    Type
REMARK                         _______ _______ _______ _____ _____    ______ ____
ROOT
ATOM      1  C   UNL     1      -2.800  12.763  -1.999  0.00  0.00    +0.028 C 
ATOM      2  C   UNL     1      -3.109  11.830  -1.062  0.00  0.00    +0.080 C 
ATOM      3  C   UNL     1      -3.206  10.363  -1.192  0.00  0.00    +0.260 C 
ATOM      4  O   UNL     1      -2.999   9.799  -2.250  0.00  0.00    -0.269 OA
ATOM      5  N   UNL     1      -3.530   9.692  -0.099  0.00  0.00    -0.227 N 
ATOM      6  C   UNL     1      -3.765  10.321   1.071  0.00  0.00    +0.286 C 
ATOM      7  O   UNL     1      -4.073   9.834   2.142  0.00  0.00    -0.262 OA
ATOM      8  S   UNL     1      -3.510  12.041   0.667  0.00  0.00    -0.026 S 
ENDROOT
BRANCH   1  12
ATOM      9  C   UNL     1      -3.167  16.892  -1.091  0.00  0.00    +0.162 A 
ATOM     10  C   UNL     1      -2.566  16.493  -2.277  0.00  0.00    +0.050 A 
ATOM     11  C   UNL     1      -2.444  15.154  -2.577  0.00  0.00    +0.012 A 
ATOM     12  C   UNL     1      -2.928  14.191  -1.683  0.00  0.00    -0.020 A 
ATOM     13  C   UNL     1      -3.538  14.595  -0.489  0.00  0.00    +0.057 A 
ATOM     14  C   UNL     1      -3.651  15.939  -0.195  0.00  0.00    +0.162 A 
BRANCH  14  15
ATOM     15  O   UNL     1      -4.238  16.335   0.966  0.00  0.00    -0.491 OA
ATOM     16  C   UNL     1      -4.712  15.305   1.837  0.00  0.00    +0.277 C 
ENDBRANCH  14  15
BRANCH   9  17
ATOM     17  O   UNL     1      -3.284  18.214  -0.802  0.00  0.00    -0.489 OA
BRANCH  17  19
ATOM     18  C   UNL     1      -2.988  20.567  -1.267  0.00  0.00    +0.048 C 
ATOM     19  C   UNL     1      -2.767  19.137  -1.763  0.00  0.00    +0.226 C 
ENDBRANCH  17  19
ENDBRANCH   9  17
ENDBRANCH   1  12
BRANCH   5  20
ATOM     20  C   UNL     1      -3.643   8.232  -0.162  0.00  0.00    +0.136 C 
BRANCH  20  21
ATOM     21  C   UNL     1      -2.285   7.602   0.154  0.00  0.00    +0.124 C 
BRANCH  21  22
ATOM     22  N   UNL     1      -2.398   6.143   0.091  0.00  0.00    -0.310 N 
ATOM     23  C   UNL     1      -1.319   5.372   0.336  0.00  0.00    +0.244 C 
ATOM     24  O   UNL     1      -0.253   5.889   0.610  0.00  0.00    -0.270 OA
ATOM     25  H   UNL     1      -3.248   5.731  -0.127  0.00  0.00    +0.149 HD
BRANCH  23  26
ATOM     26  C   UNL     1      -1.433   3.902   0.273  0.00  0.00    +0.037 A 
ATOM     27  C   UNL     1      -0.316   3.102   0.526  0.00  0.00    +0.015 A 
ATOM     28  C   UNL     1      -0.425   1.730   0.466  0.00  0.00    +0.027 A 
ATOM     29  C   UNL     1      -1.645   1.141   0.153  0.00  0.00    +0.047 A 
ATOM     30  C   UNL     1      -2.758   1.935  -0.105  0.00  0.00    +0.027 A 
ATOM     31  C   UNL     1      -2.657   3.307  -0.041  0.00  0.00    +0.015 A 
BRANCH  29  32
ATOM     32  N   UNL     1      -1.753  -0.252   0.092  0.00  0.00    -0.306 N 
ATOM     33  C   UNL     1      -2.885  -0.971  -0.197  0.00  0.00    +0.112 A 
ATOM     34  C   UNL     1      -2.542  -2.272  -0.150  0.00  0.00    +0.130 A 
ATOM     35  N   UNL     1      -1.241  -2.352   0.167  0.00  0.00    -0.244 NA
ATOM     36  C   UNL     1      -0.757  -1.149   0.314  0.00  0.00    +0.204 A 
ENDBRANCH  29  32
ENDBRANCH  23  26
ENDBRANCH  21  22
ENDBRANCH  20  21
ENDBRANCH   5  20
TORSDOF 9
