REMARK  Name = ZINC20759326
REMARK  9 active torsions:
REMARK  status: ('A' for Active; 'I' for Inactive)
REMARK    1  A    between atoms: C_1  and  C_2
REMARK    2  A    between atoms: C_6  and  C_29
REMARK    3  A    between atoms: C_7  and  C_11
REMARK    4  A    between atoms: C_11  and  C_12
REMARK    5  A    between atoms: N_14  and  C_15
REMARK    6  A    between atoms: C_15  and  C_16
REMARK    7  A    between atoms: C_16  and  N_22
REMARK    8  A    between atoms: N_25  and  C_28
REMARK    9  A    between atoms: C_32  and  C_35
REMARK                            x       y       z     vdW  Elec       q    Type
REMARK                         _______ _______ _______ _____ _____    ______ ____
ROOT
ATOM      1  C   UNL     1      -1.122  -7.126  -0.920  0.00  0.00    +0.218 C 
ATOM      2  O   UNL     1      -1.998  -6.296  -0.800  0.00  0.00    -0.275 OA
ATOM      3  N   UNL     1      -1.424  -8.368  -1.347  0.00  0.00    -0.313 N 
ATOM      4  H   UNL     1      -0.723  -9.032  -1.443  0.00  0.00    +0.149 HD
ENDROOT
BRANCH   1   5
ATOM      5  C   UNL     1       0.305  -6.768  -0.592  0.00  0.00    +0.138 C 
BRANCH   5  12
ATOM      6  C   UNL     1       0.605   0.544   2.600  0.00  0.00    +0.044 C 
ATOM      7  C   UNL     1       0.533  -0.917   2.238  0.00  0.00    -0.036 A 
ATOM      8  C   UNL     1       0.567  -1.292   0.926  0.00  0.00    +0.051 A 
ATOM      9  C   UNL     1       0.502  -2.638   0.573  0.00  0.00    +0.143 A 
ATOM     10  C   UNL     1       0.401  -3.620   1.572  0.00  0.00    +0.064 A 
ATOM     11  C   UNL     1       0.333  -5.028   1.182  0.00  0.00    -0.026 A 
ATOM     12  C   UNL     1       0.371  -5.331  -0.142  0.00  0.00    +0.049 A 
ATOM     13  C   UNL     1       0.473  -4.295  -1.093  0.00  0.00    +0.341 A 
ATOM     14  O   UNL     1       0.506  -4.578  -2.277  0.00  0.00    -0.245 OA
ATOM     15  O   UNL     1       0.535  -3.006  -0.727  0.00  0.00    -0.422 OA
ATOM     16  C   UNL     1       0.225  -6.114   2.221  0.00  0.00    +0.045 C 
ATOM     17  C   UNL     1       0.366  -3.240   2.925  0.00  0.00    +0.146 A 
ATOM     18  C   UNL     1       0.439  -1.879   3.248  0.00  0.00    +0.027 A 
ATOM     19  C   UNL     1       0.386  -1.821   4.714  0.00  0.00    -0.005 A 
ATOM     20  C   UNL     1       0.296  -3.091   5.134  0.00  0.00    +0.199 A 
ATOM     21  O   UNL     1       0.276  -3.924   4.080  0.00  0.00    -0.462 OA
ATOM     22  C   UNL     1       0.426  -0.584   5.574  0.00  0.00    +0.047 C 
ENDBRANCH   5  12
ENDBRANCH   1   5
BRANCH   3  23
ATOM     23  C   UNL     1      -2.811  -8.717  -1.665  0.00  0.00    +0.126 C 
BRANCH  23  24
ATOM     24  C   UNL     1      -2.898 -10.207  -2.000  0.00  0.00    +0.037 C 
ATOM     25  C   UNL     1      -4.318 -10.543  -2.462  0.00  0.00    +0.024 C 
ATOM     26  C   UNL     1      -5.309 -10.213  -1.344  0.00  0.00    +0.002 C 
ATOM     27  C   UNL     1      -4.968 -11.036  -0.100  0.00  0.00    +0.000 C 
ATOM     28  C   UNL     1      -3.549 -10.700   0.361  0.00  0.00    +0.002 C 
ATOM     29  C   UNL     1      -2.558 -11.030  -0.757  0.00  0.00    +0.024 C 
BRANCH  24  30
ATOM     30  N   UNL     1      -1.947 -10.524  -3.074  0.00  0.00    -0.299 NA
ATOM     31  C   UNL     1      -2.210  -9.710  -4.269  0.00  0.00    +0.066 C 
ATOM     32  C   UNL     1      -1.163 -10.027  -5.339  0.00  0.00    -0.064 C 
ATOM     33  N   UNL     1      -1.224 -11.456  -5.675  0.00  0.00    +0.379 N 
ATOM     34  C   UNL     1      -0.934 -12.255  -4.477  0.00  0.00    -0.064 C 
ATOM     35  C   UNL     1      -1.979 -11.957  -3.400  0.00  0.00    +0.066 C 
ATOM     36  C   UNL     1      -0.231 -11.756  -6.716  0.00  0.00    -0.096 C 
ATOM     37  H   UNL     1      -2.146 -11.682  -6.016  0.00  0.00    -0.082 HD
ENDBRANCH  24  30
ENDBRANCH  23  24
ENDBRANCH   3  23
TORSDOF 5
