REMARK  Name = ZINC24964538
REMARK  7 active torsions:
REMARK  status: ('A' for Active; 'I' for Inactive)
REMARK    1  A    between atoms: C_4  and  C_7
REMARK    2  A    between atoms: C_7  and  C_9
REMARK    3  A    between atoms: C_7  and  C_29
REMARK    4  A    between atoms: C_9  and  N_10
REMARK    5  A    between atoms: C_11  and  C_13
REMARK    6  A    between atoms: C_13  and  C_14
REMARK    7  A    between atoms: C_14  and  C_15
REMARK                            x       y       z     vdW  Elec       q    Type
REMARK                         _______ _______ _______ _____ _____    ______ ____
ROOT
ATOM      1  N   UNL     1      -2.359   3.824  -9.511  0.00  0.00    -0.314 N 
ATOM      2  C   UNL     1      -1.320   3.310  -8.824  0.00  0.00    +0.213 C 
ATOM      3  O   UNL     1      -0.285   3.044  -9.397  0.00  0.00    -0.276 OA
ATOM      4  H   UNL     1      -3.298   4.065  -8.991  0.00  0.00    +0.149 HD
ENDROOT
BRANCH   1   5
ATOM      5  C   UNL     1      -2.237   4.063 -10.952  0.00  0.00    +0.117 C 
BRANCH   5   6
ATOM      6  C   UNL     1      -3.547   4.647 -11.484  0.00  0.00    +0.068 C 
BRANCH   6   7
ATOM      7  C   UNL     1      -3.466   4.778 -12.983  0.00  0.00    -0.013 A 
ATOM      8  C   UNL     1      -2.580   5.514 -13.674  0.00  0.00    +0.088 A 
ATOM      9  N   UNL     1      -2.812   5.385 -15.016  0.00  0.00    -0.360 N 
ATOM     10  H   UNL     1      -2.173   5.915 -15.738  0.00  0.00    +0.165 HD
ATOM     11  C   UNL     1      -3.885   4.549 -15.227  0.00  0.00    +0.047 A 
ATOM     12  C   UNL     1      -4.342   4.133 -13.964  0.00  0.00    +0.003 A 
ATOM     13  C   UNL     1      -5.435   3.269 -13.868  0.00  0.00    +0.010 A 
ATOM     14  C   UNL     1      -6.056   2.832 -15.004  0.00  0.00    +0.001 A 
ATOM     15  C   UNL     1      -5.609   3.240 -16.253  0.00  0.00    +0.002 A 
ATOM     16  C   UNL     1      -4.532   4.092 -16.371  0.00  0.00    +0.026 A 
ENDBRANCH   6   7
BRANCH   6  20
ATOM     17  C   UNL     1      -4.200   8.496  -9.750  0.00  0.00    +0.000 A 
ATOM     18  C   UNL     1      -5.122   7.484  -9.554  0.00  0.00    +0.000 A 
ATOM     19  C   UNL     1      -4.910   6.238 -10.115  0.00  0.00    +0.004 A 
ATOM     20  C   UNL     1      -3.778   6.005 -10.873  0.00  0.00    -0.038 A 
ATOM     21  C   UNL     1      -2.854   7.015 -11.065  0.00  0.00    +0.004 A 
ATOM     22  C   UNL     1      -3.068   8.262 -10.508  0.00  0.00    +0.000 A 
ENDBRANCH   6  20
ENDBRANCH   5   6
ENDBRANCH   1   5
BRANCH   2  23
ATOM     23  C   UNL     1      -1.446   3.064  -7.342  0.00  0.00    +0.103 C 
BRANCH  23  24
ATOM     24  C   UNL     1      -0.135   2.480  -6.809  0.00  0.00    +0.083 C 
BRANCH  24  25
ATOM     25  C   UNL     1      -0.261   2.234  -5.328  0.00  0.00    +0.111 A 
ATOM     26  N   UNL     1       0.793   1.715  -4.647  0.00  0.00    -0.310 N 
ATOM     27  H   UNL     1       1.728   1.478  -5.178  0.00  0.00    +0.170 HD
ATOM     28  C   UNL     1       0.724   1.479  -3.323  0.00  0.00    +0.260 A 
ATOM     29  O   UNL     1       1.678   1.012  -2.725  0.00  0.00    -0.267 OA
ATOM     30  C   UNL     1      -0.492   1.786  -2.631  0.00  0.00    +0.075 A 
ATOM     31  C   UNL     1      -0.791   1.612  -1.202  0.00  0.00    -0.023 A 
ATOM     32  C   UNL     1      -2.016   1.978  -0.788  0.00  0.00    -0.004 A 
ATOM     33  S   UNL     1      -2.837   2.567  -2.251  0.00  0.00    -0.073 S 
ATOM     34  C   UNL     1      -1.523   2.318  -3.416  0.00  0.00    +0.116 A 
ATOM     35  N   UNL     1      -1.381   2.524  -4.723  0.00  0.00    -0.227 NA
ATOM     36  C   UNL     1      -2.207   1.760   0.689  0.00  0.00    +0.043 C 
ATOM     37  C   UNL     1      -0.772   1.602   1.246  0.00  0.00    +0.010 C 
ATOM     38  C   UNL     1      -0.013   1.086   0.008  0.00  0.00    +0.037 C 
ENDBRANCH  24  25
ENDBRANCH  23  24
ENDBRANCH   2  23
TORSDOF 7
