REMARK  Name = ZINC38789939
REMARK  8 active torsions:
REMARK  status: ('A' for Active; 'I' for Inactive)
REMARK    1  A    between atoms: C_1  and  C_2
REMARK    2  A    between atoms: C_2  and  C_3
REMARK    3  A    between atoms: C_3  and  C_4
REMARK    4  A    between atoms: C_11  and  C_16
REMARK    5  A    between atoms: C_16  and  N_17
REMARK    6  A    between atoms: N_17  and  C_18
REMARK    7  A    between atoms: C_21  and  N_24
REMARK    8  A    between atoms: C_28  and  O_31
REMARK                            x       y       z     vdW  Elec       q    Type
REMARK                         _______ _______ _______ _____ _____    ______ ____
ROOT
ATOM      1  C   UNL     1       4.001  -6.847   0.793  0.00  0.00    +0.118 C 
ENDROOT
BRANCH   1   9
ATOM      2  C   UNL     1       0.725  -2.043   1.277  0.00  0.00    -0.047 A 
ATOM      3  C   UNL     1      -0.317  -2.755   1.871  0.00  0.00    +0.005 A 
ATOM      4  C   UNL     1      -0.360  -4.113   1.889  0.00  0.00    +0.024 A 
ATOM      5  C   UNL     1       0.667  -4.868   1.294  0.00  0.00    +0.040 A 
ATOM      6  N   UNL     1       0.614  -6.200   1.317  0.00  0.00    -0.284 N 
ATOM      7  C   UNL     1       1.545  -6.969   0.778  0.00  0.00    +0.226 C 
ATOM      8  O   UNL     1       1.442  -8.180   0.830  0.00  0.00    -0.275 OA
ATOM      9  C   UNL     1       2.738  -6.337   0.096  0.00  0.00    +0.115 C 
ATOM     10  C   UNL     1       2.803  -4.822   0.067  0.00  0.00    -0.003 C 
ATOM     11  C   UNL     1       1.780  -4.142   0.658  0.00  0.00    -0.007 A 
ATOM     12  C   UNL     1       1.761  -2.679   0.671  0.00  0.00    +0.013 A 
ATOM     13  H   UNL     1      -0.143  -6.625   1.749  0.00  0.00    +0.155 HD
BRANCH   2  14
ATOM     14  C   UNL     1       0.696  -0.536   1.301  0.00  0.00    +0.035 C 
BRANCH  14  16
ATOM     15  C   UNL     1      -0.067   1.509   0.086  0.00  0.00    +0.004 C 
ATOM     16  C   UNL     1      -0.038  -0.020   0.061  0.00  0.00    +0.001 C 
ENDBRANCH  14  16
ENDBRANCH   2  14
ENDBRANCH   1   9
BRANCH   1  17
ATOM     17  N   UNL     1       4.129  -8.290   0.578  0.00  0.00    -0.343 N 
ATOM     18  H   UNL     1       3.461  -8.764   0.057  0.00  0.00    +0.146 HD
BRANCH  17  19
ATOM     19  C   UNL     1       5.214  -8.986   1.123  0.00  0.00    +0.027 A 
ATOM     20  C   UNL     1       6.167  -8.309   1.873  0.00  0.00    +0.025 A 
ATOM     21  C   UNL     1       7.238  -8.996   2.411  0.00  0.00    +0.025 A 
ATOM     22  C   UNL     1       7.361 -10.363   2.202  0.00  0.00    +0.030 A 
ATOM     23  C   UNL     1       6.408 -11.040   1.453  0.00  0.00    +0.025 A 
ATOM     24  C   UNL     1       5.335 -10.355   0.919  0.00  0.00    +0.025 A 
BRANCH  22  25
ATOM     25  N   UNL     1       8.447 -11.059   2.747  0.00  0.00    -0.327 N 
ATOM     26  C   UNL     1       8.530 -12.522   2.638  0.00  0.00    +0.105 C 
ATOM     27  C   UNL     1       9.880 -12.895   2.019  0.00  0.00    +0.021 C 
ATOM     28  C   UNL     1      11.006 -12.261   2.840  0.00  0.00    +0.034 C 
ATOM     29  C   UNL     1      10.865 -10.737   2.810  0.00  0.00    +0.132 C 
ATOM     30  C   UNL     1       9.529 -10.339   3.433  0.00  0.00    +0.136 C 
BRANCH  29  31
ATOM     31  O   UNL     1      11.934 -10.146   3.551  0.00  0.00    -0.390 OA
ATOM     32  H   UNL     1      12.814 -10.357   3.209  0.00  0.00    +0.210 HD
ENDBRANCH  29  31
ENDBRANCH  22  25
ENDBRANCH  17  19
ENDBRANCH   1  17
TORSDOF 7
