REMARK  Name = ZINC08789119
REMARK  6 active torsions:
REMARK  status: ('A' for Active; 'I' for Inactive)
REMARK    1  A    between atoms: C_1  and  C_2
REMARK    2  A    between atoms: C_4  and  C_33
REMARK    3  A    between atoms: C_6  and  N_8
REMARK    4  A    between atoms: C_13  and  C_29
REMARK    5  A    between atoms: C_29  and  C_30
REMARK    6  A    between atoms: C_30  and  C_31
REMARK                            x       y       z     vdW  Elec       q    Type
REMARK                         _______ _______ _______ _____ _____    ______ ____
ROOT
ATOM      1  N   UNL     1       0.181  -1.044  -3.059  0.00  0.00    -0.210 N 
ATOM      2  C   UNL     1       0.709  -0.110  -2.259  0.00  0.00    +0.228 C 
ATOM      3  O   UNL     1       1.613  -0.291  -1.472  0.00  0.00    -0.275 OA
ATOM      4  C   UNL     1       0.001   1.205  -2.489  0.00  0.00    +0.073 C 
ATOM      5  C   UNL     1      -0.821   1.569  -1.234  0.00  0.00    -0.057 C 
ATOM      6  C   UNL     1      -2.406   1.038  -2.866  0.00  0.00    +0.050 C 
ATOM      7  C   UNL     1      -1.057   0.860  -3.573  0.00  0.00    +0.088 C 
ATOM      8  C   UNL     1      -0.814  -0.609  -3.840  0.00  0.00    +0.229 C 
ATOM      9  O   UNL     1      -1.426  -1.287  -4.637  0.00  0.00    -0.275 OA
ATOM     10  C   UNL     1      -3.019   2.374  -3.176  0.00  0.00    -0.028 A 
ATOM     11  C   UNL     1      -2.603   3.674  -2.994  0.00  0.00    +0.004 A 
ATOM     12  C   UNL     1      -3.412   4.722  -3.392  0.00  0.00    +0.000 A 
ATOM     13  C   UNL     1      -4.639   4.462  -3.976  0.00  0.00    +0.002 A 
ATOM     14  C   UNL     1      -5.060   3.162  -4.162  0.00  0.00    +0.023 A 
ATOM     15  C   UNL     1      -4.251   2.100  -3.763  0.00  0.00    +0.036 A 
ATOM     16  N   UNL     1      -4.452   0.720  -3.843  0.00  0.00    -0.286 N 
ATOM     17  C   UNL     1      -3.413   0.026  -3.338  0.00  0.00    +0.211 C 
ATOM     18  O   UNL     1      -3.311  -1.181  -3.277  0.00  0.00    -0.277 OA
ATOM     19  H   UNL     1      -5.246   0.309  -4.219  0.00  0.00    +0.155 HD
ATOM     20  N   UNL     1      -2.109   0.907  -1.450  0.00  0.00    +0.394 N 
ATOM     21  H   UNL     1      -2.840   1.363  -0.890  0.00  0.00    -0.083 HD
ATOM     22  H   UNL     1      -2.047  -0.084  -1.190  0.00  0.00    -0.083 HD
ENDROOT
BRANCH   1  28
ATOM     23  C   UNL     1       3.731  -4.292  -4.081  0.00  0.00    +0.044 C 
ATOM     24  C   UNL     1       2.350  -3.972  -3.567  0.00  0.00    -0.048 A 
ATOM     25  C   UNL     1       1.530  -4.989  -3.115  0.00  0.00    +0.006 A 
ATOM     26  C   UNL     1       0.262  -4.699  -2.643  0.00  0.00    -0.048 A 
ATOM     27  C   UNL     1      -0.187  -3.393  -2.623  0.00  0.00    +0.027 A 
ATOM     28  C   UNL     1       0.635  -2.371  -3.077  0.00  0.00    +0.044 A 
ATOM     29  C   UNL     1       1.905  -2.665  -3.555  0.00  0.00    +0.027 A 
ATOM     30  C   UNL     1      -0.629  -5.810  -2.150  0.00  0.00    +0.044 C 
ENDBRANCH   1  28
BRANCH   5  31
ATOM     31  C   UNL     1      -0.128   1.046   0.026  0.00  0.00    -0.004 C 
BRANCH  31  32
ATOM     32  C   UNL     1      -0.891   1.524   1.263  0.00  0.00    +0.123 C 
BRANCH  32  33
ATOM     33  C   UNL     1      -0.209   1.008   2.504  0.00  0.00    +0.356 C 
ATOM     34  O   UNL     1       0.785   0.329   2.409  0.00  0.00    -0.246 OA
ATOM     35  O   UNL     1      -0.707   1.304   3.715  0.00  0.00    -0.246 OA
ENDBRANCH  32  33
ENDBRANCH  31  32
ENDBRANCH   5  31
TORSDOF 4
