REMARK  Name = ZINC23358753
REMARK  6 active torsions:
REMARK  status: ('A' for Active; 'I' for Inactive)
REMARK    1  A    between atoms: C_3  and  N_32
REMARK    2  A    between atoms: C_6  and  C_7
REMARK    3  A    between atoms: C_7  and  N_8
REMARK    4  A    between atoms: C_12  and  N_16
REMARK    5  A    between atoms: N_19  and  C_22
REMARK    6  A    between atoms: C_22  and  C_23
REMARK                            x       y       z     vdW  Elec       q    Type
REMARK                         _______ _______ _______ _____ _____    ______ ____
ROOT
ATOM      1  N   UNL     1      -1.735  -1.001  -1.368  0.00  0.00    -0.236 N 
ATOM      2  C   UNL     1      -2.524  -0.143  -2.027  0.00  0.00    +0.224 C 
ATOM      3  O   UNL     1      -2.957   0.897  -1.580  0.00  0.00    -0.275 OA
ATOM      4  C   UNL     1      -2.788  -0.677  -3.418  0.00  0.00    +0.124 C 
ATOM      5  C   UNL     1      -2.007  -2.006  -3.449  0.00  0.00    +0.152 C 
ATOM      6  C   UNL     1      -1.379  -2.081  -2.074  0.00  0.00    +0.240 C 
ATOM      7  O   UNL     1      -0.668  -2.978  -1.675  0.00  0.00    -0.273 OA
ENDROOT
BRANCH   5   8
ATOM      8  N   UNL     1      -0.969  -1.972  -4.488  0.00  0.00    -0.295 NA
ATOM      9  C   UNL     1       0.070  -0.986  -4.163  0.00  0.00    +0.066 C 
ATOM     10  C   UNL     1       1.098  -0.939  -5.296  0.00  0.00    -0.063 C 
ATOM     11  N   UNL     1       1.697  -2.268  -5.469  0.00  0.00    +0.384 N 
ATOM     12  C   UNL     1       0.651  -3.238  -5.817  0.00  0.00    -0.063 C 
ATOM     13  C   UNL     1      -0.381  -3.304  -4.689  0.00  0.00    +0.066 C 
ATOM     14  H   UNL     1       2.143  -2.550  -4.609  0.00  0.00    -0.081 HD
BRANCH  11  15
ATOM     15  C   UNL     1       2.696  -2.219  -6.544  0.00  0.00    -0.043 C 
BRANCH  15  16
ATOM     16  C   UNL     1       3.398  -3.549  -6.640  0.00  0.00    -0.060 A 
ATOM     17  C   UNL     1       4.541  -3.781  -5.896  0.00  0.00    +0.005 A 
ATOM     18  C   UNL     1       5.188  -4.999  -5.980  0.00  0.00    +0.050 A 
ATOM     19  C   UNL     1       4.693  -5.992  -6.810  0.00  0.00    +0.166 A 
ATOM     20  C   UNL     1       3.542  -5.758  -7.559  0.00  0.00    +0.166 A 
ATOM     21  C   UNL     1       2.896  -4.536  -7.466  0.00  0.00    +0.051 A 
ATOM     22  O   UNL     1       3.262  -6.877  -8.289  0.00  0.00    -0.453 OA
ATOM     23  C   UNL     1       4.478  -7.649  -8.291  0.00  0.00    +0.466 C 
ATOM     24  O   UNL     1       5.133  -7.257  -7.071  0.00  0.00    -0.453 OA
ENDBRANCH  15  16
ENDBRANCH  11  15
ENDBRANCH   5   8
BRANCH   1  25
ATOM     25  C   UNL     1      -1.294  -0.774   0.010  0.00  0.00    +0.151 C 
BRANCH  25  31
ATOM     26  C   UNL     1      -0.017   1.379   0.024  0.00  0.00    +0.007 A 
ATOM     27  C   UNL     1       1.169   2.087   0.017  0.00  0.00    +0.024 A 
ATOM     28  C   UNL     1       2.381   1.409  -0.013  0.00  0.00    +0.036 A 
ATOM     29  C   UNL     1       2.396   0.020  -0.035  0.00  0.00    +0.024 A 
ATOM     30  C   UNL     1       1.207  -0.682  -0.028  0.00  0.00    +0.007 A 
ATOM     31  C   UNL     1       0.002  -0.004   0.002  0.00  0.00    -0.030 A 
BRANCH  28  32
ATOM     32  N   UNL     1       3.584   2.123  -0.021  0.00  0.00    -0.271 N 
ATOM     33  C   UNL     1       4.913   1.508   0.062  0.00  0.00    +0.114 C 
ATOM     34  C   UNL     1       5.902   2.595  -0.414  0.00  0.00    +0.029 C 
ATOM     35  C   UNL     1       5.121   3.892  -0.098  0.00  0.00    +0.098 C 
ATOM     36  C   UNL     1       3.671   3.462  -0.112  0.00  0.00    +0.220 C 
ATOM     37  O   UNL     1       2.724   4.215  -0.191  0.00  0.00    -0.275 OA
ENDBRANCH  28  32
ENDBRANCH  25  31
ENDBRANCH   1  25
TORSDOF 6
