REMARK  Name = ZINC63425178
REMARK  11 active torsions:
REMARK  status: ('A' for Active; 'I' for Inactive)
REMARK    1  A    between atoms: C_1  and  C_2
REMARK    2  A    between atoms: C_2  and  O_3
REMARK    3  A    between atoms: O_3  and  C_4
REMARK    4  A    between atoms: C_7  and  N_10
REMARK    5  A    between atoms: C_14  and  N_15
REMARK    6  A    between atoms: N_15  and  C_16
REMARK    7  A    between atoms: C_16  and  C_18
REMARK    8  A    between atoms: C_16  and  C_28
REMARK    9  A    between atoms: C_18  and  C_19
REMARK   10  A    between atoms: C_28  and  O_30
REMARK   11  A    between atoms: O_30  and  C_31
REMARK                            x       y       z     vdW  Elec       q    Type
REMARK                         _______ _______ _______ _____ _____    ______ ____
ROOT
ATOM      1  N   UNL     1       0.819  -5.912  -2.026  0.00  0.00    -0.190 N 
ATOM      2  C   UNL     1       1.562  -6.414  -3.035  0.00  0.00    +0.265 C 
ATOM      3  O   UNL     1       2.220  -5.682  -3.750  0.00  0.00    -0.269 OA
ATOM      4  C   UNL     1       1.555  -7.872  -3.246  0.00  0.00    +0.113 C 
ATOM      5  C   UNL     1       2.292  -8.458  -4.258  0.00  0.00    +0.086 C 
ATOM      6  C   UNL     1       0.728  -8.679  -2.330  0.00  0.00    +0.258 C 
ATOM      7  O   UNL     1       0.672  -9.889  -2.442  0.00  0.00    -0.270 OA
ATOM      8  N   UNL     1       0.036  -8.039  -1.365  0.00  0.00    -0.235 N 
ATOM      9  C   UNL     1       0.094  -6.707  -1.227  0.00  0.00    +0.320 C 
ATOM     10  O   UNL     1      -0.549  -6.192  -0.334  0.00  0.00    -0.251 OA
ATOM     11  H   UNL     1      -0.513  -8.555  -0.754  0.00  0.00    +0.159 HD
ENDROOT
BRANCH   1  15
ATOM     12  C   UNL     1       0.793  -1.792  -1.371  0.00  0.00    +0.121 A 
ATOM     13  C   UNL     1       1.811  -2.572  -0.842  0.00  0.00    +0.047 A 
ATOM     14  C   UNL     1       1.820  -3.936  -1.058  0.00  0.00    +0.027 A 
ATOM     15  C   UNL     1       0.810  -4.526  -1.806  0.00  0.00    +0.046 A 
ATOM     16  C   UNL     1      -0.208  -3.745  -2.335  0.00  0.00    +0.027 A 
ATOM     17  C   UNL     1      -0.220  -2.382  -2.114  0.00  0.00    +0.047 A 
BRANCH  12  18
ATOM     18  O   UNL     1       0.784  -0.449  -1.158  0.00  0.00    -0.492 OA
BRANCH  18  20
ATOM     19  C   UNL     1       1.679   1.605  -0.253  0.00  0.00    +0.048 C 
ATOM     20  C   UNL     1       1.858   0.092  -0.385  0.00  0.00    +0.225 C 
ENDBRANCH  18  20
ENDBRANCH  12  18
ENDBRANCH   1  15
BRANCH   5  21
ATOM     21  N   UNL     1       2.281  -9.797  -4.411  0.00  0.00    -0.336 N 
ATOM     22  H   UNL     1       1.828 -10.356  -3.760  0.00  0.00    +0.146 HD
BRANCH  21  23
ATOM     23  C   UNL     1       2.953 -10.409  -5.560  0.00  0.00    +0.184 C 
BRANCH  23  24
ATOM     24  C   UNL     1       2.022 -10.411  -6.745  0.00  0.00    +0.328 C 
ATOM     25  O   UNL     1       0.910  -9.949  -6.640  0.00  0.00    -0.249 OA
BRANCH  24  26
ATOM     26  O   UNL     1       2.427 -10.926  -7.916  0.00  0.00    -0.467 OA
ATOM     27  C   UNL     1       1.492 -10.895  -8.996  0.00  0.00    +0.280 C 
ENDBRANCH  24  26
ENDBRANCH  23  24
BRANCH  23  28
ATOM     28  C   UNL     1       3.344 -11.848  -5.216  0.00  0.00    +0.066 C 
BRANCH  28  29
ATOM     29  C   UNL     1       4.370 -11.839  -4.112  0.00  0.00    -0.039 C 
ATOM     30  C   UNL     1       4.139 -11.973  -2.786  0.00  0.00    -0.001 A 
ATOM     31  C   UNL     1       2.910 -12.158  -2.005  0.00  0.00    +0.010 A 
ATOM     32  C   UNL     1       2.998 -12.262  -0.659  0.00  0.00    +0.001 A 
ATOM     33  C   UNL     1       4.229 -12.196   0.006  0.00  0.00    +0.002 A 
ATOM     34  C   UNL     1       5.401 -12.027  -0.643  0.00  0.00    +0.026 A 
ATOM     35  C   UNL     1       5.427 -11.907  -2.060  0.00  0.00    +0.043 A 
ATOM     36  N   UNL     1       6.416 -11.739  -2.904  0.00  0.00    -0.380 N 
ATOM     37  C   UNL     1       5.867 -11.685  -4.263  0.00  0.00    +0.144 C 
ATOM     38  H   UNL     1       7.354 -11.667  -2.669  0.00  0.00    +0.160 HD
ENDBRANCH  28  29
ENDBRANCH  23  28
ENDBRANCH  21  23
ENDBRANCH   5  21
TORSDOF 9
