REMARK  Name = ZINC10498266
REMARK  5 active torsions:
REMARK  status: ('A' for Active; 'I' for Inactive)
REMARK    1  A    between atoms: C_1  and  O_2
REMARK    2  A    between atoms: O_2  and  C_3
REMARK    3  A    between atoms: C_6  and  C_9
REMARK    4  A    between atoms: C_11  and  C_14
REMARK    5  A    between atoms: C_14  and  N_15
REMARK                            x       y       z     vdW  Elec       q    Type
REMARK                         _______ _______ _______ _____ _____    ______ ____
ROOT
ATOM      1  N   UNL     1       5.697   0.471   0.049  0.00  0.00    -0.216 N 
ATOM      2  C   UNL     1       4.705   0.041   0.854  0.00  0.00    +0.251 C 
ATOM      3  O   UNL     1       4.613   0.198   2.053  0.00  0.00    -0.272 OA
ATOM      4  C   UNL     1       3.731  -0.679  -0.051  0.00  0.00    +0.138 C 
ATOM      5  C   UNL     1       3.615  -2.143   0.354  0.00  0.00    +0.040 C 
ATOM      6  C   UNL     1       2.490  -2.785  -0.467  0.00  0.00    +0.008 C 
ATOM      7  C   UNL     1       1.157  -2.199  -0.005  0.00  0.00    +0.035 C 
ATOM      8  C   UNL     1       1.207  -0.693  -0.012  0.00  0.00    -0.042 A 
ATOM      9  C   UNL     1       2.394   0.007  -0.025  0.00  0.00    -0.012 A 
ATOM     10  C   UNL     1       2.373   1.395  -0.015  0.00  0.00    +0.006 A 
ATOM     11  C   UNL     1       1.174   2.078   0.002  0.00  0.00    +0.000 A 
ATOM     12  C   UNL     1      -0.017   1.376   0.010  0.00  0.00    +0.000 A 
ATOM     13  C   UNL     1       0.002  -0.004   0.002  0.00  0.00    +0.004 A 
ATOM     14  N   UNL     1       4.336  -0.564  -1.385  0.00  0.00    -0.281 N 
ATOM     15  C   UNL     1       5.483   0.124  -1.226  0.00  0.00    +0.310 C 
ATOM     16  O   UNL     1       6.238   0.399  -2.138  0.00  0.00    -0.252 OA
ATOM     17  H   UNL     1       3.980  -0.914  -2.217  0.00  0.00    +0.152 HD
ENDROOT
BRANCH   1  18
ATOM     18  C   UNL     1       6.866   1.224   0.511  0.00  0.00    +0.195 C 
BRANCH  18  21
ATOM     19  C   UNL     1       9.701  -1.067   0.904  0.00  0.00    +0.114 A 
ATOM     20  C   UNL     1       8.931  -0.215   0.064  0.00  0.00    +0.077 A 
ATOM     21  C   UNL     1       7.967   0.264   0.883  0.00  0.00    +0.156 A 
ATOM     22  O   UNL     1       8.178  -0.285   2.088  0.00  0.00    -0.357 OA
ATOM     23  N   UNL     1       9.139  -1.019   2.086  0.00  0.00    -0.078 NA
BRANCH  19  27
ATOM     24  C   UNL     1      13.130  -3.328  -0.205  0.00  0.00    +0.120 A 
ATOM     25  C   UNL     1      12.654  -3.385   1.098  0.00  0.00    +0.046 A 
ATOM     26  C   UNL     1      11.543  -2.653   1.460  0.00  0.00    +0.014 A 
ATOM     27  C   UNL     1      10.897  -1.856   0.517  0.00  0.00    +0.004 A 
ATOM     28  C   UNL     1      11.373  -1.805  -0.792  0.00  0.00    +0.014 A 
ATOM     29  C   UNL     1      12.489  -2.534  -1.147  0.00  0.00    +0.046 A 
BRANCH  24  31
ATOM     30  C   UNL     1      14.660  -3.944  -1.916  0.00  0.00    +0.277 C 
ATOM     31  O   UNL     1      14.225  -4.049  -0.559  0.00  0.00    -0.495 OA
ENDBRANCH  24  31
ENDBRANCH  19  27
ENDBRANCH  18  21
ENDBRANCH   1  18
TORSDOF 4
