REMARK  Name = ZINC59365122
REMARK  6 active torsions:
REMARK  status: ('A' for Active; 'I' for Inactive)
REMARK    1  A    between atoms: C_1  and  C_2
REMARK    2  A    between atoms: C_7  and  N_8
REMARK    3  A    between atoms: N_8  and  C_9
REMARK    4  A    between atoms: C_9  and  N_11
REMARK    5  A    between atoms: C_12  and  C_14
REMARK    6  A    between atoms: C_14  and  C_15
REMARK                            x       y       z     vdW  Elec       q    Type
REMARK                         _______ _______ _______ _____ _____    ______ ____
ROOT
ATOM      1  C   UNL     1      -0.356  -0.581   3.529  0.00  0.00    +0.141 C 
ATOM      2  S   UNL     1      -0.718  -2.254   3.524  0.00  0.00    -0.018 S 
ENDROOT
BRANCH   1   3
ATOM      3  N   UNL     1      -0.451   0.126   4.673  0.00  0.00    -0.267 N 
ATOM      4  C   UNL     1      -0.831  -0.484   5.812  0.00  0.00    +0.223 C 
ATOM      5  O   UNL     1      -1.088  -1.670   5.809  0.00  0.00    -0.275 OA
ATOM      6  H   UNL     1      -0.246   1.074   4.675  0.00  0.00    +0.157 HD
BRANCH   4   7
ATOM      7  C   UNL     1      -0.938   0.306   7.091  0.00  0.00    +0.131 C 
BRANCH   7   8
ATOM      8  C   UNL     1      -1.378  -0.604   8.209  0.00  0.00    -0.039 A 
ATOM      9  C   UNL     1      -2.724  -0.777   8.469  0.00  0.00    +0.005 A 
ATOM     10  C   UNL     1      -3.129  -1.612   9.494  0.00  0.00    +0.020 A 
ATOM     11  C   UNL     1      -2.186  -2.274  10.259  0.00  0.00    +0.041 A 
ATOM     12  C   UNL     1      -0.838  -2.100   9.999  0.00  0.00    +0.020 A 
ATOM     13  C   UNL     1      -0.435  -1.270   8.970  0.00  0.00    +0.005 A 
ATOM     14 CL   UNL     1      -2.693  -3.322  11.547  0.00  0.00    -0.084 Cl
ENDBRANCH   7   8
ENDBRANCH   4   7
ENDBRANCH   1   3
BRANCH   1  15
ATOM     15  N   UNL     1       0.024   0.030   2.389  0.00  0.00    -0.295 N 
ATOM     16  H   UNL     1       0.299   0.960   2.406  0.00  0.00    +0.154 HD
BRANCH  15  23
ATOM     17  C   UNL     1      -2.252   0.211   0.772  0.00  0.00    +0.046 C 
ATOM     18  C   UNL     1      -1.062  -0.619   0.365  0.00  0.00    -0.027 A 
ATOM     19  C   UNL     1      -1.094  -1.307  -0.846  0.00  0.00    +0.007 A 
ATOM     20  C   UNL     1      -0.051  -2.067  -1.258  0.00  0.00    +0.031 A 
ATOM     21  C   UNL     1       1.115  -2.180  -0.452  0.00  0.00    +0.102 A 
ATOM     22  C   UNL     1       1.154  -1.462   0.816  0.00  0.00    +0.121 A 
ATOM     23  C   UNL     1       0.022  -0.676   1.185  0.00  0.00    +0.064 A 
ATOM     24  N   UNL     1       2.293  -1.641   1.486  0.00  0.00    -0.189 NA
ATOM     25  S   UNL     1       3.185  -2.618   0.571  0.00  0.00    +0.117 S 
ATOM     26  N   UNL     1       2.226  -2.876  -0.695  0.00  0.00    -0.191 NA
ENDBRANCH  15  23
ENDBRANCH   1  15
TORSDOF 5
