REMARK  Name = ZINC67074074
REMARK  7 active torsions:
REMARK  status: ('A' for Active; 'I' for Inactive)
REMARK    1  A    between atoms: C_1  and  C_2
REMARK    2  A    between atoms: C_2  and  C_3
REMARK    3  A    between atoms: C_2  and  N_4
REMARK    4  A    between atoms: C_5  and  C_10
REMARK    5  A    between atoms: C_10  and  C_11
REMARK    6  A    between atoms: C_11  and  N_12
REMARK    7  A    between atoms: C_13  and  C_15
REMARK                            x       y       z     vdW  Elec       q    Type
REMARK                         _______ _______ _______ _____ _____    ______ ____
ROOT
ATOM      1  N   UNL     1      -1.558  -3.161  -4.209  0.00  0.00    -0.311 N 
ATOM      2  C   UNL     1      -2.226  -3.943  -5.080  0.00  0.00    +0.246 C 
ATOM      3  O   UNL     1      -3.384  -4.243  -4.862  0.00  0.00    -0.270 OA
ATOM      4  H   UNL     1      -0.634  -2.921  -4.383  0.00  0.00    +0.149 HD
ENDROOT
BRANCH   2   5
ATOM      5  C   UNL     1      -1.552  -4.435  -6.297  0.00  0.00    +0.061 A 
ATOM      6  C   UNL     1      -0.224  -4.098  -6.546  0.00  0.00    +0.015 A 
ATOM      7  C   UNL     1       0.413  -4.556  -7.686  0.00  0.00    +0.001 A 
ATOM      8  C   UNL     1      -0.255  -5.352  -8.592  0.00  0.00    +0.010 A 
ATOM      9  C   UNL     1      -1.587  -5.704  -8.365  0.00  0.00    +0.004 A 
ATOM     10  C   UNL     1      -2.245  -5.250  -7.206  0.00  0.00    +0.059 A 
ATOM     11  N   UNL     1      -3.523  -5.749  -7.240  0.00  0.00    -0.357 N 
ATOM     12  H   UNL     1      -4.200  -5.591  -6.563  0.00  0.00    +0.166 HD
ATOM     13  C   UNL     1      -3.702  -6.502  -8.367  0.00  0.00    +0.020 A 
ATOM     14  C   UNL     1      -2.567  -6.505  -9.091  0.00  0.00    -0.019 A 
ATOM     15  C   UNL     1      -2.386  -7.232 -10.399  0.00  0.00    +0.037 C 
ATOM     16  C   UNL     1      -3.528  -8.245 -10.553  0.00  0.00    +0.005 C 
ATOM     17  C   UNL     1      -4.864  -7.548 -10.284  0.00  0.00    +0.006 C 
ATOM     18  C   UNL     1      -4.964  -7.223  -8.782  0.00  0.00    +0.053 C 
ENDBRANCH   2   5
BRANCH   1  19
ATOM     19  C   UNL     1      -2.227  -2.672  -3.001  0.00  0.00    +0.112 C 
BRANCH  19  20
ATOM     20  C   UNL     1      -1.253  -1.813  -2.191  0.00  0.00    +0.095 C 
BRANCH  20  22
ATOM     21  N   UNL     1      -1.372  -0.511   0.012  0.00  0.00    -0.305 N 
ATOM     22  C   UNL     1      -1.941  -1.311  -0.948  0.00  0.00    +0.134 A 
ATOM     23  N   UNL     1      -3.165  -1.562  -0.611  0.00  0.00    -0.158 NA
ATOM     24  N   UNL     1      -3.425  -0.915   0.605  0.00  0.00    -0.254 N 
ATOM     25  C   UNL     1      -2.293  -0.277   0.969  0.00  0.00    +0.176 A 
ATOM     26  S   UNL     1      -2.068   0.661   2.384  0.00  0.00    -0.011 S 
ATOM     27  H   UNL     1      -4.261  -0.927   1.096  0.00  0.00    +0.191 HD
BRANCH  21  29
ATOM     28  C   UNL     1      -0.019   1.526   0.010  0.00  0.00    +0.030 C 
ATOM     29  C   UNL     1       0.002  -0.004   0.002  0.00  0.00    +0.085 C 
ATOM     30  C   UNL     1       0.742  -0.511   1.242  0.00  0.00    +0.030 C 
ENDBRANCH  21  29
ENDBRANCH  20  22
ENDBRANCH  19  20
ENDBRANCH   1  19
TORSDOF 5
