REMARK  Name = ZINC39527139
REMARK  6 active torsions:
REMARK  status: ('A' for Active; 'I' for Inactive)
REMARK    1  A    between atoms: C_4  and  C_7
REMARK    2  A    between atoms: C_7  and  C_8
REMARK    3  A    between atoms: C_18  and  O_31
REMARK    4  A    between atoms: N_20  and  S_21
REMARK    5  A    between atoms: S_21  and  O_24
REMARK    6  A    between atoms: O_24  and  C_25
REMARK                            x       y       z     vdW  Elec       q    Type
REMARK                         _______ _______ _______ _____ _____    ______ ____
ROOT
ATOM      1  C   UNL     1       1.242  -0.623   2.121  0.00  0.00    -0.005 C 
ATOM      2  C   UNL     1       1.990   0.698   1.930  0.00  0.00    +0.004 C 
ATOM      3  C   UNL     1       3.413   0.414   1.446  0.00  0.00    +0.002 C 
ATOM      4  C   UNL     1       3.357  -0.337   0.113  0.00  0.00    +0.024 C 
ATOM      5  C   UNL     1       2.608  -1.656   0.303  0.00  0.00    +0.049 C 
ATOM      6  C   UNL     1       1.186  -1.374   0.789  0.00  0.00    +0.028 C 
ATOM      7  C   UNL     1       2.557  -2.413  -1.026  0.00  0.00    +0.024 C 
ATOM      8  C   UNL     1       3.976  -2.815  -1.435  0.00  0.00    +0.006 C 
ATOM      9  C   UNL     1       4.572  -3.740  -0.371  0.00  0.00    +0.049 C 
ATOM     10  C   UNL     1       4.647  -2.995   0.965  0.00  0.00    +0.209 C 
ATOM     11  N   UNL     1       3.311  -2.480   1.295  0.00  0.00    -0.114 NA
ENDROOT
BRANCH  11  12
ATOM     12  S   UNL     1       2.611  -2.822   2.756  0.00  0.00    +0.197 S 
ATOM     13  O   UNL     1       3.144  -1.892   3.689  0.00  0.00    -0.119 OA
ATOM     14  O   UNL     1       1.215  -2.948   2.518  0.00  0.00    -0.119 OA
BRANCH  12  15
ATOM     15  O   UNL     1       3.106  -4.197   3.181  0.00  0.00    -0.333 OA
BRANCH  15  16
ATOM     16  C   UNL     1       2.771  -4.536   4.454  0.00  0.00    +0.158 A 
ATOM     17  C   UNL     1       3.710  -5.130   5.285  0.00  0.00    +0.048 A 
ATOM     18  C   UNL     1       3.367  -5.473   6.578  0.00  0.00    +0.004 A 
ATOM     19  C   UNL     1       2.089  -5.226   7.044  0.00  0.00    +0.000 A 
ATOM     20  C   UNL     1       1.151  -4.635   6.218  0.00  0.00    +0.004 A 
ATOM     21  C   UNL     1       1.491  -4.284   4.926  0.00  0.00    +0.048 A 
ENDBRANCH  15  16
ENDBRANCH  12  15
ENDBRANCH  11  12
BRANCH  10  22
ATOM     22  O   UNL     1       5.085  -3.890   1.989  0.00  0.00    -0.376 OA
ATOM     23  H   UNL     1       5.993  -4.201   1.878  0.00  0.00    +0.212 HD
ENDBRANCH  10  22
BRANCH   1  24
ATOM     24  C   UNL     1      -0.181  -0.338   2.606  0.00  0.00    +0.038 C 
BRANCH  24  28
ATOM     25  C   UNL     1      -0.035   1.448   6.484  0.00  0.00    +0.000 A 
ATOM     26  C   UNL     1      -0.011   2.245   5.354  0.00  0.00    +0.000 A 
ATOM     27  C   UNL     1      -0.058   1.667   4.100  0.00  0.00    +0.003 A 
ATOM     28  C   UNL     1      -0.129   0.292   3.974  0.00  0.00    -0.047 A 
ATOM     29  C   UNL     1      -0.152  -0.505   5.103  0.00  0.00    +0.003 A 
ATOM     30  C   UNL     1      -0.106   0.073   6.358  0.00  0.00    +0.000 A 
ENDBRANCH  24  28
ENDBRANCH   1  24
TORSDOF 6
