REMARK  Name = ZINC14987388
REMARK  12 active torsions:
REMARK  status: ('A' for Active; 'I' for Inactive)
REMARK    1  A    between atoms: C_1  and  C_2
REMARK    2  A    between atoms: C_2  and  C_4
REMARK    3  A    between atoms: C_2  and  O_17
REMARK    4  A    between atoms: C_4  and  N_5
REMARK    5  A    between atoms: C_6  and  C_8
REMARK    6  A    between atoms: O_17  and  C_18
REMARK    7  A    between atoms: C_22  and  C_24
REMARK    8  A    between atoms: C_24  and  N_68
REMARK    9  A    between atoms: C_29  and  O_36
REMARK   10  A    between atoms: C_30  and  O_34
REMARK   11  A    between atoms: O_34  and  C_35
REMARK   12  A    between atoms: O_36  and  C_37
REMARK                            x       y       z     vdW  Elec       q    Type
REMARK                         _______ _______ _______ _____ _____    ______ ____
ROOT
ATOM      1  C   UNL     1      -0.050   3.842   0.025  0.00  0.00    +0.121 A 
ATOM      2  C   UNL     1       1.142   3.162   0.230  0.00  0.00    +0.045 A 
ATOM      3  C   UNL     1       1.158   1.781   0.224  0.00  0.00    +0.004 A 
ATOM      4  C   UNL     1      -0.013   1.076   0.014  0.00  0.00    +0.002 A 
ATOM      5  C   UNL     1      -1.201   1.751  -0.196  0.00  0.00    -0.060 A 
ATOM      6  C   UNL     1      -1.223   3.132  -0.185  0.00  0.00    +0.047 A 
ENDROOT
BRANCH   1   7
ATOM      7  O   UNL     1      -0.069   5.201   0.031  0.00  0.00    -0.488 OA
BRANCH   7   9
ATOM      8  C   UNL     1       1.589   5.983   1.607  0.00  0.00    +0.053 C 
ATOM      9  C   UNL     1       1.192   5.866   0.134  0.00  0.00    +0.187 C 
BRANCH   9  10
ATOM     10  C   UNL     1       1.082   7.265  -0.477  0.00  0.00    +0.148 C 
BRANCH  10  11
ATOM     11  N   UNL     1       0.702   7.153  -1.888  0.00  0.00    -0.307 N 
ATOM     12  C   UNL     1       0.545   8.264  -2.634  0.00  0.00    +0.264 C 
ATOM     13  O   UNL     1       0.719   9.360  -2.136  0.00  0.00    -0.268 OA
ATOM     14  H   UNL     1       0.563   6.279  -2.285  0.00  0.00    +0.149 HD
BRANCH  12  15
ATOM     15  C   UNL     1       0.161   8.151  -4.057  0.00  0.00    +0.150 A 
ATOM     16  C   UNL     1      -0.038   9.221  -4.936  0.00  0.00    +0.083 A 
ATOM     17  C   UNL     1      -0.382   8.692  -6.170  0.00  0.00    +0.156 A 
ATOM     18  N   UNL     1      -0.675   9.262  -7.348  0.00  0.00    -0.236 NA
ATOM     19  C   UNL     1      -0.982   8.530  -8.391  0.00  0.00    +0.114 A 
ATOM     20  C   UNL     1      -1.008   7.130  -8.291  0.00  0.00    +0.039 A 
ATOM     21  C   UNL     1      -0.714   6.541  -7.107  0.00  0.00    +0.116 A 
ATOM     22  N   UNL     1      -0.397   7.326  -6.034  0.00  0.00    -0.221 N 
ATOM     23  N   UNL     1      -0.056   7.021  -4.711  0.00  0.00    -0.160 NA
ENDBRANCH  12  15
ENDBRANCH  10  11
ENDBRANCH   9  10
ENDBRANCH   7   9
ENDBRANCH   1   7
BRANCH   5  24
ATOM     24  C   UNL     1      -2.474   0.979  -0.432  0.00  0.00    -0.042 C 
BRANCH  24  34
ATOM     25  C   UNL     1      -4.488   0.180   0.653  0.00  0.00    -0.073 C 
ATOM     26  C   UNL     1      -4.979  -0.408   1.977  0.00  0.00    +0.017 C 
ATOM     27  C   UNL     1      -4.788   0.594   3.087  0.00  0.00    -0.044 A 
ATOM     28  C   UNL     1      -5.481   0.402   4.274  0.00  0.00    +0.053 A 
ATOM     29  C   UNL     1      -5.334   1.293   5.322  0.00  0.00    +0.162 A 
ATOM     30  C   UNL     1      -4.486   2.388   5.181  0.00  0.00    +0.162 A 
ATOM     31  C   UNL     1      -3.799   2.575   3.996  0.00  0.00    +0.051 A 
ATOM     32  C   UNL     1      -3.951   1.680   2.946  0.00  0.00    -0.057 A 
ATOM     33  C   UNL     1      -3.188   1.935   1.673  0.00  0.00    -0.042 C 
ATOM     34  N   UNL     1      -3.124   0.703   0.869  0.00  0.00    +0.385 N 
ATOM     35  H   UNL     1      -2.572  -0.000   1.376  0.00  0.00    -0.081 HD
BRANCH  30  36
ATOM     36  O   UNL     1      -4.334   3.270   6.205  0.00  0.00    -0.491 OA
ATOM     37  C   UNL     1      -3.447   4.369   5.989  0.00  0.00    +0.277 C 
ENDBRANCH  30  36
BRANCH  29  38
ATOM     38  O   UNL     1      -6.016   1.101   6.483  0.00  0.00    -0.491 OA
ATOM     39  C   UNL     1      -6.867  -0.044   6.553  0.00  0.00    +0.277 C 
ENDBRANCH  29  38
ENDBRANCH  24  34
ENDBRANCH   5  24
TORSDOF 9
