REMARK  Name = ZINC12582189
REMARK  8 active torsions:
REMARK  status: ('A' for Active; 'I' for Inactive)
REMARK    1  A    between atoms: C_10  and  C_11
REMARK    2  A    between atoms: C_10  and  N_62
REMARK    3  A    between atoms: C_11  and  C_13
REMARK    4  A    between atoms: C_11  and  O_28
REMARK    5  A    between atoms: C_13  and  O_14
REMARK    6  A    between atoms: O_14  and  C_15
REMARK    7  A    between atoms: C_20  and  C_21
REMARK    8  A    between atoms: C_21  and  N_64
REMARK                            x       y       z     vdW  Elec       q    Type
REMARK                         _______ _______ _______ _____ _____    ______ ____
ROOT
ATOM      1  C   UNL     1      -1.419   8.323   2.307  0.00  0.00    +0.258 C 
ENDROOT
BRANCH   1   2
ATOM      2  C   UNL     1      -1.696   9.051   0.990  0.00  0.00    +0.135 C 
BRANCH   2   3
ATOM      3  O   UNL     1      -0.819   8.554  -0.023  0.00  0.00    -0.390 OA
ATOM      4  H   UNL     1       0.119   8.673   0.177  0.00  0.00    +0.210 HD
ENDBRANCH   2   3
BRANCH   2   5
ATOM      5  C   UNL     1      -1.461  10.551   1.177  0.00  0.00    -0.043 C 
BRANCH   5  15
ATOM      6  C   UNL     1      -4.483  13.438  -3.706  0.00  0.00    +0.000 A 
ATOM      7  C   UNL     1      -5.307  12.454  -3.192  0.00  0.00    +0.000 A 
ATOM      8  C   UNL     1      -4.905  11.728  -2.089  0.00  0.00    +0.002 A 
ATOM      9  C   UNL     1      -3.678  11.979  -1.493  0.00  0.00    -0.061 A 
ATOM     10  C   UNL     1      -2.856  12.959  -2.007  0.00  0.00    -0.048 A 
ATOM     11  C   UNL     1      -3.261  13.689  -3.115  0.00  0.00    +0.004 A 
ATOM     12  C   UNL     1      -1.512  13.264  -1.398  0.00  0.00    +0.017 C 
ATOM     13  C   UNL     1      -1.431  12.675   0.010  0.00  0.00    -0.074 C 
ATOM     14  C   UNL     1      -3.285  11.164  -0.289  0.00  0.00    -0.043 C 
ATOM     15  N   UNL     1      -1.831  11.255  -0.070  0.00  0.00    +0.384 N 
ATOM     16  H   UNL     1      -1.345  10.813  -0.860  0.00  0.00    -0.081 HD
ENDBRANCH   5  15
ENDBRANCH   2   5
ENDBRANCH   1   2
BRANCH   1  17
ATOM     17  O   UNL     1      -1.750   6.940   2.166  0.00  0.00    -0.489 OA
BRANCH  17  18
ATOM     18  C   UNL     1      -1.560   6.147   3.253  0.00  0.00    +0.122 A 
ATOM     19  C   UNL     1      -1.066   6.688   4.431  0.00  0.00    +0.046 A 
ATOM     20  C   UNL     1      -0.874   5.879   5.534  0.00  0.00    +0.004 A 
ATOM     21  C   UNL     1      -1.175   4.531   5.465  0.00  0.00    +0.000 A 
ATOM     22  C   UNL     1      -1.672   3.990   4.294  0.00  0.00    +0.005 A 
ATOM     23  C   UNL     1      -1.861   4.794   3.187  0.00  0.00    -0.022 A 
BRANCH  23  24
ATOM     24  C   UNL     1      -2.399   4.203   1.909  0.00  0.00    -0.039 C 
BRANCH  24  31
ATOM     25  C   UNL     1      -0.318   3.003   1.540  0.00  0.00    -0.078 C 
ATOM     26  C   UNL     1      -0.708   1.570   1.298  0.00  0.00    -0.019 C 
ATOM     27  C   UNL     1      -0.013   1.086   0.008  0.00  0.00    -0.002 C 
ATOM     28  C   UNL     1      -0.693   1.557  -1.193  0.00  0.00    -0.002 C 
ATOM     29  C   UNL     1      -0.718   3.097  -1.283  0.00  0.00    -0.019 C 
ATOM     30  C   UNL     1      -1.797   3.612  -0.370  0.00  0.00    -0.078 C 
ATOM     31  N   UNL     1      -1.274   4.018   0.979  0.00  0.00    +0.382 N 
ATOM     32  H   UNL     1      -0.776   4.910   0.878  0.00  0.00    -0.081 HD
ENDBRANCH  24  31
ENDBRANCH  23  24
ENDBRANCH  17  18
ENDBRANCH   1  17
TORSDOF 8
