REMARK  Name = ZINC17837240
REMARK  5 active torsions:
REMARK  status: ('A' for Active; 'I' for Inactive)
REMARK    1  A    between atoms: C_4  and  C_7
REMARK    2  A    between atoms: C_7  and  N_8
REMARK    3  A    between atoms: C_13  and  C_27
REMARK    4  A    between atoms: N_15  and  C_21
REMARK    5  A    between atoms: C_32  and  O_33
REMARK                            x       y       z     vdW  Elec       q    Type
REMARK                         _______ _______ _______ _____ _____    ______ ____
ROOT
ATOM      1  N   UNL     1       5.002  -0.835   0.673  0.00  0.00    -0.235 N 
ATOM      2  C   UNL     1       5.698  -0.025   1.479  0.00  0.00    +0.231 C 
ATOM      3  O   UNL     1       6.480   0.826   1.113  0.00  0.00    -0.275 OA
ATOM      4  C   UNL     1       5.357  -0.337   2.918  0.00  0.00    +0.145 C 
ATOM      5  C   UNL     1       6.590  -0.959   3.613  0.00  0.00    +0.160 C 
ATOM      6  N   UNL     1       6.017  -2.148   4.290  0.00  0.00    -0.244 N 
ATOM      7  O   UNL     1       5.057  -2.660   3.365  0.00  0.00    -0.257 OA
ATOM      8  C   UNL     1       4.351  -1.514   2.803  0.00  0.00    +0.249 C 
ATOM      9  C   UNL     1       4.205  -1.701   1.309  0.00  0.00    +0.254 C 
ATOM     10  O   UNL     1       3.480  -2.510   0.772  0.00  0.00    -0.272 OA
ENDROOT
BRANCH   6  11
ATOM     11  C   UNL     1       6.345  -2.655   5.550  0.00  0.00    +0.065 A 
ATOM     12  C   UNL     1       5.351  -2.852   6.500  0.00  0.00    +0.028 A 
ATOM     13  C   UNL     1       5.678  -3.354   7.745  0.00  0.00    +0.002 A 
ATOM     14  C   UNL     1       6.993  -3.659   8.045  0.00  0.00    +0.000 A 
ATOM     15  C   UNL     1       7.984  -3.464   7.101  0.00  0.00    +0.002 A 
ATOM     16  C   UNL     1       7.663  -2.968   5.853  0.00  0.00    +0.028 A 
ENDBRANCH   6  11
BRANCH   5  17
ATOM     17  C   UNL     1       7.178   0.000   4.616  0.00  0.00    +0.020 A 
ATOM     18  C   UNL     1       6.627   0.103   5.879  0.00  0.00    +0.009 A 
ATOM     19  C   UNL     1       7.166   0.983   6.800  0.00  0.00    +0.001 A 
ATOM     20  C   UNL     1       8.257   1.761   6.459  0.00  0.00    +0.004 A 
ATOM     21  C   UNL     1       8.811   1.661   5.198  0.00  0.00    +0.046 A 
ATOM     22  C   UNL     1       8.276   0.775   4.274  0.00  0.00    +0.122 A 
BRANCH  22  23
ATOM     23  O   UNL     1       8.823   0.671   3.035  0.00  0.00    -0.506 OA
ATOM     24  H   UNL     1       8.442   1.277   2.384  0.00  0.00    +0.292 HD
ENDBRANCH  22  23
ENDBRANCH   5  17
BRANCH   1  25
ATOM     25  C   UNL     1       5.101  -0.775  -0.788  0.00  0.00    +0.151 C 
BRANCH  25  29
ATOM     26  C   UNL     1       2.203   1.973  -2.302  0.00  0.00    +0.000 A 
ATOM     27  C   UNL     1       3.467   2.418  -1.965  0.00  0.00    +0.000 A 
ATOM     28  C   UNL     1       4.405   1.529  -1.475  0.00  0.00    +0.005 A 
ATOM     29  C   UNL     1       4.078   0.195  -1.321  0.00  0.00    -0.030 A 
ATOM     30  C   UNL     1       2.813  -0.250  -1.657  0.00  0.00    +0.005 A 
ATOM     31  C   UNL     1       1.876   0.639  -2.148  0.00  0.00    +0.000 A 
ENDBRANCH  25  29
ENDBRANCH   1  25
TORSDOF 5
