REMARK  Name = ZINC40779384
REMARK  7 active torsions:
REMARK  status: ('A' for Active; 'I' for Inactive)
REMARK    1  A    between atoms: C_1  and  C_2
REMARK    2  A    between atoms: C_11  and  C_13
REMARK    3  A    between atoms: C_11  and  C_14
REMARK    4  A    between atoms: N_16  and  C_17
REMARK    5  A    between atoms: N_20  and  C_22
REMARK    6  A    between atoms: C_22  and  C_23
REMARK    7  A    between atoms: C_28  and  C_29
REMARK                            x       y       z     vdW  Elec       q    Type
REMARK                         _______ _______ _______ _____ _____    ______ ____
ROOT
ATOM      1  C   UNL     1       0.304  -6.238   1.087  0.00  0.00    +0.270 C 
ATOM      2  O   UNL     1       0.207  -6.812   2.151  0.00  0.00    -0.271 OA
ATOM      3  N   UNL     1       0.052  -6.899  -0.060  0.00  0.00    -0.279 N 
ATOM      4  H   UNL     1       0.129  -6.440  -0.911  0.00  0.00    +0.155 HD
ENDROOT
BRANCH   1  15
ATOM      5  C   UNL     1      -0.018   1.503   0.010  0.00  0.00    +0.044 C 
ATOM      6  C   UNL     1       0.002  -0.004   0.002  0.00  0.00    -0.048 A 
ATOM      7  C   UNL     1       0.006  -0.687  -1.200  0.00  0.00    +0.007 A 
ATOM      8  C   UNL     1       0.019  -2.070  -1.216  0.00  0.00    +0.048 A 
ATOM      9  C   UNL     1       0.031  -2.773  -0.024  0.00  0.00    +0.144 A 
ATOM     10  C   UNL     1       0.038  -2.085   1.188  0.00  0.00    +0.076 A 
ATOM     11  C   UNL     1       0.023  -0.700   1.197  0.00  0.00    +0.030 A 
ATOM     12  N   UNL     1       0.086  -2.805   2.389  0.00  0.00    -0.279 N 
ATOM     13  C   UNL     1       0.342  -4.129   2.355  0.00  0.00    +0.270 C 
ATOM     14  O   UNL     1       0.279  -4.788   3.371  0.00  0.00    -0.271 OA
ATOM     15  C   UNL     1       0.706  -4.787   1.048  0.00  0.00    +0.258 C 
ATOM     16  O   UNL     1       0.025  -4.133  -0.026  0.00  0.00    -0.465 OA
ATOM     17  C   UNL     1       2.217  -4.684   0.830  0.00  0.00    +0.076 C 
ATOM     18  H   UNL     1      -0.063  -2.356   3.236  0.00  0.00    +0.155 HD
ENDBRANCH   1  15
BRANCH   3  19
ATOM     19  C   UNL     1      -0.324  -8.255  -0.023  0.00  0.00    +0.071 A 
ATOM     20  C   UNL     1      -0.480  -9.038   1.130  0.00  0.00    +0.157 A 
ATOM     21  N   UNL     1      -0.837 -10.243   0.764  0.00  0.00    -0.177 NA
ATOM     22  N   UNL     1      -0.920 -10.273  -0.633  0.00  0.00    -0.265 N 
ATOM     23  C   UNL     1      -0.605  -9.036  -1.097  0.00  0.00    +0.132 A 
BRANCH  22  24
ATOM     24  C   UNL     1      -1.288 -11.433  -1.450  0.00  0.00    +0.178 C 
BRANCH  24  25
ATOM     25  C   UNL     1      -0.383 -12.590  -1.115  0.00  0.00    -0.023 A 
ATOM     26  C   UNL     1       0.750 -12.824  -1.872  0.00  0.00    +0.006 A 
ATOM     27  C   UNL     1       1.580 -13.886  -1.564  0.00  0.00    +0.000 A 
ATOM     28  C   UNL     1       1.278 -14.713  -0.499  0.00  0.00    +0.000 A 
ATOM     29  C   UNL     1       0.146 -14.479   0.259  0.00  0.00    +0.004 A 
ATOM     30  C   UNL     1      -0.682 -13.415  -0.046  0.00  0.00    -0.046 A 
ATOM     31  C   UNL     1      -1.913 -13.156   0.783  0.00  0.00    +0.044 C 
ENDBRANCH  24  25
ENDBRANCH  22  24
ENDBRANCH   3  19
TORSDOF 4
