REMARK  Name = ZINC00197461
REMARK  4 active torsions:
REMARK  status: ('A' for Active; 'I' for Inactive)
REMARK    1  A    between atoms: C_1  and  C_2
REMARK    2  A    between atoms: C_5  and  S_8
REMARK    3  A    between atoms: S_8  and  N_11
REMARK    4  A    between atoms: N_11  and  C_12
REMARK                            x       y       z     vdW  Elec       q    Type
REMARK                         _______ _______ _______ _____ _____    ______ ____
ROOT
ATOM      1  C   UNL     1       0.227   5.323   0.027  0.00  0.00    +0.137 C 
ATOM      2  C   UNL     1      -0.064   3.843   0.022  0.00  0.00    -0.017 A 
ATOM      3  C   UNL     1      -1.245   3.132   0.029  0.00  0.00    +0.006 A 
ATOM      4  C   UNL     1      -1.221   1.748   0.017  0.00  0.00    +0.000 A 
ATOM      5  C   UNL     1      -0.013   1.076   0.008  0.00  0.00    +0.001 A 
ATOM      6  C   UNL     1       1.174   1.779   0.000  0.00  0.00    +0.009 A 
ATOM      7  C   UNL     1       1.157   3.175   0.008  0.00  0.00    -0.013 A 
ATOM      8  C   UNL     1       2.262   4.166   0.002  0.00  0.00    -0.013 A 
ATOM      9  C   UNL     1       1.731   5.452   0.014  0.00  0.00    -0.017 A 
ATOM     10  C   UNL     1       2.566   6.550   0.011  0.00  0.00    +0.006 A 
ATOM     11  C   UNL     1       3.938   6.376  -0.003  0.00  0.00    +0.000 A 
ATOM     12  C   UNL     1       4.476   5.101  -0.015  0.00  0.00    +0.001 A 
ATOM     13  C   UNL     1       3.648   3.998  -0.012  0.00  0.00    +0.009 A 
ENDROOT
BRANCH   1  14
ATOM     14  N   UNL     1      -0.344   5.954  -1.166  0.00  0.00    -0.178 NA
ATOM     15  H   UNL     1       0.133   5.916  -2.010  0.00  0.00    +0.149 HD
BRANCH  14  16
ATOM     16  S   UNL     1      -1.803   6.731  -1.073  0.00  0.00    +0.059 S 
ATOM     17  O   UNL     1      -2.068   7.252  -2.368  0.00  0.00    -0.153 OA
ATOM     18  O   UNL     1      -2.694   5.845  -0.411  0.00  0.00    -0.153 OA
BRANCH  16  23
ATOM     19  C   UNL     1      -1.066  11.478   2.578  0.00  0.00    +0.044 C 
ATOM     20  C   UNL     1      -1.251  10.293   1.666  0.00  0.00    -0.050 A 
ATOM     21  C   UNL     1      -1.034  10.425   0.307  0.00  0.00    +0.005 A 
ATOM     22  C   UNL     1      -1.202   9.338  -0.529  0.00  0.00    +0.029 A 
ATOM     23  C   UNL     1      -1.588   8.117  -0.007  0.00  0.00    +0.105 A 
ATOM     24  C   UNL     1      -1.810   7.986   1.351  0.00  0.00    +0.029 A 
ATOM     25  C   UNL     1      -1.637   9.072   2.188  0.00  0.00    +0.005 A 
ENDBRANCH  16  23
ENDBRANCH  14  16
ENDBRANCH   1  14
TORSDOF 3
