REMARK  Name = ZINC12182640
REMARK  6 active torsions:
REMARK  status: ('A' for Active; 'I' for Inactive)
REMARK    1  A    between atoms: C_1  and  C_2
REMARK    2  A    between atoms: C_20  and  C_21
REMARK    3  A    between atoms: C_20  and  N_56
REMARK    4  A    between atoms: C_24  and  O_28
REMARK    5  A    between atoms: C_26  and  O_27
REMARK    6  A    between atoms: O_28  and  C_29
REMARK                            x       y       z     vdW  Elec       q    Type
REMARK                         _______ _______ _______ _____ _____    ______ ____
ROOT
ATOM      1  C   UNL     1       2.478  -0.926   7.416  0.00  0.00    +0.028 C 
ATOM      2  C   UNL     1       1.186  -1.439   8.055  0.00  0.00    +0.073 C 
ATOM      3  C   UNL     1       0.877  -0.618   9.309  0.00  0.00    +0.022 C 
ATOM      4  C   UNL     1      -0.427  -1.121   9.934  0.00  0.00    +0.003 C 
ATOM      5  C   UNL     1      -1.552  -1.020   8.901  0.00  0.00    +0.019 C 
ATOM      6  C   UNL     1      -1.173  -1.829   7.659  0.00  0.00    +0.108 C 
ATOM      7  N   UNL     1       0.080  -1.308   7.098  0.00  0.00    -0.298 N 
ATOM      8  C   UNL     1       0.381  -1.926   5.914  0.00  0.00    +0.199 A 
ATOM      9  N   UNL     1       0.728  -3.241   5.914  0.00  0.00    -0.295 N 
ATOM     10  H   UNL     1       0.761  -3.737   6.747  0.00  0.00    +0.172 HD
ATOM     11  C   UNL     1       1.028  -3.850   4.748  0.00  0.00    +0.256 A 
ATOM     12  O   UNL     1       1.342  -5.029   4.728  0.00  0.00    -0.267 OA
ATOM     13  C   UNL     1       0.973  -3.103   3.555  0.00  0.00    +0.035 A 
ATOM     14  C   UNL     1       0.615  -1.793   3.612  0.00  0.00    +0.037 A 
ATOM     15  N   UNL     1       0.329  -1.237   4.793  0.00  0.00    -0.222 NA
ATOM     16  C   UNL     1       0.520  -0.939   2.375  0.00  0.00    -0.021 C 
ATOM     17  C   UNL     1       0.800  -2.953   1.080  0.00  0.00    -0.073 C 
ATOM     18  C   UNL     1       1.314  -3.784   2.256  0.00  0.00    +0.024 C 
ATOM     19  N   UNL     1       1.268  -1.565   1.272  0.00  0.00    +0.386 N 
ATOM     20  H   UNL     1       2.267  -1.577   1.509  0.00  0.00    -0.081 HD
ENDROOT
BRANCH  19  21
ATOM     21  C   UNL     1       1.078  -0.788   0.026  0.00  0.00    -0.039 C 
BRANCH  21  22
ATOM     22  C   UNL     1       1.308   0.674   0.313  0.00  0.00    -0.022 A 
ATOM     23  C   UNL     1       0.230   1.522   0.483  0.00  0.00    +0.009 A 
ATOM     24  C   UNL     1       0.437   2.862   0.746  0.00  0.00    +0.046 A 
ATOM     25  C   UNL     1       1.729   3.360   0.839  0.00  0.00    +0.124 A 
ATOM     26  C   UNL     1       2.812   2.512   0.669  0.00  0.00    +0.091 A 
ATOM     27  C   UNL     1       2.601   1.167   0.405  0.00  0.00    +0.122 A 
BRANCH  27  28
ATOM     28  O   UNL     1       3.661   0.333   0.237  0.00  0.00    -0.506 OA
ATOM     29  H   UNL     1       3.964   0.262  -0.678  0.00  0.00    +0.292 HD
ENDBRANCH  27  28
BRANCH  25  30
ATOM     30  O   UNL     1       1.932   4.679   1.097  0.00  0.00    -0.495 OA
ATOM     31  C   UNL     1       0.771   5.495   1.261  0.00  0.00    +0.277 C 
ENDBRANCH  25  30
ENDBRANCH  21  22
ENDBRANCH  19  21
TORSDOF 4
