REMARK  Name = ZINC12772524
REMARK  5 active torsions:
REMARK  status: ('A' for Active; 'I' for Inactive)
REMARK    1  A    between atoms: C_4  and  N_7
REMARK    2  A    between atoms: C_8  and  C_10
REMARK    3  A    between atoms: C_10  and  N_53
REMARK    4  A    between atoms: C_13  and  N_16
REMARK    5  A    between atoms: C_17  and  C_19
REMARK                            x       y       z     vdW  Elec       q    Type
REMARK                         _______ _______ _______ _____ _____    ______ ____
ROOT
ATOM      1  C   UNL     1       7.038   1.223   1.051  0.00  0.00    -0.076 C 
ATOM      2  C   UNL     1       8.109   2.308   0.911  0.00  0.00    +0.003 C 
ATOM      3  C   UNL     1       9.490   1.686   1.133  0.00  0.00    +0.069 C 
ATOM      4  C   UNL     1       9.699   0.553   0.124  0.00  0.00    +0.003 C 
ATOM      5  C   UNL     1       8.582  -0.481   0.287  0.00  0.00    -0.076 C 
ATOM      6  N   UNL     1       7.281   0.175   0.037  0.00  0.00    +0.386 N 
ATOM      7  H   UNL     1       7.300   0.610  -0.893  0.00  0.00    -0.081 HD
ENDROOT
BRANCH   3   8
ATOM      8  N   UNL     1      10.523   2.707   0.942  0.00  0.00    -0.312 N 
ATOM      9  C   UNL     1      10.871   3.512   1.966  0.00  0.00    +0.227 C 
ATOM     10  O   UNL     1      10.330   3.391   3.044  0.00  0.00    -0.275 OA
ATOM     11  H   UNL     1      10.956   2.804   0.080  0.00  0.00    +0.149 HD
BRANCH   9  12
ATOM     12  C   UNL     1      11.934   4.563   1.770  0.00  0.00    +0.141 C 
ATOM     13  C   UNL     1      11.751   5.739   2.755  0.00  0.00    +0.060 C 
ATOM     14  C   UNL     1      12.528   5.525   4.032  0.00  0.00    -0.032 A 
ATOM     15  C   UNL     1      12.311   6.164   5.256  0.00  0.00    +0.005 A 
ATOM     16  C   UNL     1      13.112   5.906   6.345  0.00  0.00    +0.000 A 
ATOM     17  C   UNL     1      14.157   5.003   6.260  0.00  0.00    +0.001 A 
ATOM     18  C   UNL     1      14.387   4.354   5.061  0.00  0.00    +0.015 A 
ATOM     19  C   UNL     1      13.578   4.612   3.970  0.00  0.00    +0.012 A 
ATOM     20  S   UNL     1      13.584   3.958   2.316  0.00  0.00    -0.112 S 
ENDBRANCH   9  12
ENDBRANCH   3   8
BRANCH   6  21
ATOM     21  C   UNL     1       6.196  -0.826   0.076  0.00  0.00    +0.019 C 
BRANCH  21  23
ATOM     22  N   UNL     1       5.522  -2.807  -1.243  0.00  0.00    -0.287 N 
ATOM     23  C   UNL     1       6.338  -1.743  -1.111  0.00  0.00    +0.201 C 
ATOM     24  O   UNL     1       7.187  -1.522  -1.949  0.00  0.00    -0.278 OA
ATOM     25  H   UNL     1       4.795  -2.942  -0.615  0.00  0.00    +0.155 HD
BRANCH  22  29
ATOM     26  C   UNL     1       6.122  -5.521  -4.346  0.00  0.00    +0.000 A 
ATOM     27  C   UNL     1       4.841  -5.260  -3.897  0.00  0.00    +0.002 A 
ATOM     28  C   UNL     1       4.639  -4.361  -2.868  0.00  0.00    +0.023 A 
ATOM     29  C   UNL     1       5.724  -3.719  -2.285  0.00  0.00    +0.033 A 
ATOM     30  C   UNL     1       7.009  -3.983  -2.739  0.00  0.00    +0.023 A 
ATOM     31  C   UNL     1       7.205  -4.884  -3.768  0.00  0.00    +0.002 A 
ENDBRANCH  22  29
ENDBRANCH  21  23
ENDBRANCH   6  21
TORSDOF 5
