REMARK  Name = ZINC01803296
REMARK  8 active torsions:
REMARK  status: ('A' for Active; 'I' for Inactive)
REMARK    1  A    between atoms: C_2  and  C_3
REMARK    2  A    between atoms: C_3  and  N_4
REMARK    3  A    between atoms: C_8  and  C_30
REMARK    4  A    between atoms: C_13  and  S_14
REMARK    5  A    between atoms: S_14  and  C_15
REMARK    6  A    between atoms: C_15  and  C_16
REMARK    7  A    between atoms: N_18  and  C_19
REMARK    8  A    between atoms: C_20  and  C_27
REMARK                            x       y       z     vdW  Elec       q    Type
REMARK                         _______ _______ _______ _____ _____    ______ ____
ROOT
ATOM      1  S   UNL     1       3.079  -3.523  -3.697  0.00  0.00    -0.078 S 
ENDROOT
BRANCH   1  11
ATOM      2  N   UNL     1       2.317  -1.084  -2.798  0.00  0.00    -0.283 N 
ATOM      3  C   UNL     1       1.656  -0.222  -2.004  0.00  0.00    +0.264 A 
ATOM      4  O   UNL     1       1.777   0.981  -2.164  0.00  0.00    -0.267 OA
ATOM      5  C   UNL     1       0.807  -0.732  -0.975  0.00  0.00    +0.080 A 
ATOM      6  C   UNL     1       0.002  -0.004   0.002  0.00  0.00    +0.010 A 
ATOM      7  C   UNL     1      -0.730  -0.710   0.898  0.00  0.00    +0.057 A 
ATOM      8  S   UNL     1      -0.372  -2.405   0.481  0.00  0.00    -0.076 S 
ATOM      9  C   UNL     1       0.742  -2.133  -0.873  0.00  0.00    +0.117 A 
ATOM     10  N   UNL     1       1.421  -2.931  -1.690  0.00  0.00    -0.216 NA
ATOM     11  C   UNL     1       2.193  -2.433  -2.634  0.00  0.00    +0.173 A 
BRANCH   6  12
ATOM     12  C   UNL     1      -0.018   1.474   0.010  0.00  0.00    +0.021 A 
ATOM     13  C   UNL     1      -1.093   2.322   0.019  0.00  0.00    +0.016 A 
ATOM     14  C   UNL     1      -0.863   3.682   0.029  0.00  0.00    +0.008 A 
ATOM     15  C   UNL     1       0.415   4.136   0.019  0.00  0.00    +0.046 A 
ATOM     16  S   UNL     1       1.353   2.617   0.003  0.00  0.00    -0.097 S 
ENDBRANCH   6  12
BRANCH   2  17
ATOM     17  C   UNL     1       3.186  -0.565  -3.857  0.00  0.00    +0.154 C 
BRANCH  17  19
ATOM     18  C   UNL     1       2.357   0.765  -5.730  0.00  0.00    +0.005 C 
ATOM     19  C   UNL     1       2.387  -0.396  -5.124  0.00  0.00    -0.013 C 
ENDBRANCH  17  19
ENDBRANCH   2  17
ENDBRANCH   1  11
BRANCH   1  20
ATOM     20  C   UNL     1       2.543  -5.118  -3.029  0.00  0.00    +0.173 C 
BRANCH  20  21
ATOM     21  C   UNL     1       3.194  -6.233  -3.807  0.00  0.00    +0.228 C 
ATOM     22  O   UNL     1       3.946  -5.974  -4.723  0.00  0.00    -0.275 OA
ATOM     23  N   UNL     1       2.940  -7.517  -3.485  0.00  0.00    -0.279 N 
ATOM     24  H   UNL     1       2.339  -7.723  -2.753  0.00  0.00    +0.155 HD
BRANCH  23  25
ATOM     25  C   UNL     1       3.539  -8.542  -4.201  0.00  0.00    +0.084 A 
ATOM     26  C   UNL     1       3.409  -9.908  -4.019  0.00  0.00    +0.068 A 
ATOM     27  C   UNL     1       4.153 -10.786  -4.922  0.00  0.00    -0.023 A 
ATOM     28  C   UNL     1       4.904 -10.154  -5.842  0.00  0.00    -0.004 A 
ATOM     29  S   UNL     1       4.636  -8.425  -5.534  0.00  0.00    -0.077 S 
ATOM     30  C   UNL     1       5.640 -11.121  -6.729  0.00  0.00    +0.043 C 
ATOM     31  C   UNL     1       4.915 -12.469  -6.523  0.00  0.00    +0.010 C 
ATOM     32  C   UNL     1       4.324 -12.294  -5.110  0.00  0.00    +0.037 C 
BRANCH  26  33
ATOM     33  C   UNL     1       2.553 -10.456  -2.962  0.00  0.00    +0.244 C 
ATOM     34  O   UNL     1       1.381 -10.694  -3.191  0.00  0.00    -0.270 OA
ATOM     35  N   UNL     1       3.063 -10.695  -1.738  0.00  0.00    -0.325 N 
ATOM     36  H   UNL     1       3.996 -10.505  -1.556  0.00  0.00    +0.145 HD
ATOM     37  H   UNL     1       2.496 -11.057  -1.039  0.00  0.00    +0.145 HD
ENDBRANCH  26  33
ENDBRANCH  23  25
ENDBRANCH  20  21
ENDBRANCH   1  20
TORSDOF 8
