REMARK  Name = ZINC66121787
REMARK  7 active torsions:
REMARK  status: ('A' for Active; 'I' for Inactive)
REMARK    1  A    between atoms: C_3  and  C_6
REMARK    2  A    between atoms: C_6  and  N_7
REMARK    3  A    between atoms: C_11  and  C_14
REMARK    4  A    between atoms: C_14  and  N_15
REMARK    5  A    between atoms: C_22  and  C_25
REMARK    6  A    between atoms: C_25  and  C_26
REMARK    7  A    between atoms: C_26  and  C_27
REMARK                            x       y       z     vdW  Elec       q    Type
REMARK                         _______ _______ _______ _____ _____    ______ ____
ROOT
ATOM      1  N   UNL     1       7.823   3.827   4.142  0.00  0.00    -0.299 N 
ATOM      2  C   UNL     1       9.023   4.394   4.377  0.00  0.00    +0.302 C 
ATOM      3  O   UNL     1       9.814   4.543   3.466  0.00  0.00    -0.253 OA
ATOM      4  N   UNL     1       9.346   4.795   5.622  0.00  0.00    -0.285 N 
ATOM      5  C   UNL     1       8.453   4.513   6.755  0.00  0.00    +0.109 C 
ATOM      6  C   UNL     1       9.255   3.802   7.849  0.00  0.00    +0.019 C 
ATOM      7  C   UNL     1      10.480   4.646   8.209  0.00  0.00    +0.006 C 
ATOM      8  C   UNL     1      11.375   4.800   6.978  0.00  0.00    +0.007 C 
ATOM      9  C   UNL     1      10.600   5.517   5.874  0.00  0.00    +0.112 C 
ATOM     10  H   UNL     1       7.221   3.641   4.879  0.00  0.00    +0.150 HD
ENDROOT
BRANCH   1  11
ATOM     11  C   UNL     1       7.428   3.490   2.772  0.00  0.00    +0.107 C 
BRANCH  11  16
ATOM     12  N   UNL     1       4.230   2.018   1.353  0.00  0.00    +0.383 N 
ATOM     13  C   UNL     1       4.280   0.705   2.006  0.00  0.00    -0.078 C 
ATOM     14  C   UNL     1       4.694   0.873   3.469  0.00  0.00    -0.018 C 
ATOM     15  C   UNL     1       6.077   1.528   3.530  0.00  0.00    +0.001 C 
ATOM     16  C   UNL     1       6.032   2.864   2.783  0.00  0.00    -0.011 C 
ATOM     17  C   UNL     1       5.568   2.622   1.345  0.00  0.00    -0.073 C 
ATOM     18  H   UNL     1       3.595   2.619   1.858  0.00  0.00    -0.081 HD
BRANCH  12  19
ATOM     19  C   UNL     1       3.757   1.860  -0.028  0.00  0.00    -0.036 C 
BRANCH  19  22
ATOM     20  C   UNL     1      -0.022   1.380   0.001  0.00  0.00    +0.008 A 
ATOM     21  C   UNL     1       1.180   2.062  -0.006  0.00  0.00    +0.009 A 
ATOM     22  C   UNL     1       2.337   1.356  -0.018  0.00  0.00    -0.027 A 
ATOM     23  S   UNL     1       1.741  -0.327  -0.020  0.00  0.00    -0.103 S 
ATOM     24  C   UNL     1      -0.009   0.025  -0.005  0.00  0.00    +0.045 A 
ENDBRANCH  19  22
ENDBRANCH  12  19
ENDBRANCH  11  16
ENDBRANCH   1  11
BRANCH   8  25
ATOM     25  C   UNL     1      12.616   5.615   7.347  0.00  0.00    +0.014 C 
BRANCH  25  26
ATOM     26  C   UNL     1      13.569   5.663   6.152  0.00  0.00    +0.096 C 
BRANCH  26  27
ATOM     27  C   UNL     1      14.791   6.466   6.515  0.00  0.00    +0.210 C 
ATOM     28  O   UNL     1      14.890   6.952   7.622  0.00  0.00    -0.276 OA
ATOM     29  N   UNL     1      15.774   6.645   5.611  0.00  0.00    -0.329 N 
ATOM     30  H   UNL     1      15.695   6.256   4.726  0.00  0.00    +0.145 HD
ATOM     31  H   UNL     1      16.561   7.162   5.845  0.00  0.00    +0.145 HD
ENDBRANCH  26  27
ENDBRANCH  25  26
ENDBRANCH   8  25
TORSDOF 7
