REMARK  Name = ZINC11881341
REMARK  6 active torsions:
REMARK  status: ('A' for Active; 'I' for Inactive)
REMARK    1  A    between atoms: C_4  and  C_7
REMARK    2  A    between atoms: C_7  and  C_20
REMARK    3  A    between atoms: N_11  and  C_14
REMARK    4  A    between atoms: C_14  and  C_15
REMARK    5  A    between atoms: C_20  and  C_21
REMARK    6  A    between atoms: C_26  and  N_65
REMARK                            x       y       z     vdW  Elec       q    Type
REMARK                         _______ _______ _______ _____ _____    ______ ____
ROOT
ATOM      1  C   UNL     1       3.641   4.387  -3.460  0.00  0.00    +0.089 C 
ATOM      2  C   UNL     1       2.624   5.546  -3.444  0.00  0.00    +0.117 C 
ATOM      3  C   UNL     1       2.034   5.481  -2.052  0.00  0.00    +0.223 C 
ATOM      4  O   UNL     1       1.183   6.226  -1.614  0.00  0.00    -0.275 OA
ATOM      5  N   UNL     1       2.602   4.472  -1.379  0.00  0.00    -0.236 N 
ATOM      6  C   UNL     1       3.523   3.793  -2.073  0.00  0.00    +0.234 C 
ATOM      7  O   UNL     1       4.161   2.849  -1.657  0.00  0.00    -0.274 OA
ENDROOT
BRANCH   1  11
ATOM      8  C   UNL     1       2.594   1.508  -6.437  0.00  0.00    +0.000 A 
ATOM      9  C   UNL     1       1.708   1.801  -5.417  0.00  0.00    +0.000 A 
ATOM     10  C   UNL     1       2.047   2.733  -4.454  0.00  0.00    +0.005 A 
ATOM     11  C   UNL     1       3.272   3.371  -4.510  0.00  0.00    -0.032 A 
ATOM     12  C   UNL     1       4.155   3.082  -5.533  0.00  0.00    +0.005 A 
ATOM     13  C   UNL     1       3.818   2.147  -6.494  0.00  0.00    +0.000 A 
ENDBRANCH   1  11
BRANCH   5  14
ATOM     14  C   UNL     1       2.248   4.142   0.003  0.00  0.00    +0.158 C 
BRANCH  14  15
ATOM     15  C   UNL     1       1.115   3.148   0.008  0.00  0.00    +0.008 A 
ATOM     16  C   UNL     1       1.169   1.793   0.001  0.00  0.00    +0.013 A 
ATOM     17  C   UNL     1      -0.013   1.076   0.008  0.00  0.00    +0.008 A 
ATOM     18  C   UNL     1      -1.190   1.748   0.017  0.00  0.00    +0.045 A 
ATOM     19  S   UNL     1      -0.644   3.448   0.027  0.00  0.00    -0.100 S 
ENDBRANCH  14  15
ENDBRANCH   5  14
BRANCH   1  20
ATOM     20  C   UNL     1       5.057   4.916  -3.695  0.00  0.00    +0.117 C 
BRANCH  20  21
ATOM     21  C   UNL     1       6.029   3.764  -3.706  0.00  0.00    +0.217 C 
ATOM     22  O   UNL     1       5.628   2.632  -3.541  0.00  0.00    -0.276 OA
ATOM     23  N   UNL     1       7.343   3.993  -3.898  0.00  0.00    -0.302 N 
ATOM     24  C   UNL     1       7.843   5.359  -4.105  0.00  0.00    +0.106 C 
ATOM     25  C   UNL     1       8.664   5.399  -5.392  0.00  0.00    +0.004 C 
ATOM     26  C   UNL     1       9.759   4.332  -5.330  0.00  0.00    -0.065 C 
ATOM     27  C   UNL     1       9.118   2.948  -5.206  0.00  0.00    +0.004 C 
ATOM     28  C   UNL     1       8.302   2.881  -3.911  0.00  0.00    +0.106 C 
BRANCH  26  34
ATOM     29  C   UNL     1      11.579   3.321  -6.568  0.00  0.00    -0.050 C 
ATOM     30  C   UNL     1      12.358   3.381  -7.884  0.00  0.00    +0.141 C 
ATOM     31  O   UNL     1      12.940   4.679  -8.030  0.00  0.00    -0.383 OA
ATOM     32  C   UNL     1      11.984   5.743  -8.021  0.00  0.00    +0.141 C 
ATOM     33  C   UNL     1      11.201   5.707  -6.706  0.00  0.00    -0.050 C 
ATOM     34  N   UNL     1      10.553   4.385  -6.576  0.00  0.00    +0.385 N 
ATOM     35  H   UNL     1       9.927   4.239  -7.377  0.00  0.00    -0.081 HD
ENDBRANCH  26  34
ENDBRANCH  20  21
ENDBRANCH   1  20
TORSDOF 6
