REMARK  Name = ZINC14031762
REMARK  12 active torsions:
REMARK  status: ('A' for Active; 'I' for Inactive)
REMARK    1  A    between atoms: C_1  and  C_2
REMARK    2  A    between atoms: C_2  and  C_4
REMARK    3  A    between atoms: C_2  and  O_25
REMARK    4  A    between atoms: N_6  and  N_7
REMARK    5  A    between atoms: N_7  and  C_8
REMARK    6  A    between atoms: C_8  and  N_10
REMARK    7  A    between atoms: C_11  and  C_13
REMARK    8  A    between atoms: C_13  and  C_14
REMARK    9  A    between atoms: C_14  and  C_15
REMARK   10  A    between atoms: C_15  and  O_16
REMARK   11  A    between atoms: O_16  and  C_17
REMARK   12  A    between atoms: O_25  and  C_26
REMARK                            x       y       z     vdW  Elec       q    Type
REMARK                         _______ _______ _______ _____ _____    ______ ____
ROOT
ATOM      1  N   UNL     1      -5.807  -0.828  -1.114  0.00  0.00    -0.245 N 
ATOM      2  H   UNL     1      -5.671  -1.731  -1.440  0.00  0.00    +0.172 HD
ENDROOT
BRANCH   1   5
ATOM      3  C   UNL     1      -3.520  -0.689  -0.467  0.00  0.00    +0.270 C 
ATOM      4  O   UNL     1      -3.350  -1.818  -0.875  0.00  0.00    -0.270 OA
ATOM      5  N   UNL     1      -4.738  -0.117  -0.553  0.00  0.00    -0.232 N 
ATOM      6  H   UNL     1      -4.874   0.786  -0.227  0.00  0.00    +0.173 HD
BRANCH   3   8
ATOM      7  C   UNL     1      -2.653   0.339   1.617  0.00  0.00    +0.062 C 
ATOM      8  C   UNL     1      -2.370   0.076   0.136  0.00  0.00    +0.257 C 
BRANCH   8   9
ATOM      9  O   UNL     1      -1.171  -0.691   0.010  0.00  0.00    -0.480 OA
BRANCH   9  10
ATOM     10  C   UNL     1       0.002  -0.004   0.007  0.00  0.00    +0.122 A 
ATOM     11  C   UNL     1      -0.004   1.375   0.240  0.00  0.00    +0.046 A 
ATOM     12  C   UNL     1       1.153   2.088   0.244  0.00  0.00    +0.012 A 
ATOM     13  C   UNL     1       2.376   1.435   0.010  0.00  0.00    -0.018 A 
ATOM     14  C   UNL     1       3.590   2.142   0.006  0.00  0.00    +0.008 A 
ATOM     15  C   UNL     1       4.756   1.478  -0.224  0.00  0.00    +0.001 A 
ATOM     16  C   UNL     1       4.765   0.104  -0.457  0.00  0.00    +0.001 A 
ATOM     17  C   UNL     1       3.609  -0.614  -0.461  0.00  0.00    +0.008 A 
ATOM     18  C   UNL     1       2.385   0.038  -0.227  0.00  0.00    -0.014 A 
ATOM     19  C   UNL     1       1.172  -0.670  -0.224  0.00  0.00    +0.054 A 
ENDBRANCH   9  10
ENDBRANCH   8   9
ENDBRANCH   3   8
ENDBRANCH   1   5
BRANCH   1  20
ATOM     20  C   UNL     1      -7.025  -0.256  -1.200  0.00  0.00    +0.153 C 
ATOM     21  S   UNL     1      -8.332  -1.124  -1.885  0.00  0.00    -0.017 S 
BRANCH  20  22
ATOM     22  N   UNL     1      -7.214   0.999  -0.746  0.00  0.00    -0.267 N 
ATOM     23  C   UNL     1      -8.431   1.571  -0.832  0.00  0.00    +0.219 C 
ATOM     24  O   UNL     1      -9.357   0.956  -1.317  0.00  0.00    -0.275 OA
ATOM     25  H   UNL     1      -6.473   1.491  -0.358  0.00  0.00    +0.157 HD
BRANCH  23  26
ATOM     26  C   UNL     1      -8.642   2.974  -0.325  0.00  0.00    +0.099 C 
BRANCH  26  27
ATOM     27  C   UNL     1     -10.102   3.380  -0.540  0.00  0.00    +0.050 C 
BRANCH  27  28
ATOM     28  C   UNL     1     -10.316   4.804  -0.025  0.00  0.00    +0.229 C 
BRANCH  28  29
ATOM     29  O   UNL     1     -11.679   5.183  -0.226  0.00  0.00    -0.490 OA
BRANCH  29  30
ATOM     30  C   UNL     1     -12.040   6.430   0.180  0.00  0.00    +0.139 A 
ATOM     31  C   UNL     1     -11.100   7.270   0.759  0.00  0.00    +0.048 A 
ATOM     32  C   UNL     1     -11.468   8.537   1.171  0.00  0.00    +0.023 A 
ATOM     33  C   UNL     1     -12.773   8.967   1.006  0.00  0.00    +0.043 A 
ATOM     34  C   UNL     1     -13.712   8.131   0.429  0.00  0.00    +0.043 A 
ATOM     35  C   UNL     1     -13.346   6.865   0.010  0.00  0.00    +0.084 A 
ATOM     36 CL   UNL     1     -14.523   5.819  -0.722  0.00  0.00    -0.080 Cl
ATOM     37 CL   UNL     1     -13.232  10.559   1.524  0.00  0.00    -0.083 Cl
ENDBRANCH  29  30
ENDBRANCH  28  29
ENDBRANCH  27  28
ENDBRANCH  26  27
ENDBRANCH  23  26
ENDBRANCH  20  22
ENDBRANCH   1  20
TORSDOF 11
