REMARK  Name = ZINC16682565
REMARK  15 active torsions:
REMARK  status: ('A' for Active; 'I' for Inactive)
REMARK    1  A    between atoms: C_1  and  C_2
REMARK    2  A    between atoms: C_2  and  O_3
REMARK    3  A    between atoms: O_3  and  C_4
REMARK    4  A    between atoms: C_4  and  C_6
REMARK    5  A    between atoms: C_7  and  S_33
REMARK    6  A    between atoms: C_9  and  C_14
REMARK    7  A    between atoms: C_12  and  N_13
REMARK    8  A    between atoms: C_14  and  C_28
REMARK    9  A    between atoms: C_18  and  C_20
REMARK   10  A    between atoms: C_23  and  O_26
REMARK   11  A    between atoms: O_26  and  C_27
REMARK   12  A    between atoms: C_28  and  O_30
REMARK   13  A    between atoms: O_30  and  C_31
REMARK   14  A    between atoms: C_31  and  C_32
REMARK   15  A    between atoms: S_33  and  C_34
REMARK                            x       y       z     vdW  Elec       q    Type
REMARK                         _______ _______ _______ _____ _____    ______ ____
ROOT
ATOM      1  C   UNL     1      -7.007  -3.369  -0.633  0.00  0.00    +0.130 C 
ATOM      2  C   UNL     1      -7.843  -3.590  -1.711  0.00  0.00    +0.221 C 
ATOM      3  N   UNL     1      -9.191  -3.794  -1.661  0.00  0.00    -0.203 N 
ATOM      4  N   UNL     1      -9.620  -3.973  -2.985  0.00  0.00    -0.141 NA
ATOM      5  C   UNL     1      -8.577  -3.878  -3.759  0.00  0.00    +0.244 C 
ATOM      6  O   UNL     1      -7.481  -3.639  -3.007  0.00  0.00    -0.420 OA
ATOM      7  H   UNL     1      -9.745  -3.811  -0.865  0.00  0.00    +0.178 HD
ENDROOT
BRANCH   1  11
ATOM      8  C   UNL     1      -2.796  -2.397   0.016  0.00  0.00    +0.119 C 
ATOM      9  C   UNL     1      -2.950  -3.791   0.016  0.00  0.00    +0.060 C 
ATOM     10  S   UNL     1      -4.594  -4.441   0.019  0.00  0.00    -0.086 S 
ATOM     11  C   UNL     1      -5.532  -3.155  -0.856  0.00  0.00    +0.212 C 
ATOM     12  N   UNL     1      -5.150  -1.842  -0.348  0.00  0.00    -0.248 NA
ATOM     13  C   UNL     1      -3.959  -1.515   0.032  0.00  0.00    +0.147 C 
BRANCH   8  14
ATOM     14  C   UNL     1      -1.497  -1.839   0.006  0.00  0.00    +0.344 C 
ATOM     15  O   UNL     1      -0.522  -2.567  -0.007  0.00  0.00    -0.245 OA
BRANCH  14  16
ATOM     16  O   UNL     1      -1.339  -0.499   0.012  0.00  0.00    -0.461 OA
BRANCH  16  18
ATOM     17  C   UNL     1      -0.019   1.526   0.010  0.00  0.00    +0.048 C 
ATOM     18  C   UNL     1       0.002  -0.004   0.002  0.00  0.00    +0.229 C 
ENDBRANCH  16  18
ENDBRANCH  14  16
ENDBRANCH   8  14
BRANCH  13  19
ATOM     19  N   UNL     1      -3.768  -0.225   0.483  0.00  0.00    -0.249 NA
ATOM     20  H   UNL     1      -4.513   0.395   0.511  0.00  0.00    +0.172 HD
ENDBRANCH  13  19
BRANCH   9  21
ATOM     21  S   UNL     1      -1.550  -4.860   0.012  0.00  0.00    -0.121 S 
ATOM     22  C   UNL     1      -2.269  -6.525   0.013  0.00  0.00    +0.090 C 
ENDBRANCH   9  21
ENDBRANCH   1  11
BRANCH   5  23
ATOM     23  C   UNL     1      -8.592  -4.007  -5.231  0.00  0.00    +0.038 A 
ATOM     24  C   UNL     1      -7.404  -3.892  -5.955  0.00  0.00    +0.017 A 
ATOM     25  C   UNL     1      -7.422  -4.013  -7.328  0.00  0.00    +0.046 A 
ATOM     26  C   UNL     1      -8.619  -4.248  -7.991  0.00  0.00    +0.120 A 
ATOM     27  C   UNL     1      -9.803  -4.363  -7.274  0.00  0.00    +0.046 A 
ATOM     28  C   UNL     1      -9.793  -4.250  -5.901  0.00  0.00    +0.017 A 
BRANCH  26  29
ATOM     29  O   UNL     1      -8.633  -4.366  -9.345  0.00  0.00    -0.495 OA
ATOM     30  C   UNL     1      -9.898  -4.608  -9.962  0.00  0.00    +0.277 C 
ENDBRANCH  26  29
ENDBRANCH   5  23
BRANCH   1  31
ATOM     31  C   UNL     1      -7.528  -3.345   0.662  0.00  0.00    +0.343 C 
ATOM     32  O   UNL     1      -8.721  -3.519   0.842  0.00  0.00    -0.245 OA
BRANCH  31  33
ATOM     33  O   UNL     1      -6.710  -3.129   1.716  0.00  0.00    -0.461 OA
BRANCH  33  34
ATOM     34  C   UNL     1      -7.311  -3.118   3.012  0.00  0.00    +0.229 C 
ATOM     35  C   UNL     1      -6.236  -2.861   4.070  0.00  0.00    +0.048 C 
ENDBRANCH  33  34
ENDBRANCH  31  33
ENDBRANCH   1  31
TORSDOF 11
