REMARK  Name = ZINC09578946
REMARK  10 active torsions:
REMARK  status: ('A' for Active; 'I' for Inactive)
REMARK    1  A    between atoms: C_1  and  O_2
REMARK    2  A    between atoms: O_2  and  C_3
REMARK    3  A    between atoms: C_6  and  C_9
REMARK    4  A    between atoms: C_9  and  C_10
REMARK    5  A    between atoms: C_10  and  C_12
REMARK    6  A    between atoms: C_10  and  N_20
REMARK    7  A    between atoms: C_15  and  O_18
REMARK    8  A    between atoms: O_18  and  C_19
REMARK    9  A    between atoms: C_21  and  C_23
REMARK   10  A    between atoms: C_28  and  N_68
REMARK                            x       y       z     vdW  Elec       q    Type
REMARK                         _______ _______ _______ _____ _____    ______ ____
ROOT
ATOM      1  C   UNL     1      -3.777   5.067   5.803  0.00  0.00    +0.107 C 
ENDROOT
BRANCH   1   2
ATOM      2  C   UNL     1      -2.724   4.894   6.867  0.00  0.00    -0.027 A 
ATOM      3  C   UNL     1      -1.416   5.261   6.611  0.00  0.00    +0.009 A 
ATOM      4  C   UNL     1      -0.450   5.109   7.587  0.00  0.00    +0.046 A 
ATOM      5  C   UNL     1      -0.792   4.577   8.822  0.00  0.00    +0.120 A 
ATOM      6  C   UNL     1      -2.104   4.205   9.075  0.00  0.00    +0.046 A 
ATOM      7  C   UNL     1      -3.067   4.364   8.098  0.00  0.00    +0.009 A 
BRANCH   5   8
ATOM      8  O   UNL     1       0.157   4.422   9.782  0.00  0.00    -0.495 OA
ATOM      9  C   UNL     1       1.487   4.827   9.451  0.00  0.00    +0.277 C 
ENDBRANCH   5   8
ENDBRANCH   1   2
BRANCH   1  10
ATOM     10  N   UNL     1      -3.216   4.705   4.499  0.00  0.00    -0.308 N 
ATOM     11  C   UNL     1      -3.210   3.417   4.102  0.00  0.00    +0.216 C 
ATOM     12  O   UNL     1      -3.669   2.558   4.824  0.00  0.00    -0.276 OA
ATOM     13  H   UNL     1      -2.849   5.393   3.921  0.00  0.00    +0.149 HD
BRANCH  11  14
ATOM     14  C   UNL     1      -2.634   3.045   2.760  0.00  0.00    +0.071 C 
ATOM     15  C   UNL     1      -2.749   1.532   2.556  0.00  0.00    -0.006 C 
ATOM     16  C   UNL     1      -2.108   1.152   1.219  0.00  0.00    -0.078 C 
ATOM     17  C   UNL     1      -0.562   3.012   1.367  0.00  0.00    -0.078 C 
ATOM     18  C   UNL     1      -1.157   3.447   2.708  0.00  0.00    -0.006 C 
ATOM     19  N   UNL     1      -0.682   1.544   1.243  0.00  0.00    +0.383 N 
ATOM     20  H   UNL     1      -0.229   1.103   2.051  0.00  0.00    -0.081 HD
BRANCH  19  21
ATOM     21  C   UNL     1      -0.013   1.086   0.008  0.00  0.00    -0.046 C 
ATOM     22  C   UNL     1       1.442   1.584   0.018  0.00  0.00    +0.009 C 
ATOM     23  C   UNL     1       2.222   0.823  -1.093  0.00  0.00    +0.164 C 
ATOM     24  S   UNL     1       1.533  -0.874  -0.886  0.00  0.00    -0.033 S 
ATOM     25  O   UNL     1       2.366  -1.605   0.003  0.00  0.00    -0.174 OA
ATOM     26  O   UNL     1       1.235  -1.412  -2.167  0.00  0.00    -0.174 OA
ATOM     27  C   UNL     1      -0.041  -0.461  -0.029  0.00  0.00    +0.151 C 
ENDBRANCH  19  21
ENDBRANCH  11  14
ENDBRANCH   1  10
BRANCH   1  28
ATOM     28  C   UNL     1      -4.237   6.526   5.773  0.00  0.00    +0.062 C 
BRANCH  28  32
ATOM     29  C   UNL     1      -7.462   6.945   3.001  0.00  0.00    +0.120 A 
ATOM     30  C   UNL     1      -7.723   6.647   4.330  0.00  0.00    +0.046 A 
ATOM     31  C   UNL     1      -6.679   6.512   5.224  0.00  0.00    +0.007 A 
ATOM     32  C   UNL     1      -5.375   6.674   4.795  0.00  0.00    -0.045 A 
ATOM     33  C   UNL     1      -5.112   6.976   3.472  0.00  0.00    +0.007 A 
ATOM     34  C   UNL     1      -6.153   7.107   2.573  0.00  0.00    +0.046 A 
BRANCH  29  36
ATOM     35  C   UNL     1      -8.145   7.385   0.766  0.00  0.00    +0.277 C 
ATOM     36  O   UNL     1      -8.488   7.078   2.119  0.00  0.00    -0.495 OA
ENDBRANCH  29  36
ENDBRANCH  28  32
ENDBRANCH   1  28
TORSDOF 8
