REMARK  Name = ZINC20713111
REMARK  4 active torsions:
REMARK  status: ('A' for Active; 'I' for Inactive)
REMARK    1  A    between atoms: N_9  and  S_10
REMARK    2  A    between atoms: S_10  and  C_13
REMARK    3  A    between atoms: C_26  and  C_29
REMARK    4  A    between atoms: C_34  and  N_35
REMARK                            x       y       z     vdW  Elec       q    Type
REMARK                         _______ _______ _______ _____ _____    ______ ____
ROOT
ATOM      1  C   UNL     1      -7.323   4.659  -0.893  0.00  0.00    +0.109 A 
ATOM      2  C   UNL     1      -7.162   3.632   0.020  0.00  0.00    +0.030 A 
ATOM      3  C   UNL     1      -5.901   3.283   0.456  0.00  0.00    +0.025 A 
ATOM      4  C   UNL     1      -4.783   3.959  -0.017  0.00  0.00    +0.031 A 
ATOM      5  C   UNL     1      -4.954   5.005  -0.931  0.00  0.00    -0.018 A 
ATOM      6  C   UNL     1      -6.217   5.343  -1.364  0.00  0.00    +0.034 A 
ATOM      7  C   UNL     1      -3.740   5.712  -1.393  0.00  0.00    +0.049 C 
ATOM      8  C   UNL     1      -3.686   6.400  -2.709  0.00  0.00    -0.023 C 
ATOM      9  C   UNL     1      -2.442   6.342  -3.168  0.00  0.00    -0.030 C 
ATOM     10  C   UNL     1      -1.559   5.567  -2.189  0.00  0.00    +0.033 C 
ATOM     11  C   UNL     1      -2.588   4.667  -1.491  0.00  0.00    +0.029 C 
ATOM     12  C   UNL     1      -2.292   4.255  -0.060  0.00  0.00    +0.107 C 
ATOM     13  N   UNL     1      -3.511   3.564   0.415  0.00  0.00    -0.336 N 
ATOM     14  H   UNL     1      -3.427   2.724   1.119  0.00  0.00    +0.147 HD
ENDROOT
BRANCH  12  15
ATOM     15  C   UNL     1      -1.113   3.318  -0.021  0.00  0.00    +0.003 A 
ATOM     16  C   UNL     1      -0.664   2.723  -1.185  0.00  0.00    +0.008 A 
ATOM     17  C   UNL     1       0.414   1.859  -1.148  0.00  0.00    +0.000 A 
ATOM     18  C   UNL     1       1.050   1.598   0.051  0.00  0.00    +0.002 A 
ATOM     19  C   UNL     1       0.605   2.197   1.214  0.00  0.00    +0.033 A 
ATOM     20  C   UNL     1      -0.476   3.058   1.178  0.00  0.00    +0.131 A 
BRANCH  20  21
ATOM     21  N   UNL     1      -0.953   3.700   2.424  0.00  0.00    +0.057 N 
ATOM     22  O   UNL     1      -0.329   3.557   3.460  0.00  0.00    -0.126 OA
ATOM     23  O   UNL     1      -1.970   4.371   2.412  0.00  0.00    -0.126 OA
ENDBRANCH  20  21
ENDBRANCH  12  15
BRANCH   1  24
ATOM     24  S   UNL     1      -8.935   5.096  -1.454  0.00  0.00    +0.075 S 
ATOM     25  O   UNL     1      -8.768   5.726  -2.717  0.00  0.00    -0.150 OA
ATOM     26  O   UNL     1      -9.751   3.947  -1.278  0.00  0.00    -0.150 OA
BRANCH  24  35
ATOM     27  C   UNL     1     -11.717   5.902   3.096  0.00  0.00    +0.000 A 
ATOM     28  C   UNL     1     -11.375   4.729   2.448  0.00  0.00    +0.002 A 
ATOM     29  C   UNL     1     -10.647   4.769   1.279  0.00  0.00    +0.025 A 
ATOM     30  C   UNL     1     -10.254   5.994   0.735  0.00  0.00    +0.054 A 
ATOM     31  C   UNL     1     -10.597   7.164   1.395  0.00  0.00    -0.023 A 
ATOM     32  C   UNL     1     -11.327   7.119   2.567  0.00  0.00    +0.005 A 
ATOM     33  C   UNL     1     -10.051   8.336   0.611  0.00  0.00    +0.058 C 
ATOM     34  C   UNL     1      -9.336   7.697  -0.591  0.00  0.00    +0.136 C 
ATOM     35  N   UNL     1      -9.516   6.253  -0.421  0.00  0.00    -0.202 N 
ENDBRANCH  24  35
ENDBRANCH   1  24
TORSDOF 4
