REMARK  Name = ZINC38701066
REMARK  9 active torsions:
REMARK  status: ('A' for Active; 'I' for Inactive)
REMARK    1  A    between atoms: C_2  and  C_3
REMARK    2  A    between atoms: C_3  and  O_4
REMARK    3  A    between atoms: O_4  and  C_5
REMARK    4  A    between atoms: C_9  and  C_11
REMARK    5  A    between atoms: C_16  and  O_25
REMARK    6  A    between atoms: C_20  and  N_24
REMARK    7  A    between atoms: C_21  and  C_22
REMARK    8  A    between atoms: O_25  and  C_26
REMARK    9  A    between atoms: C_26  and  C_28
REMARK                            x       y       z     vdW  Elec       q    Type
REMARK                         _______ _______ _______ _____ _____    ______ ____
ROOT
ATOM      1  C   UNL     1      -3.495  -5.616  -3.079  0.00  0.00    +0.098 C 
ATOM      2  C   UNL     1      -3.682  -6.915  -2.341  0.00  0.00    +0.008 A 
ATOM      3  C   UNL     1      -2.595  -7.510  -1.725  0.00  0.00    +0.012 A 
ATOM      4  C   UNL     1      -2.747  -8.702  -1.044  0.00  0.00    +0.047 A 
ATOM      5  C   UNL     1      -3.994  -9.307  -0.977  0.00  0.00    +0.135 A 
ATOM      6  C   UNL     1      -5.084  -8.715  -1.593  0.00  0.00    +0.093 A 
ATOM      7  C   UNL     1      -4.929  -7.516  -2.277  0.00  0.00    +0.138 A 
ATOM      8  O   UNL     1      -6.006  -6.949  -2.875  0.00  0.00    -0.441 OA
ATOM      9  C   UNL     1      -5.830  -6.033  -3.842  0.00  0.00    +0.199 C 
ATOM     10  C   UNL     1      -4.664  -5.366  -3.990  0.00  0.00    +0.098 C 
ENDROOT
BRANCH   1  15
ATOM     11  C   UNL     1      -2.146  -2.677  -1.124  0.00  0.00    +0.121 A 
ATOM     12  C   UNL     1      -3.196  -2.420  -0.255  0.00  0.00    +0.045 A 
ATOM     13  C   UNL     1      -4.337  -3.197  -0.303  0.00  0.00    +0.004 A 
ATOM     14  C   UNL     1      -4.433  -4.230  -1.218  0.00  0.00    +0.005 A 
ATOM     15  C   UNL     1      -3.388  -4.489  -2.084  0.00  0.00    -0.031 A 
ATOM     16  C   UNL     1      -2.247  -3.711  -2.043  0.00  0.00    +0.050 A 
BRANCH  11  17
ATOM     17  O   UNL     1      -1.022  -1.914  -1.078  0.00  0.00    -0.488 OA
BRANCH  17  18
ATOM     18  C   UNL     1      -0.988  -0.867  -0.106  0.00  0.00    +0.256 C 
BRANCH  18  20
ATOM     19  C   UNL     1       0.347   1.176  -0.182  0.00  0.00    +0.007 C 
ATOM     20  C   UNL     1       0.325  -0.134  -0.203  0.00  0.00    +0.006 C 
ENDBRANCH  18  20
ENDBRANCH  17  18
ENDBRANCH  11  17
ENDBRANCH   1  15
BRANCH   9  21
ATOM     21  N   UNL     1      -6.865  -5.766  -4.703  0.00  0.00    -0.328 N 
ATOM     22  H   UNL     1      -7.708  -6.237  -4.609  0.00  0.00    +0.145 HD
ATOM     23  H   UNL     1      -6.753  -5.107  -5.407  0.00  0.00    +0.145 HD
ENDBRANCH   9  21
BRANCH  10  24
ATOM     24  C   UNL     1      -4.542  -4.400  -5.040  0.00  0.00    +0.101 C 
ATOM     25  N   UNL     1      -4.445  -3.634  -5.872  0.00  0.00    -0.191 NA
ENDBRANCH  10  24
BRANCH   5  26
ATOM     26  O   UNL     1      -4.146 -10.481  -0.308  0.00  0.00    -0.423 OA
BRANCH  26  27
ATOM     27  C   UNL     1      -4.403 -11.587  -1.025  0.00  0.00    +0.357 C 
ATOM     28  O   UNL     1      -4.391 -11.540  -2.232  0.00  0.00    -0.246 OA
BRANCH  27  29
ATOM     29  C   UNL     1      -4.707 -12.885  -0.323  0.00  0.00    +0.319 C 
ATOM     30  C   UNL     1      -6.030 -12.761   0.445  0.00  0.00    +0.285 C 
ATOM     31  O   UNL     1      -6.295 -14.014   1.086  0.00  0.00    -0.484 OA
ATOM     32  C   UNL     1      -6.135 -15.134   0.330  0.00  0.00    +0.162 A 
ATOM     33  C   UNL     1      -6.708 -16.326   0.749  0.00  0.00    +0.049 A 
ATOM     34  C   UNL     1      -6.551 -17.472  -0.007  0.00  0.00    +0.004 A 
ATOM     35  C   UNL     1      -5.824 -17.435  -1.182  0.00  0.00    +0.004 A 
ATOM     36  C   UNL     1      -5.253 -16.250  -1.606  0.00  0.00    +0.049 A 
ATOM     37  C   UNL     1      -5.407 -15.095  -0.853  0.00  0.00    +0.163 A 
ATOM     38  O   UNL     1      -4.845 -13.934  -1.288  0.00  0.00    -0.470 OA
ENDBRANCH  27  29
ENDBRANCH  26  27
ENDBRANCH   5  26
TORSDOF 9
