REMARK  Name = ZINC01909091
REMARK  8 active torsions:
REMARK  status: ('A' for Active; 'I' for Inactive)
REMARK    1  A    between atoms: C_4  and  N_7
REMARK    2  A    between atoms: N_7  and  C_8
REMARK    3  A    between atoms: C_8  and  N_10
REMARK    4  A    between atoms: N_10  and  N_11
REMARK    5  A    between atoms: C_12  and  C_13
REMARK    6  A    between atoms: C_16  and  C_18
REMARK    7  A    between atoms: C_21  and  S_24
REMARK    8  A    between atoms: S_24  and  N_27
REMARK                            x       y       z     vdW  Elec       q    Type
REMARK                         _______ _______ _______ _____ _____    ______ ____
ROOT
ATOM      1  C   UNL     1      -0.753   3.717   0.389  0.00  0.00    +0.148 A 
ATOM      2  C   UNL     1       0.620   3.817   0.403  0.00  0.00    +0.051 A 
ATOM      3  C   UNL     1       1.111   2.578   0.838  0.00  0.00    +0.050 A 
ATOM      4  C   UNL     1       0.032   1.779   1.070  0.00  0.00    +0.136 A 
ATOM      5  O   UNL     1      -1.087   2.474   0.790  0.00  0.00    -0.454 OA
ENDROOT
BRANCH   4   6
ATOM      6  C   UNL     1       0.081   0.381   1.542  0.00  0.00    +0.017 A 
ATOM      7  C   UNL     1       1.312  -0.234   1.786  0.00  0.00    +0.013 A 
ATOM      8  C   UNL     1       1.350  -1.538   2.232  0.00  0.00    +0.029 A 
ATOM      9  C   UNL     1       0.174  -2.241   2.428  0.00  0.00    +0.105 A 
ATOM     10  C   UNL     1      -1.048  -1.640   2.184  0.00  0.00    +0.029 A 
ATOM     11  C   UNL     1      -1.102  -0.334   1.742  0.00  0.00    +0.013 A 
BRANCH   9  12
ATOM     12  S   UNL     1       0.234  -3.910   2.991  0.00  0.00    +0.056 S 
ATOM     13  O   UNL     1       1.473  -4.066   3.668  0.00  0.00    -0.153 OA
ATOM     14  O   UNL     1      -1.015  -4.172   3.618  0.00  0.00    -0.153 OA
BRANCH  12  15
ATOM     15  N   UNL     1       0.302  -4.877   1.649  0.00  0.00    -0.204 NA
ATOM     16  H   UNL     1       0.303  -4.480   0.764  0.00  0.00    +0.144 HD
ATOM     17  H   UNL     1       0.341  -5.842   1.748  0.00  0.00    +0.144 HD
ENDBRANCH  12  15
ENDBRANCH   9  12
ENDBRANCH   4   6
BRANCH   1  19
ATOM     18  N   UNL     1      -2.970   4.554   0.030  0.00  0.00    -0.185 NA
ATOM     19  C   UNL     1      -1.688   4.775   0.000  0.00  0.00    +0.176 C 
BRANCH  18  20
ATOM     20  N   UNL     1      -3.865   5.566  -0.342  0.00  0.00    -0.218 N 
ATOM     21  H   UNL     1      -3.528   6.432  -0.622  0.00  0.00    +0.176 HD
BRANCH  20  22
ATOM     22  C   UNL     1      -5.192   5.338  -0.311  0.00  0.00    +0.154 C 
ATOM     23  S   UNL     1      -6.285   6.575  -0.765  0.00  0.00    -0.017 S 
BRANCH  22  24
ATOM     24  N   UNL     1      -5.660   4.135   0.078  0.00  0.00    -0.296 N 
ATOM     25  H   UNL     1      -5.041   3.415   0.277  0.00  0.00    +0.154 HD
BRANCH  24  29
ATOM     26  C   UNL     1      -9.763   3.509   0.428  0.00  0.00    +0.000 A 
ATOM     27  C   UNL     1      -9.256   4.154  -0.685  0.00  0.00    +0.002 A 
ATOM     28  C   UNL     1      -7.896   4.363  -0.804  0.00  0.00    +0.023 A 
ATOM     29  C   UNL     1      -7.038   3.925   0.196  0.00  0.00    +0.033 A 
ATOM     30  C   UNL     1      -7.550   3.273   1.310  0.00  0.00    +0.023 A 
ATOM     31  C   UNL     1      -8.911   3.071   1.426  0.00  0.00    +0.002 A 
ENDBRANCH  24  29
ENDBRANCH  22  24
ENDBRANCH  20  22
ENDBRANCH  18  20
ENDBRANCH   1  19
TORSDOF 8
