REMARK  Name = ZINC03063359
REMARK  5 active torsions:
REMARK  status: ('A' for Active; 'I' for Inactive)
REMARK    1  A    between atoms: C_1  and  C_2
REMARK    2  A    between atoms: C_6  and  C_8
REMARK    3  A    between atoms: C_8  and  N_9
REMARK    4  A    between atoms: C_18  and  C_19
REMARK    5  A    between atoms: C_22  and  C_25
REMARK                            x       y       z     vdW  Elec       q    Type
REMARK                         _______ _______ _______ _____ _____    ______ ____
ROOT
ATOM      1  N   UNL     1      -0.163  -1.326  -2.572  0.00  0.00    -0.262 N 
ATOM      2  C   UNL     1       0.335  -0.060  -2.850  0.00  0.00    +0.051 A 
ATOM      3  C   UNL     1      -0.447   0.810  -3.609  0.00  0.00    +0.024 A 
ATOM      4  C   UNL     1       0.007   2.078  -3.907  0.00  0.00    +0.002 A 
ATOM      5  C   UNL     1       1.244   2.505  -3.458  0.00  0.00    +0.001 A 
ATOM      6  C   UNL     1       2.033   1.655  -2.706  0.00  0.00    +0.017 A 
ATOM      7  C   UNL     1       1.582   0.380  -2.403  0.00  0.00    +0.034 A 
ATOM      8  S   UNL     1       2.591  -0.707  -1.441  0.00  0.00    -0.082 S 
ATOM      9  C   UNL     1       1.370  -1.770  -0.716  0.00  0.00    +0.076 C 
ATOM     10  C   UNL     1       1.475  -2.218   0.560  0.00  0.00    +0.028 C 
ATOM     11  C   UNL     1       0.228  -2.138  -1.587  0.00  0.00    +0.258 C 
ATOM     12  O   UNL     1      -0.356  -3.189  -1.402  0.00  0.00    -0.269 OA
ENDROOT
BRANCH  10  13
ATOM     13  C   UNL     1       0.355  -2.939   1.179  0.00  0.00    -0.024 A 
ATOM     14  C   UNL     1      -0.962  -2.525   0.941  0.00  0.00    +0.009 A 
ATOM     15  C   UNL     1      -2.003  -3.199   1.512  0.00  0.00    +0.013 A 
ATOM     16  C   UNL     1      -1.754  -4.295   2.344  0.00  0.00    +0.037 A 
ATOM     17  C   UNL     1      -0.439  -4.706   2.587  0.00  0.00    +0.013 A 
ATOM     18  C   UNL     1       0.603  -4.037   2.012  0.00  0.00    +0.009 A 
BRANCH  16  19
ATOM     19  C   UNL     1      -2.879  -5.019   2.966  0.00  0.00    +0.247 C 
ATOM     20  O   UNL     1      -3.763  -4.402   3.528  0.00  0.00    -0.270 OA
ATOM     21  N   UNL     1      -2.928  -6.365   2.910  0.00  0.00    -0.297 N 
ATOM     22  C   UNL     1      -1.825  -7.129   2.312  0.00  0.00    +0.113 C 
ATOM     23  C   UNL     1      -2.388  -8.055   1.234  0.00  0.00    +0.084 C 
ATOM     24  C   UNL     1      -3.502  -8.914   1.835  0.00  0.00    +0.173 C 
ATOM     25  C   UNL     1      -4.631  -8.019   2.348  0.00  0.00    +0.084 C 
ATOM     26  C   UNL     1      -4.087  -7.094   3.442  0.00  0.00    +0.113 C 
ATOM     27  O   UNL     1      -4.011  -9.809   0.838  0.00  0.00    -0.346 OA
ATOM     28  C   UNL     1      -3.810 -11.151   1.325  0.00  0.00    +0.191 C 
ATOM     29  C   UNL     1      -3.672 -10.953   2.855  0.00  0.00    +0.191 C 
ATOM     30  O   UNL     1      -2.973  -9.687   2.925  0.00  0.00    -0.346 OA
ENDBRANCH  16  19
ENDBRANCH  10  13
BRANCH   1  31
ATOM     31  C   UNL     1      -1.222  -1.823  -3.453  0.00  0.00    +0.149 C 
BRANCH  31  37
ATOM     32  C   UNL     1       0.650  -1.346  -8.069  0.00  0.00    +0.044 C 
ATOM     33  C   UNL     1       0.291  -2.212  -6.890  0.00  0.00    -0.050 A 
ATOM     34  C   UNL     1       0.526  -3.574  -6.935  0.00  0.00    +0.003 A 
ATOM     35  C   UNL     1       0.197  -4.369  -5.854  0.00  0.00    +0.001 A 
ATOM     36  C   UNL     1      -0.369  -3.802  -4.727  0.00  0.00    +0.005 A 
ATOM     37  C   UNL     1      -0.605  -2.441  -4.681  0.00  0.00    -0.029 A 
ATOM     38  C   UNL     1      -0.280  -1.647  -5.765  0.00  0.00    +0.008 A 
ENDBRANCH  31  37
ENDBRANCH   1  31
TORSDOF 4
