REMARK  Name = ZINC26441949
REMARK  7 active torsions:
REMARK  status: ('A' for Active; 'I' for Inactive)
REMARK    1  A    between atoms: C_2  and  C_3
REMARK    2  A    between atoms: C_3  and  N_4
REMARK    3  A    between atoms: C_5  and  C_26
REMARK    4  A    between atoms: N_9  and  C_10
REMARK    5  A    between atoms: C_13  and  C_16
REMARK    6  A    between atoms: C_31  and  O_32
REMARK    7  A    between atoms: O_32  and  C_33
REMARK                            x       y       z     vdW  Elec       q    Type
REMARK                         _______ _______ _______ _____ _____    ______ ____
ROOT
ATOM      1  N   UNL     1      -2.098   4.145   6.336  0.00  0.00    -0.317 N 
ATOM      2  C   UNL     1      -0.865   4.560   6.757  0.00  0.00    +0.061 A 
ATOM      3  C   UNL     1      -0.275   3.944   7.803  0.00  0.00    +0.075 A 
ATOM      4  S   UNL     1      -1.493   2.718   8.250  0.00  0.00    -0.059 S 
ATOM      5  C   UNL     1      -2.707   3.107   7.000  0.00  0.00    +0.152 A 
ATOM      6  N   UNL     1      -3.881   2.546   6.773  0.00  0.00    -0.336 N 
ATOM      7  H   UNL     1      -4.479   2.853   5.902  0.00  0.00    +0.168 HD
ENDROOT
BRANCH   6   8
ATOM      8  C   UNL     1      -4.353   1.585   7.619  0.00  0.00    +0.041 A 
ATOM      9  C   UNL     1      -4.150   0.232   7.324  0.00  0.00    +0.026 A 
ATOM     10  C   UNL     1      -4.618  -0.729   8.174  0.00  0.00    +0.013 A 
ATOM     11  C   UNL     1      -5.308  -0.362   9.332  0.00  0.00    +0.019 A 
ATOM     12  C   UNL     1      -5.516   0.988   9.625  0.00  0.00    +0.013 A 
ATOM     13  C   UNL     1      -5.045   1.951   8.779  0.00  0.00    +0.026 A 
BRANCH  11  14
ATOM     14  C   UNL     1      -5.819  -1.403  10.248  0.00  0.00    +0.164 A 
ATOM     15  N   UNL     1      -6.014  -2.674   9.963  0.00  0.00    -0.129 NA
ATOM     16  N   UNL     1      -6.460  -3.290  11.001  0.00  0.00    -0.134 NA
ATOM     17  C   UNL     1      -6.570  -2.459  11.999  0.00  0.00    +0.134 A 
ATOM     18  N   UNL     1      -6.174  -1.234  11.556  0.00  0.00    -0.311 N 
ATOM     19  C   UNL     1      -6.167   0.010  12.325  0.00  0.00    +0.125 C 
ATOM     20  C   UNL     1      -5.972  -0.315  13.808  0.00  0.00    +0.022 C 
ATOM     21  C   UNL     1      -7.331  -0.534  14.471  0.00  0.00    +0.002 C 
ATOM     22  C   UNL     1      -8.056  -1.715  13.832  0.00  0.00    +0.008 C 
ATOM     23  C   UNL     1      -7.036  -2.771  13.398  0.00  0.00    +0.076 C 
ENDBRANCH  11  14
ENDBRANCH   6   8
BRANCH   2  24
ATOM     24  C   UNL     1      -0.180   5.674   6.067  0.00  0.00    +0.041 A 
ATOM     25  C   UNL     1      -0.831   6.895   5.889  0.00  0.00    +0.013 A 
ATOM     26  C   UNL     1      -0.188   7.928   5.239  0.00  0.00    +0.001 A 
ATOM     27  C   UNL     1       1.103   7.761   4.769  0.00  0.00    +0.004 A 
ATOM     28  C   UNL     1       1.760   6.558   4.945  0.00  0.00    +0.046 A 
ATOM     29  C   UNL     1       1.128   5.511   5.595  0.00  0.00    +0.136 A 
BRANCH  29  30
ATOM     30  O   UNL     1       1.773   4.327   5.768  0.00  0.00    -0.434 OA
BRANCH  30  31
ATOM     31  C   UNL     1       3.103   4.232   5.254  0.00  0.00    +0.541 C 
ATOM     32  F   UNL     1       3.911   5.194   5.870  0.00  0.00    -0.166 F 
ATOM     33  F   UNL     1       3.086   4.452   3.873  0.00  0.00    -0.166 F 
ENDBRANCH  30  31
ENDBRANCH  29  30
ENDBRANCH   2  24
BRANCH   1  34
ATOM     34  C   UNL     1      -2.756   4.793   5.199  0.00  0.00    +0.151 C 
BRANCH  34  36
ATOM     35  C   UNL     1      -3.438   3.589   3.187  0.00  0.00    +0.005 C 
ATOM     36  C   UNL     1      -2.456   4.024   3.939  0.00  0.00    -0.013 C 
ENDBRANCH  34  36
ENDBRANCH   1  34
TORSDOF 7
