REMARK  Name = ZINC39579946
REMARK  11 active torsions:
REMARK  status: ('A' for Active; 'I' for Inactive)
REMARK    1  A    between atoms: C_1  and  C_2
REMARK    2  A    between atoms: C_5  and  N_8
REMARK    3  A    between atoms: C_9  and  C_11
REMARK    4  A    between atoms: C_11  and  C_13
REMARK    5  A    between atoms: C_11  and  O_19
REMARK    6  A    between atoms: O_19  and  C_20
REMARK    7  A    between atoms: C_20  and  C_22
REMARK    8  A    between atoms: C_22  and  N_23
REMARK    9  A    between atoms: C_28  and  C_35
REMARK   10  A    between atoms: C_31  and  C_33
REMARK   11  A    between atoms: C_31  and  C_34
REMARK                            x       y       z     vdW  Elec       q    Type
REMARK                         _______ _______ _______ _____ _____    ______ ____
ROOT
ATOM      1  O   UNL     1       0.533  -6.822   2.451  0.00  0.00    -0.446 OA
ENDROOT
BRANCH   1   2
ATOM      2  C   UNL     1       1.259  -7.944   2.585  0.00  0.00    +0.326 C 
ATOM      3  O   UNL     1       1.689  -8.505   1.605  0.00  0.00    -0.249 OA
BRANCH   2   4
ATOM      4  C   UNL     1       1.537  -8.502   3.956  0.00  0.00    +0.238 C 
BRANCH   4   5
ATOM      5  N   UNL     1       2.342  -9.719   3.834  0.00  0.00    -0.213 N 
ATOM      6  C   UNL     1       1.828 -10.965   3.738  0.00  0.00    +0.247 C 
ATOM      7  O   UNL     1       0.672 -11.281   3.912  0.00  0.00    -0.273 OA
ATOM      8  C   UNL     1       2.995 -11.853   3.379  0.00  0.00    +0.113 C 
ATOM      9  C   UNL     1       3.064 -13.060   4.303  0.00  0.00    +0.038 C 
ATOM     10  C   UNL     1       1.946 -14.045   3.960  0.00  0.00    -0.011 C 
ATOM     11  C   UNL     1       2.150 -14.536   2.528  0.00  0.00    +0.009 C 
ATOM     12  C   UNL     1       2.074 -13.380   1.537  0.00  0.00    -0.032 C 
ATOM     13  C   UNL     1       2.992 -12.229   1.911  0.00  0.00    +0.041 C 
ATOM     14  C   UNL     1       0.627 -12.898   1.402  0.00  0.00    +0.011 C 
ATOM     15  C   UNL     1       2.514 -13.914   0.157  0.00  0.00    +0.011 C 
ATOM     16  C   UNL     1       2.011 -15.238   4.919  0.00  0.00    +0.007 C 
ATOM     17  N   UNL     1       4.165 -10.984   3.642  0.00  0.00    -0.285 N 
ATOM     18  C   UNL     1       3.680  -9.744   3.829  0.00  0.00    +0.310 C 
ATOM     19  O   UNL     1       4.375  -8.758   3.977  0.00  0.00    -0.252 OA
ATOM     20  H   UNL     1       5.090 -11.267   3.670  0.00  0.00    +0.151 HD
ENDBRANCH   4   5
ENDBRANCH   2   4
ENDBRANCH   1   2
BRANCH   1  21
ATOM     21  C   UNL     1       0.309  -6.349   1.121  0.00  0.00    +0.292 C 
BRANCH  21  22
ATOM     22  C   UNL     1      -0.957  -6.960   0.578  0.00  0.00    +0.002 A 
ATOM     23  C   UNL     1      -2.064  -7.097   1.395  0.00  0.00    +0.008 A 
ATOM     24  C   UNL     1      -3.226  -7.657   0.896  0.00  0.00    +0.000 A 
ATOM     25  C   UNL     1      -3.280  -8.081  -0.418  0.00  0.00    +0.000 A 
ATOM     26  C   UNL     1      -2.173  -7.944  -1.235  0.00  0.00    +0.000 A 
ATOM     27  C   UNL     1      -1.013  -7.379  -0.738  0.00  0.00    +0.008 A 
ENDBRANCH  21  22
BRANCH  21  29
ATOM     28  N   UNL     1       0.059  -4.170  -0.021  0.00  0.00    -0.282 N 
ATOM     29  C   UNL     1       0.175  -4.848   1.138  0.00  0.00    +0.263 C 
ATOM     30  O   UNL     1       0.173  -4.251   2.193  0.00  0.00    -0.271 OA
ATOM     31  H   UNL     1      -0.017  -4.651  -0.860  0.00  0.00    +0.155 HD
BRANCH  28  36
ATOM     32  C   UNL     1       0.008   1.503   0.007  0.00  0.00    +0.044 C 
ATOM     33  C   UNL     1       0.021  -0.004  -0.000  0.00  0.00    -0.050 A 
ATOM     34  C   UNL     1       0.777  -0.692   0.931  0.00  0.00    +0.005 A 
ATOM     35  C   UNL     1       0.791  -2.073   0.927  0.00  0.00    +0.023 A 
ATOM     36  C   UNL     1       0.046  -2.771  -0.014  0.00  0.00    +0.034 A 
ATOM     37  C   UNL     1      -0.712  -2.077  -0.948  0.00  0.00    +0.023 A 
ATOM     38  C   UNL     1      -0.726  -0.696  -0.936  0.00  0.00    +0.005 A 
ENDBRANCH  28  36
ENDBRANCH  21  29
ENDBRANCH   1  21
TORSDOF 7
