REMARK  Name = ZINC24878952
REMARK  5 active torsions:
REMARK  status: ('A' for Active; 'I' for Inactive)
REMARK    1  A    between atoms: C_1  and  C_2
REMARK    2  A    between atoms: C_2  and  C_17
REMARK    3  A    between atoms: N_5  and  C_9
REMARK    4  A    between atoms: C_9  and  C_10
REMARK    5  A    between atoms: C_17  and  C_18
REMARK                            x       y       z     vdW  Elec       q    Type
REMARK                         _______ _______ _______ _____ _____    ______ ____
ROOT
ATOM      1  C   UNL     1      -3.549   2.170   2.905  0.00  0.00    +0.042 C 
ATOM      2  C   UNL     1      -2.084   1.743   3.020  0.00  0.00    +0.114 C 
ATOM      3  C   UNL     1      -1.684   0.883   1.837  0.00  0.00    +0.247 C 
ATOM      4  O   UNL     1      -2.154  -0.188   1.518  0.00  0.00    -0.273 OA
ATOM      5  N   UNL     1      -0.698   1.558   1.213  0.00  0.00    -0.220 N 
ATOM      6  C   UNL     1      -0.420   2.710   1.834  0.00  0.00    +0.310 C 
ATOM      7  O   UNL     1       0.435   3.489   1.460  0.00  0.00    -0.252 OA
ATOM      8  N   UNL     1      -1.194   2.912   2.915  0.00  0.00    -0.285 N 
ATOM      9  H   UNL     1      -1.262   3.723   3.655  0.00  0.00    +0.151 HD
ENDROOT
BRANCH   5  10
ATOM     10  C   UNL     1      -0.013   1.086   0.008  0.00  0.00    +0.153 C 
BRANCH  10  11
ATOM     11  C   UNL     1      -0.742   1.585  -1.213  0.00  0.00    -0.029 A 
ATOM     12  C   UNL     1      -0.398   2.801  -1.774  0.00  0.00    +0.005 A 
ATOM     13  C   UNL     1      -1.065   3.259  -2.894  0.00  0.00    +0.001 A 
ATOM     14  C   UNL     1      -2.077   2.502  -3.454  0.00  0.00    +0.015 A 
ATOM     15  C   UNL     1      -2.422   1.285  -2.893  0.00  0.00    +0.018 A 
ATOM     16  C   UNL     1      -1.750   0.825  -1.775  0.00  0.00    +0.020 A 
ATOM     17 BR   UNL     1      -3.806   0.249  -3.658  0.00  0.00    -0.050 Br
ENDBRANCH  10  11
ENDBRANCH   5  10
BRANCH   2  18
ATOM     18  C   UNL     1      -1.841   0.997   4.334  0.00  0.00    +0.070 C 
BRANCH  18  19
ATOM     19  C   UNL     1      -2.247   1.873   5.491  0.00  0.00    -0.041 A 
ATOM     20  C   UNL     1      -1.321   2.719   6.074  0.00  0.00    +0.007 A 
ATOM     21  C   UNL     1      -1.689   3.528   7.133  0.00  0.00    +0.050 A 
ATOM     22  C   UNL     1      -2.986   3.485   7.619  0.00  0.00    +0.166 A 
ATOM     23  C   UNL     1      -3.917   2.630   7.035  0.00  0.00    +0.166 A 
ATOM     24  C   UNL     1      -3.542   1.826   5.971  0.00  0.00    +0.053 A 
ATOM     25  O   UNL     1      -5.108   2.772   7.687  0.00  0.00    -0.453 OA
ATOM     26  C   UNL     1      -5.007   4.014   8.407  0.00  0.00    +0.466 C 
ATOM     27  O   UNL     1      -3.594   4.163   8.636  0.00  0.00    -0.453 OA
ENDBRANCH  18  19
ENDBRANCH   2  18
TORSDOF 4
