REMARK  Name = ZINC12563683
REMARK  9 active torsions:
REMARK  status: ('A' for Active; 'I' for Inactive)
REMARK    1  A    between atoms: C_1  and  O_2
REMARK    2  A    between atoms: O_2  and  C_3
REMARK    3  A    between atoms: C_8  and  N_9
REMARK    4  A    between atoms: N_9  and  S_10
REMARK    5  A    between atoms: S_10  and  C_13
REMARK    6  A    between atoms: C_16  and  N_22
REMARK    7  A    between atoms: C_17  and  N_19
REMARK    8  A    between atoms: N_22  and  N_23
REMARK    9  A    between atoms: C_24  and  C_25
REMARK                            x       y       z     vdW  Elec       q    Type
REMARK                         _______ _______ _______ _____ _____    ______ ____
ROOT
ATOM      1  C   UNL     1      -0.106  -4.087  -2.376  0.00  0.00    +0.111 A 
ATOM      2  C   UNL     1      -1.357  -4.028  -2.963  0.00  0.00    +0.031 A 
ATOM      3  C   UNL     1      -1.476  -3.765  -4.313  0.00  0.00    +0.029 A 
ATOM      4  C   UNL     1      -0.338  -3.559  -5.082  0.00  0.00    +0.076 A 
ATOM      5  C   UNL     1       0.917  -3.618  -4.490  0.00  0.00    +0.150 A 
ATOM      6  C   UNL     1       1.029  -3.877  -3.138  0.00  0.00    +0.063 A 
ENDROOT
BRANCH   1   7
ATOM      7  S   UNL     1       0.042  -4.422  -0.653  0.00  0.00    +0.073 S 
ATOM      8  O   UNL     1       1.343  -4.958  -0.453  0.00  0.00    -0.150 OA
ATOM      9  O   UNL     1      -1.136  -5.121  -0.273  0.00  0.00    -0.150 OA
BRANCH   7  10
ATOM     10  N   UNL     1       0.003  -2.966   0.135  0.00  0.00    -0.213 N 
ATOM     11  H   UNL     1       0.757  -2.688   0.678  0.00  0.00    +0.174 HD
BRANCH  10  17
ATOM     12  C   UNL     1      -0.962  -0.752  -0.010  0.00  0.00    +0.142 A 
ATOM     13  C   UNL     1      -2.075   0.064  -0.133  0.00  0.00    +0.047 A 
ATOM     14  C   UNL     1      -3.336  -0.495  -0.222  0.00  0.00    +0.004 A 
ATOM     15  C   UNL     1      -3.492  -1.868  -0.189  0.00  0.00    +0.002 A 
ATOM     16  C   UNL     1      -2.387  -2.690  -0.068  0.00  0.00    +0.028 A 
ATOM     17  C   UNL     1      -1.118  -2.136   0.017  0.00  0.00    +0.090 A 
BRANCH  12  19
ATOM     18  C   UNL     1       0.362   1.223   0.044  0.00  0.00    +0.277 C 
ATOM     19  O   UNL     1       0.279  -0.203   0.078  0.00  0.00    -0.493 OA
ENDBRANCH  12  19
ENDBRANCH  10  17
ENDBRANCH   7  10
ENDBRANCH   1   7
BRANCH   5  20
ATOM     20  N   UNL     1       2.133  -3.400  -5.305  0.00  0.00    +0.058 N 
ATOM     21  O   UNL     1       2.185  -3.821  -6.438  0.00  0.00    -0.126 OA
ATOM     22  O   UNL     1       3.074  -2.801  -4.839  0.00  0.00    -0.126 OA
ENDBRANCH   5  20
BRANCH   4  23
ATOM     23  N   UNL     1      -0.455  -3.293  -6.449  0.00  0.00    -0.258 N 
ATOM     24  H   UNL     1       0.341  -3.219  -6.998  0.00  0.00    +0.172 HD
BRANCH  23  25
ATOM     25  N   UNL     1      -1.721  -3.132  -7.025  0.00  0.00    -0.313 N 
ATOM     26  C   UNL     1      -1.833  -2.876  -8.337  0.00  0.00    +0.110 C 
ATOM     27  H   UNL     1      -2.517  -3.205  -6.475  0.00  0.00    +0.184 HD
BRANCH  26  28
ATOM     28  C   UNL     1      -3.084  -2.584  -8.887  0.00  0.00    +0.039 A 
ATOM     29  C   UNL     1      -3.240  -2.427 -10.282  0.00  0.00    +0.013 A 
ATOM     30  C   UNL     1      -4.465  -2.143 -10.798  0.00  0.00    +0.001 A 
ATOM     31  C   UNL     1      -5.584  -2.003  -9.982  0.00  0.00    +0.004 A 
ATOM     32  C   UNL     1      -5.502  -2.142  -8.630  0.00  0.00    +0.051 A 
ATOM     33  C   UNL     1      -4.267  -2.441  -8.029  0.00  0.00    +0.187 A 
ATOM     34  O   UNL     1      -4.179  -2.574  -6.816  0.00  0.00    -0.287 OA
ENDBRANCH  26  28
ENDBRANCH  23  25
ENDBRANCH   4  23
TORSDOF 8
