REMARK  Name = ZINC06533399
REMARK  8 active torsions:
REMARK  status: ('A' for Active; 'I' for Inactive)
REMARK    1  A    between atoms: C_1  and  C_2
REMARK    2  A    between atoms: C_4  and  C_16
REMARK    3  A    between atoms: C_5  and  C_15
REMARK    4  A    between atoms: N_6  and  C_7
REMARK    5  A    between atoms: C_16  and  C_18
REMARK    6  A    between atoms: C_18  and  S_19
REMARK    7  A    between atoms: S_19  and  C_20
REMARK    8  A    between atoms: C_24  and  N_26
REMARK                            x       y       z     vdW  Elec       q    Type
REMARK                         _______ _______ _______ _____ _____    ______ ____
ROOT
ATOM      1  C   UNL     1       0.041  -3.378  -1.450  0.00  0.00    +0.175 C 
ATOM      2  O   UNL     1       0.058  -4.471  -0.923  0.00  0.00    -0.291 OA
ENDROOT
BRANCH   1   6
ATOM      3  C   UNL     1      -0.018   1.503   0.010  0.00  0.00    +0.064 C 
ATOM      4  C   UNL     1       0.002  -0.004   0.002  0.00  0.00    +0.022 A 
ATOM      5  C   UNL     1       0.008  -0.777  -1.097  0.00  0.00    +0.034 A 
ATOM      6  C   UNL     1       0.029  -2.168  -0.626  0.00  0.00    +0.039 A 
ATOM      7  C   UNL     1       0.034  -2.101   0.755  0.00  0.00    +0.031 A 
ATOM      8  N   UNL     1       0.024  -0.802   1.112  0.00  0.00    -0.317 N 
ATOM      9  C   UNL     1       0.053  -3.277   1.697  0.00  0.00    +0.064 C 
BRANCH   8  10
ATOM     10  C   UNL     1       0.030  -0.335   2.434  0.00  0.00    +0.048 A 
ATOM     11  C   UNL     1       1.133  -0.562   3.246  0.00  0.00    +0.029 A 
ATOM     12  C   UNL     1       1.138  -0.101   4.548  0.00  0.00    +0.042 A 
ATOM     13  C   UNL     1       0.044   0.587   5.044  0.00  0.00    +0.142 A 
ATOM     14  C   UNL     1      -1.058   0.815   4.235  0.00  0.00    +0.078 A 
ATOM     15  C   UNL     1      -1.065   0.360   2.930  0.00  0.00    +0.049 A 
ATOM     16 CL   UNL     1      -2.429   1.679   4.859  0.00  0.00    -0.081 Cl
ATOM     17  F   UNL     1       0.050   1.037   6.318  0.00  0.00    -0.204 F 
ENDBRANCH   8  10
ENDBRANCH   1   6
BRANCH   1  18
ATOM     18  C   UNL     1       0.034  -3.267  -2.953  0.00  0.00    +0.157 C 
BRANCH  18  19
ATOM     19  S   UNL     1       0.053  -4.927  -3.683  0.00  0.00    -0.078 S 
BRANCH  19  20
ATOM     20  C   UNL     1       0.042  -4.629  -5.420  0.00  0.00    +0.192 A 
ATOM     21  N   UNL     1       0.029  -3.380  -5.860  0.00  0.00    -0.207 NA
ATOM     22  C   UNL     1       0.021  -3.117  -7.165  0.00  0.00    +0.122 A 
ATOM     23  C   UNL     1       0.025  -4.175  -8.069  0.00  0.00    +0.086 A 
ATOM     24  C   UNL     1       0.039  -5.474  -7.569  0.00  0.00    +0.122 A 
ATOM     25  N   UNL     1       0.052  -5.661  -6.251  0.00  0.00    -0.207 NA
ATOM     26  N   UNL     1       0.007  -1.807  -7.617  0.00  0.00    -0.343 N 
ATOM     27  H   UNL     1       0.003  -1.074  -6.982  0.00  0.00    +0.144 HD
ATOM     28  H   UNL     1       0.001  -1.623  -8.570  0.00  0.00    +0.144 HD
BRANCH  24  29
ATOM     29  N   UNL     1       0.044  -6.559  -8.432  0.00  0.00    -0.343 N 
ATOM     30  H   UNL     1       0.038  -6.415  -9.391  0.00  0.00    +0.144 HD
ATOM     31  H   UNL     1       0.054  -7.461  -8.077  0.00  0.00    +0.144 HD
ENDBRANCH  24  29
ENDBRANCH  19  20
ENDBRANCH  18  19
ENDBRANCH   1  18
TORSDOF 6
