REMARK  Name = ZINC23647835
REMARK  11 active torsions:
REMARK  status: ('A' for Active; 'I' for Inactive)
REMARK    1  A    between atoms: C_1  and  C_2
REMARK    2  A    between atoms: C_2  and  C_3
REMARK    3  A    between atoms: C_2  and  C_4
REMARK    4  A    between atoms: C_4  and  C_5
REMARK    5  A    between atoms: C_5  and  N_6
REMARK    6  A    between atoms: C_15  and  S_16
REMARK    7  A    between atoms: S_16  and  C_17
REMARK    8  A    between atoms: C_17  and  C_18
REMARK    9  A    between atoms: N_23  and  C_24
REMARK   10  A    between atoms: C_24  and  C_25
REMARK   11  A    between atoms: C_24  and  C_26
REMARK                            x       y       z     vdW  Elec       q    Type
REMARK                         _______ _______ _______ _____ _____    ______ ____
ROOT
ATOM      1  N   UNL     1      -0.698   1.558   1.213  0.00  0.00    -0.287 N 
ATOM      2  C   UNL     1      -1.671   0.804   1.758  0.00  0.00    +0.263 A 
ATOM      3  O   UNL     1      -1.981  -0.262   1.255  0.00  0.00    -0.267 OA
ATOM      4  C   UNL     1      -2.337   1.272   2.935  0.00  0.00    +0.076 A 
ATOM      5  C   UNL     1      -3.413   0.623   3.687  0.00  0.00    -0.023 A 
ATOM      6  C   UNL     1      -3.878   1.272   4.773  0.00  0.00    -0.004 A 
ATOM      7  S   UNL     1      -2.926   2.765   4.860  0.00  0.00    -0.073 S 
ATOM      8  C   UNL     1      -1.903   2.512   3.432  0.00  0.00    +0.117 A 
ATOM      9  N   UNL     1      -0.935   3.208   2.847  0.00  0.00    -0.216 NA
ATOM     10  C   UNL     1      -0.335   2.752   1.766  0.00  0.00    +0.173 A 
ATOM     11  C   UNL     1      -4.965   0.824   5.702  0.00  0.00    +0.043 C 
ATOM     12  C   UNL     1      -5.738  -0.319   5.028  0.00  0.00    +0.005 C 
ATOM     13  C   UNL     1      -4.732  -1.331   4.472  0.00  0.00    +0.005 C 
ATOM     14  C   UNL     1      -3.994  -0.727   3.276  0.00  0.00    +0.037 C 
ENDROOT
BRANCH   1  15
ATOM     15  C   UNL     1      -0.013   1.086   0.008  0.00  0.00    +0.127 C 
BRANCH  15  16
ATOM     16  C   UNL     1      -0.753   1.593  -1.232  0.00  0.00    +0.025 C 
BRANCH  16  18
ATOM     17  C   UNL     1      -0.124  -0.427  -2.562  0.00  0.00    +0.007 C 
ATOM     18  C   UNL     1      -0.037   1.099  -2.490  0.00  0.00    -0.016 C 
ATOM     19  C   UNL     1      -0.702   1.707  -3.727  0.00  0.00    +0.007 C 
ENDBRANCH  16  18
ENDBRANCH  15  16
ENDBRANCH   1  15
BRANCH  10  20
ATOM     20  S   UNL     1       0.950   3.699   1.020  0.00  0.00    -0.078 S 
BRANCH  20  21
ATOM     21  C   UNL     1       0.989   5.117   2.145  0.00  0.00    +0.173 C 
BRANCH  21  22
ATOM     22  C   UNL     1       2.046   6.090   1.691  0.00  0.00    +0.231 C 
ATOM     23  O   UNL     1       2.708   5.849   0.704  0.00  0.00    -0.274 OA
ATOM     24  N   UNL     1       2.256   7.228   2.381  0.00  0.00    -0.239 N 
ATOM     25  C   UNL     1       3.201   8.098   1.975  0.00  0.00    +0.306 C 
ATOM     26  O   UNL     1       3.865   7.857   0.986  0.00  0.00    -0.252 OA
ATOM     27  N   UNL     1       3.411   9.237   2.666  0.00  0.00    -0.297 N 
ATOM     28  H   UNL     1       1.655   7.447   3.276  0.00  0.00    +0.159 HD
ATOM     29  H   UNL     1       2.810   9.456   3.561  0.00  0.00    +0.151 HD
BRANCH  27  30
ATOM     30  C   UNL     1       4.439  10.183   2.224  0.00  0.00    +0.068 C 
ATOM     31  C   UNL     1       4.090  11.585   2.725  0.00  0.00    +0.027 C 
ATOM     32  C   UNL     1       5.796   9.762   2.791  0.00  0.00    +0.027 C 
ENDBRANCH  27  30
ENDBRANCH  21  22
ENDBRANCH  20  21
ENDBRANCH  10  20
TORSDOF 7
