REMARK  Name = ZINC00649126
REMARK  8 active torsions:
REMARK  status: ('A' for Active; 'I' for Inactive)
REMARK    1  A    between atoms: C_1  and  C_2
REMARK    2  A    between atoms: C_3  and  C_8
REMARK    3  A    between atoms: N_6  and  C_7
REMARK    4  A    between atoms: C_8  and  N_9
REMARK    5  A    between atoms: N_9  and  C_10
REMARK    6  A    between atoms: C_11  and  C_13
REMARK    7  A    between atoms: C_18  and  C_29
REMARK    8  A    between atoms: C_21  and  C_24
REMARK                            x       y       z     vdW  Elec       q    Type
REMARK                         _______ _______ _______ _____ _____    ______ ____
ROOT
ATOM      1  C   UNL     1       2.725   2.005  -3.514  0.00  0.00    +0.163 A 
ATOM      2  C   UNL     1       3.088   3.370  -3.470  0.00  0.00    +0.089 A 
ATOM      3  C   UNL     1       4.231   3.510  -4.171  0.00  0.00    +0.133 A 
ATOM      4  N   UNL     1       4.590   2.282  -4.650  0.00  0.00    -0.237 N 
ATOM      5  N   UNL     1       3.637   1.359  -4.221  0.00  0.00    -0.163 NA
ATOM      6  C   UNL     1       5.784   2.045  -5.465  0.00  0.00    +0.215 C 
ATOM      7  C   UNL     1       6.244   3.376  -6.070  0.00  0.00    +0.063 C 
ATOM      8  C   UNL     1       6.336   4.444  -4.975  0.00  0.00    +0.111 C 
ATOM      9  N   UNL     1       4.986   4.661  -4.417  0.00  0.00    -0.321 N 
ATOM     10 BR   UNL     1       2.141   4.750  -2.589  0.00  0.00    -0.044 Br
ATOM     11  H   UNL     1       4.644   5.550  -4.233  0.00  0.00    +0.148 HD
ENDROOT
BRANCH   8  12
ATOM     12  C   UNL     1       7.268   3.974  -3.887  0.00  0.00    +0.010 A 
ATOM     13  C   UNL     1       8.564   4.307  -3.671  0.00  0.00    +0.013 A 
ATOM     14  C   UNL     1       9.229   3.747  -2.597  0.00  0.00    +0.008 A 
ATOM     15  C   UNL     1       8.567   2.881  -1.792  0.00  0.00    +0.045 A 
ATOM     16  S   UNL     1       6.948   2.841  -2.545  0.00  0.00    -0.100 S 
ENDBRANCH   8  12
BRANCH   1  19
ATOM     17  N   UNL     1       1.370   0.065  -2.889  0.00  0.00    -0.295 N 
ATOM     18  C   UNL     1       2.414  -0.798  -3.447  0.00  0.00    +0.132 C 
ATOM     19  C   UNL     1       1.537   1.403  -2.877  0.00  0.00    +0.268 C 
ATOM     20  O   UNL     1       0.709   2.113  -2.341  0.00  0.00    -0.268 OA
BRANCH  17  21
ATOM     21  C   UNL     1       0.146  -0.525  -2.343  0.00  0.00    +0.146 C 
BRANCH  21  24
ATOM     22  C   UNL     1      -0.057   1.552  -0.013  0.00  0.00    +0.065 C 
ATOM     23  C   UNL     1       0.249   0.083   0.131  0.00  0.00    +0.040 A 
ATOM     24  C   UNL     1       0.337  -0.816  -0.877  0.00  0.00    +0.010 A 
ATOM     25  C   UNL     1       0.637  -2.062  -0.317  0.00  0.00    +0.139 A 
ATOM     26  N   UNL     1       0.726  -1.916   0.980  0.00  0.00    -0.179 NA
ATOM     27  N   UNL     1       0.490  -0.570   1.286  0.00  0.00    -0.271 N 
ATOM     28  C   UNL     1       0.501   0.024   2.626  0.00  0.00    +0.172 C 
ENDBRANCH  21  24
ENDBRANCH  17  21
ENDBRANCH   1  19
BRANCH   6  29
ATOM     29  C   UNL     1       5.452   1.058  -6.586  0.00  0.00    +0.412 C 
ATOM     30  F   UNL     1       4.438   1.589  -7.390  0.00  0.00    -0.168 F 
ATOM     31  F   UNL     1       6.593   0.833  -7.363  0.00  0.00    -0.168 F 
ATOM     32  F   UNL     1       5.021  -0.151  -6.030  0.00  0.00    -0.168 F 
ENDBRANCH   6  29
TORSDOF 5
