REMARK  Name = ZINC20708876
REMARK  6 active torsions:
REMARK  status: ('A' for Active; 'I' for Inactive)
REMARK    1  A    between atoms: C_1  and  C_2
REMARK    2  A    between atoms: C_2  and  O_3
REMARK    3  A    between atoms: O_3  and  C_4
REMARK    4  A    between atoms: C_17  and  C_20
REMARK    5  A    between atoms: C_22  and  N_27
REMARK    6  A    between atoms: C_25  and  O_26
REMARK                            x       y       z     vdW  Elec       q    Type
REMARK                         _______ _______ _______ _____ _____    ______ ____
ROOT
ATOM      1  C   UNL     1      -5.202   3.281   1.988  0.00  0.00    +0.121 A 
ATOM      2  C   UNL     1      -4.923   3.243   3.346  0.00  0.00    +0.047 A 
ATOM      3  C   UNL     1      -3.780   2.620   3.801  0.00  0.00    +0.027 A 
ATOM      4  C   UNL     1      -2.898   2.027   2.905  0.00  0.00    +0.032 A 
ATOM      5  C   UNL     1      -3.189   2.059   1.537  0.00  0.00    -0.016 A 
ATOM      6  C   UNL     1      -4.331   2.687   1.088  0.00  0.00    +0.051 A 
ATOM      7  C   UNL     1      -2.234   1.399   0.620  0.00  0.00    +0.049 C 
ATOM      8  C   UNL     1      -2.087   1.821  -0.796  0.00  0.00    -0.023 C 
ATOM      9  C   UNL     1      -0.827   1.629  -1.167  0.00  0.00    -0.030 C 
ATOM     10  C   UNL     1      -0.013   1.086   0.008  0.00  0.00    +0.033 C 
ATOM     11  C   UNL     1      -0.807   1.618   1.208  0.00  0.00    +0.029 C 
ATOM     12  C   UNL     1      -0.767   0.772   2.477  0.00  0.00    +0.108 C 
ATOM     13  N   UNL     1      -1.732   1.418   3.393  0.00  0.00    -0.336 N 
ATOM     14  H   UNL     1      -1.542   1.427   4.476  0.00  0.00    +0.147 HD
ENDROOT
BRANCH  12  15
ATOM     15  C   UNL     1       0.616   0.795   3.077  0.00  0.00    +0.017 A 
ATOM     16  C   UNL     1       0.919   1.696   4.079  0.00  0.00    +0.041 A 
ATOM     17  C   UNL     1       2.187   1.718   4.630  0.00  0.00    +0.127 A 
ATOM     18  C   UNL     1       3.154   0.838   4.180  0.00  0.00    +0.036 A 
ATOM     19  C   UNL     1       2.856  -0.064   3.178  0.00  0.00    +0.048 A 
ATOM     20  C   UNL     1       1.583  -0.092   2.627  0.00  0.00    +0.122 A 
BRANCH  17  21
ATOM     21  N   UNL     1       2.509   2.684   5.704  0.00  0.00    +0.056 N 
ATOM     22  O   UNL     1       1.658   3.459   6.102  0.00  0.00    -0.126 OA
ATOM     23  O   UNL     1       3.626   2.704   6.190  0.00  0.00    -0.126 OA
ENDBRANCH  17  21
BRANCH  20  24
ATOM     24  O   UNL     1       1.285  -0.983   1.645  0.00  0.00    -0.506 OA
ATOM     25  H   UNL     1       2.052  -1.685   1.289  0.00  0.00    +0.292 HD
ENDBRANCH  20  24
ENDBRANCH  12  15
BRANCH   1  26
ATOM     26  O   UNL     1      -6.327   3.900   1.540  0.00  0.00    -0.492 OA
BRANCH  26  28
ATOM     27  C   UNL     1      -8.384   5.133   1.837  0.00  0.00    +0.048 C 
ATOM     28  C   UNL     1      -7.179   4.490   2.525  0.00  0.00    +0.225 C 
ENDBRANCH  26  28
ENDBRANCH   1  26
TORSDOF 5
