REMARK  Name = ZINC56156187
REMARK  10 active torsions:
REMARK  status: ('A' for Active; 'I' for Inactive)
REMARK    1  A    between atoms: C_1  and  C_2
REMARK    2  A    between atoms: N_7  and  C_9
REMARK    3  A    between atoms: C_9  and  C_10
REMARK    4  A    between atoms: C_15  and  C_16
REMARK    5  A    between atoms: C_16  and  N_17
REMARK    6  A    between atoms: N_17  and  C_18
REMARK    7  A    between atoms: C_18  and  C_20
REMARK    8  A    between atoms: C_18  and  C_21
REMARK    9  A    between atoms: N_23  and  C_24
REMARK   10  A    between atoms: C_29  and  C_30
REMARK                            x       y       z     vdW  Elec       q    Type
REMARK                         _______ _______ _______ _____ _____    ______ ____
ROOT
ATOM      1  C   UNL     1       3.295  -3.917   1.302  0.00  0.00    +0.117 C 
ENDROOT
BRANCH   1   7
ATOM      2  C   UNL     1       1.411  -3.486   2.892  0.00  0.00    -0.060 A 
ATOM      3  C   UNL     1       0.388  -3.927   3.710  0.00  0.00    +0.002 A 
ATOM      4  C   UNL     1       0.141  -5.281   3.839  0.00  0.00    +0.000 A 
ATOM      5  C   UNL     1       0.917  -6.194   3.150  0.00  0.00    +0.000 A 
ATOM      6  C   UNL     1       1.940  -5.752   2.331  0.00  0.00    +0.005 A 
ATOM      7  C   UNL     1       2.184  -4.398   2.199  0.00  0.00    -0.032 A 
BRANCH   2   8
ATOM      8  C   UNL     1       1.680  -2.009   2.751  0.00  0.00    -0.043 C 
BRANCH   8  14
ATOM      9  C   UNL     1       0.256   2.442   4.210  0.00  0.00    +0.005 C 
ATOM     10  C   UNL     1      -0.113   0.957   4.191  0.00  0.00    -0.031 C 
ATOM     11  C   UNL     1      -1.461   0.774   3.488  0.00  0.00    -0.001 C 
ATOM     12  C   UNL     1      -1.784  -0.721   3.405  0.00  0.00    -0.018 C 
ATOM     13  C   UNL     1      -0.648  -1.442   2.676  0.00  0.00    -0.078 C 
ATOM     14  N   UNL     1       0.609  -1.251   3.411  0.00  0.00    +0.383 N 
ATOM     15  C   UNL     1       0.962   0.173   3.434  0.00  0.00    -0.075 C 
ATOM     16  H   UNL     1       0.497  -1.584   4.357  0.00  0.00    -0.081 HD
ENDBRANCH   8  14
ENDBRANCH   2   8
ENDBRANCH   1   7
BRANCH   1  17
ATOM     17  N   UNL     1       4.447  -3.518   2.122  0.00  0.00    -0.302 NA
ATOM     18  H   UNL     1       4.184  -2.820   2.801  0.00  0.00    +0.123 HD
BRANCH  17  19
ATOM     19  C   UNL     1       5.553  -3.042   1.279  0.00  0.00    +0.138 C 
ATOM     20  C   UNL     1       5.350  -1.560   0.961  0.00  0.00    +0.034 C 
BRANCH  19  21
ATOM     21  C   UNL     1       6.857  -3.224   2.012  0.00  0.00    +0.234 C 
ATOM     22  O   UNL     1       6.865  -3.703   3.126  0.00  0.00    -0.274 OA
ATOM     23  N   UNL     1       8.015  -2.855   1.429  0.00  0.00    -0.283 N 
ATOM     24  H   UNL     1       8.019  -2.550   0.508  0.00  0.00    +0.155 HD
BRANCH  23  25
ATOM     25  C   UNL     1       9.207  -2.911   2.150  0.00  0.00    +0.051 A 
ATOM     26  C   UNL     1       9.182  -2.949   3.537  0.00  0.00    +0.024 A 
ATOM     27  C   UNL     1      10.364  -3.005   4.249  0.00  0.00    +0.002 A 
ATOM     28  C   UNL     1      11.581  -3.022   3.587  0.00  0.00    +0.001 A 
ATOM     29  C   UNL     1      11.625  -2.985   2.210  0.00  0.00    +0.021 A 
ATOM     30  C   UNL     1      10.437  -2.935   1.476  0.00  0.00    +0.073 A 
BRANCH  30  31
ATOM     31  C   UNL     1      10.476  -2.902   0.045  0.00  0.00    +0.101 C 
ATOM     32  N   UNL     1      10.506  -2.876  -1.090  0.00  0.00    -0.191 NA
ENDBRANCH  30  31
ENDBRANCH  23  25
ENDBRANCH  19  21
ENDBRANCH  17  19
ENDBRANCH   1  17
TORSDOF 8
