REMARK  Name = ZINC10294817
REMARK  4 active torsions:
REMARK  status: ('A' for Active; 'I' for Inactive)
REMARK    1  A    between atoms: C_1  and  C_2
REMARK    2  A    between atoms: C_2  and  C_3
REMARK    3  A    between atoms: C_6  and  C_9
REMARK    4  A    between atoms: C_16  and  C_17
REMARK                            x       y       z     vdW  Elec       q    Type
REMARK                         _______ _______ _______ _____ _____    ______ ____
ROOT
ATOM      1  C   UNL     1      -5.253  -1.968  -0.041  0.00  0.00    +0.176 C 
ATOM      2  C   UNL     1      -5.410  -3.252  -0.809  0.00  0.00    +0.036 A 
ATOM      3  C   UNL     1      -6.027  -3.302  -2.048  0.00  0.00    +0.110 A 
ATOM      4  C   UNL     1      -6.123  -4.541  -2.693  0.00  0.00    +0.310 A 
ATOM      5  N   UNL     1      -5.632  -5.620  -2.107  0.00  0.00    -0.104 NA
ATOM      6  N   UNL     1      -5.064  -5.577  -0.958  0.00  0.00    -0.145 NA
ATOM      7  C   UNL     1      -4.925  -4.448  -0.274  0.00  0.00    +0.101 A 
ATOM      8  O   UNL     1      -6.717  -4.634  -3.910  0.00  0.00    -0.262 OA
ATOM      9  N   UNL     1      -6.552  -2.154  -2.650  0.00  0.00    -0.278 N 
ATOM     10  C   UNL     1      -6.670  -1.022  -1.858  0.00  0.00    +0.240 A 
ATOM     11  N   UNL     1      -6.075  -0.926  -0.643  0.00  0.00    -0.201 N 
ATOM     12  N   UNL     1      -6.427   0.334  -0.158  0.00  0.00    -0.042 NA
ATOM     13  N   UNL     1      -7.163   0.886  -1.067  0.00  0.00    -0.021 NA
ATOM     14  N   UNL     1      -7.309   0.095  -2.068  0.00  0.00    -0.092 NA
ATOM     15  H   UNL     1      -6.821  -2.149  -3.582  0.00  0.00    +0.155 HD
ENDROOT
BRANCH   7  16
ATOM     16  C   UNL     1      -4.257  -4.456   1.051  0.00  0.00    +0.003 A 
ATOM     17  C   UNL     1      -4.862  -3.835   2.142  0.00  0.00    +0.011 A 
ATOM     18  C   UNL     1      -4.238  -3.845   3.373  0.00  0.00    +0.016 A 
ATOM     19  C   UNL     1      -3.012  -4.471   3.524  0.00  0.00    +0.018 A 
ATOM     20  C   UNL     1      -2.407  -5.089   2.443  0.00  0.00    +0.016 A 
ATOM     21  C   UNL     1      -3.026  -5.089   1.210  0.00  0.00    +0.011 A 
ATOM     22 BR   UNL     1      -2.162  -4.481   5.213  0.00  0.00    -0.050 Br
ENDBRANCH   7  16
BRANCH   1  26
ATOM     23  C   UNL     1      -1.155  -0.764  -0.118  0.00  0.00    -0.048 A 
ATOM     24  C   UNL     1      -1.810  -0.909   1.091  0.00  0.00    +0.004 A 
ATOM     25  C   UNL     1      -3.136  -1.299   1.116  0.00  0.00    +0.006 A 
ATOM     26  C   UNL     1      -3.807  -1.542  -0.068  0.00  0.00    -0.018 A 
ATOM     27  C   UNL     1      -3.152  -1.396  -1.277  0.00  0.00    +0.006 A 
ATOM     28  C   UNL     1      -1.827  -1.003  -1.302  0.00  0.00    +0.004 A 
BRANCH  23  30
ATOM     29  C   UNL     1       0.374   1.187  -0.202  0.00  0.00    +0.009 C 
ATOM     30  C   UNL     1       0.291  -0.340  -0.145  0.00  0.00    +0.032 C 
ENDBRANCH  23  30
ENDBRANCH   1  26
TORSDOF 3
