REMARK  Name = ZINC24955373
REMARK  5 active torsions:
REMARK  status: ('A' for Active; 'I' for Inactive)
REMARK    1  A    between atoms: C_1  and  C_2
REMARK    2  A    between atoms: C_2  and  C_4
REMARK    3  A    between atoms: C_2  and  S_18
REMARK    4  A    between atoms: N_10  and  C_11
REMARK    5  A    between atoms: S_18  and  C_19
REMARK                            x       y       z     vdW  Elec       q    Type
REMARK                         _______ _______ _______ _____ _____    ______ ____
ROOT
ATOM      1  C   UNL     1       0.782   0.060  -1.127  0.00  0.00    +0.149 A 
ATOM      2  N   UNL     1       2.037   0.438  -0.952  0.00  0.00    -0.198 NA
ATOM      3  C   UNL     1       2.934   0.239  -1.914  0.00  0.00    +0.217 A 
ATOM      4  N   UNL     1       2.567  -0.340  -3.053  0.00  0.00    -0.181 NA
ATOM      5  C   UNL     1       1.306  -0.718  -3.225  0.00  0.00    +0.224 A 
ATOM      6  N   UNL     1       0.415  -0.521  -2.256  0.00  0.00    -0.198 NA
ATOM      7  N   UNL     1       0.920  -1.320  -4.407  0.00  0.00    -0.284 N 
ATOM      8  N   UNL     1       4.243   0.635  -1.731  0.00  0.00    -0.327 N 
ATOM      9  H   UNL     1      -0.015  -1.524  -4.564  0.00  0.00    +0.155 HD
ATOM     10  H   UNL     1       4.510   1.058  -0.899  0.00  0.00    +0.145 HD
ATOM     11  H   UNL     1       4.897   0.490  -2.433  0.00  0.00    +0.145 HD
ENDROOT
BRANCH   7  12
ATOM     12  C   UNL     1       1.877  -1.635  -5.376  0.00  0.00    +0.034 A 
ATOM     13  C   UNL     1       3.161  -1.999  -4.993  0.00  0.00    +0.023 A 
ATOM     14  C   UNL     1       4.104  -2.310  -5.953  0.00  0.00    +0.002 A 
ATOM     15  C   UNL     1       3.771  -2.259  -7.295  0.00  0.00    +0.000 A 
ATOM     16  C   UNL     1       2.493  -1.897  -7.679  0.00  0.00    +0.002 A 
ATOM     17  C   UNL     1       1.544  -1.590  -6.724  0.00  0.00    +0.023 A 
ENDBRANCH   7  12
BRANCH   1  19
ATOM     18  C   UNL     1      -0.615   1.767   0.006  0.00  0.00    +0.027 C 
ATOM     19  C   UNL     1      -0.231   0.286  -0.034  0.00  0.00    +0.116 C 
BRANCH  19  20
ATOM     20  S   UNL     1       0.484  -0.196   1.562  0.00  0.00    -0.113 S 
BRANCH  20  21
ATOM     21  C   UNL     1       0.640  -1.947   1.447  0.00  0.00    +0.027 A 
ATOM     22  C   UNL     1       0.133  -2.621   0.343  0.00  0.00    +0.016 A 
ATOM     23  C   UNL     1       0.257  -3.994   0.256  0.00  0.00    +0.001 A 
ATOM     24  C   UNL     1       0.884  -4.699   1.267  0.00  0.00    +0.001 A 
ATOM     25  C   UNL     1       1.390  -4.032   2.368  0.00  0.00    +0.021 A 
ATOM     26  C   UNL     1       1.275  -2.658   2.459  0.00  0.00    +0.054 A 
ATOM     27 CL   UNL     1       1.918  -1.822   3.838  0.00  0.00    -0.082 Cl
ENDBRANCH  20  21
ENDBRANCH  19  20
ENDBRANCH   1  19
TORSDOF 4
