REMARK  Name = ZINC37634336
REMARK  11 active torsions:
REMARK  status: ('A' for Active; 'I' for Inactive)
REMARK    1  A    between atoms: C_1  and  C_2
REMARK    2  A    between atoms: C_2  and  O_3
REMARK    3  A    between atoms: O_3  and  C_4
REMARK    4  A    between atoms: C_5  and  N_12
REMARK    5  A    between atoms: C_13  and  C_15
REMARK    6  A    between atoms: C_15  and  C_16
REMARK    7  A    between atoms: C_16  and  C_17
REMARK    8  A    between atoms: C_17  and  N_18
REMARK    9  A    between atoms: N_18  and  C_19
REMARK   10  A    between atoms: C_19  and  C_20
REMARK   11  A    between atoms: C_19  and  C_21
REMARK                            x       y       z     vdW  Elec       q    Type
REMARK                         _______ _______ _______ _____ _____    ______ ____
ROOT
ATOM      1  N   UNL     1       2.879  -1.791  -0.137  0.00  0.00    -0.283 N 
ATOM      2  C   UNL     1       3.892  -2.462   0.447  0.00  0.00    +0.217 C 
ATOM      3  O   UNL     1       3.987  -3.663   0.304  0.00  0.00    -0.275 OA
ATOM      4  H   UNL     1       2.840  -0.824  -0.076  0.00  0.00    +0.155 HD
ENDROOT
BRANCH   1   6
ATOM      5  C   UNL     1       0.568  -2.035  -0.814  0.00  0.00    +0.156 A 
ATOM      6  C   UNL     1       1.884  -2.491  -0.832  0.00  0.00    +0.078 A 
ATOM      7  C   UNL     1       2.207  -3.639  -1.539  0.00  0.00    +0.047 A 
ATOM      8  C   UNL     1       1.223  -4.329  -2.225  0.00  0.00    +0.044 A 
ATOM      9  C   UNL     1      -0.084  -3.875  -2.207  0.00  0.00    +0.039 A 
ATOM     10  C   UNL     1      -0.414  -2.733  -1.499  0.00  0.00    +0.063 A 
ATOM     11 BR   UNL     1      -2.203  -2.122  -1.470  0.00  0.00    -0.046 Br
ATOM     12 CL   UNL     1       1.629  -5.766  -3.110  0.00  0.00    -0.083 Cl
BRANCH   5  13
ATOM     13  O   UNL     1       0.246  -0.910  -0.121  0.00  0.00    -0.489 OA
BRANCH  13  15
ATOM     14  C   UNL     1      -0.455   0.290   1.857  0.00  0.00    +0.048 C 
ATOM     15  C   UNL     1      -0.131  -1.076   1.247  0.00  0.00    +0.226 C 
ENDBRANCH  13  15
ENDBRANCH   5  13
ENDBRANCH   1   6
BRANCH   2  16
ATOM     16  C   UNL     1       4.907  -1.720   1.279  0.00  0.00    +0.094 C 
BRANCH  16  17
ATOM     17  C   UNL     1       5.941  -2.708   1.822  0.00  0.00    -0.010 C 
BRANCH  17  18
ATOM     18  C   UNL     1       6.971  -1.955   2.667  0.00  0.00    -0.082 C 
BRANCH  18  19
ATOM     19  N   UNL     1       7.964  -2.904   3.188  0.00  0.00    +0.381 N 
ATOM     20  H   UNL     1       7.501  -3.595   3.760  0.00  0.00    -0.086 HD
ATOM     21  H   UNL     1       8.429  -3.361   2.419  0.00  0.00    -0.086 HD
BRANCH  19  22
ATOM     22  C   UNL     1       8.953  -2.181   3.999  0.00  0.00    -0.078 C 
ATOM     23  C   UNL     1       8.268  -1.592   5.234  0.00  0.00    -0.014 C 
ATOM     24  C   UNL     1      10.055  -3.146   4.439  0.00  0.00    -0.014 C 
ENDBRANCH  19  22
ENDBRANCH  18  19
ENDBRANCH  17  18
ENDBRANCH  16  17
ENDBRANCH   2  16
TORSDOF 8
