REMARK  Name = ZINC35674281
REMARK  6 active torsions:
REMARK  status: ('A' for Active; 'I' for Inactive)
REMARK    1  A    between atoms: C_1  and  C_2
REMARK    2  A    between atoms: C_2  and  C_4
REMARK    3  A    between atoms: C_2  and  N_12
REMARK    4  A    between atoms: N_12  and  C_13
REMARK    5  A    between atoms: C_16  and  C_20
REMARK    6  A    between atoms: C_18  and  N_19
REMARK                            x       y       z     vdW  Elec       q    Type
REMARK                         _______ _______ _______ _____ _____    ______ ____
ROOT
ATOM      1  N   UNL     1      -1.373  -0.490  -0.133  0.00  0.00    -0.336 N 
ATOM      2  H   UNL     1      -1.899  -0.684   0.659  0.00  0.00    +0.147 HD
ENDROOT
BRANCH   1   3
ATOM      3  C   UNL     1      -1.928  -0.672  -1.400  0.00  0.00    +0.049 A 
ATOM      4  C   UNL     1      -1.172  -0.399  -2.533  0.00  0.00    +0.026 A 
ATOM      5  C   UNL     1      -1.715  -0.577  -3.787  0.00  0.00    +0.021 A 
ATOM      6  C   UNL     1      -3.029  -1.035  -3.922  0.00  0.00    +0.054 A 
ATOM      7  C   UNL     1      -3.791  -1.311  -2.782  0.00  0.00    +0.043 A 
ATOM      8  C   UNL     1      -3.240  -1.135  -1.527  0.00  0.00    +0.047 A 
BRANCH   8   9
ATOM      9  N   UNL     1      -3.998  -1.417  -0.383  0.00  0.00    -0.357 N 
ATOM     10  H   UNL     1      -3.612  -1.290   0.497  0.00  0.00    +0.142 HD
ATOM     11  H   UNL     1      -4.908  -1.738  -0.472  0.00  0.00    +0.142 HD
ENDBRANCH   8   9
BRANCH   6  12
ATOM     12  C   UNL     1      -3.594  -1.220  -5.224  0.00  0.00    +0.099 C 
ATOM     13  N   UNL     1      -4.042  -1.367  -6.258  0.00  0.00    -0.191 NA
ENDBRANCH   6  12
ENDBRANCH   1   3
BRANCH   1  15
ATOM     14  C   UNL     1       0.011   1.525  -0.053  0.00  0.00    +0.033 C 
ATOM     15  C   UNL     1       0.002  -0.004   0.002  0.00  0.00    +0.099 C 
BRANCH  15  16
ATOM     16  C   UNL     1       0.570  -0.462   1.321  0.00  0.00    -0.009 A 
ATOM     17  C   UNL     1      -0.273  -0.704   2.389  0.00  0.00    +0.008 A 
ATOM     18  C   UNL     1       0.246  -1.125   3.599  0.00  0.00    +0.020 A 
ATOM     19  C   UNL     1       1.611  -1.304   3.741  0.00  0.00    +0.042 A 
ATOM     20  C   UNL     1       2.455  -1.063   2.672  0.00  0.00    +0.040 A 
ATOM     21  C   UNL     1       1.934  -0.646   1.460  0.00  0.00    +0.047 A 
ATOM     22 CL   UNL     1       2.991  -0.349   0.116  0.00  0.00    -0.083 Cl
ATOM     23 CL   UNL     1       2.264  -1.831   5.261  0.00  0.00    -0.083 Cl
ENDBRANCH  15  16
ENDBRANCH   1  15
TORSDOF 5
