REMARK  Name = ZINC09505345
REMARK  9 active torsions:
REMARK  status: ('A' for Active; 'I' for Inactive)
REMARK    1  A    between atoms: C_1  and  C_2
REMARK    2  A    between atoms: C_5  and  C_8
REMARK    3  A    between atoms: C_8  and  S_9
REMARK    4  A    between atoms: S_9  and  C_10
REMARK    5  A    between atoms: C_10  and  C_11
REMARK    6  A    between atoms: C_18  and  C_23
REMARK    7  A    between atoms: N_28  and  C_33
REMARK    8  A    between atoms: C_29  and  C_32
REMARK    9  A    between atoms: C_37  and  C_39
REMARK                            x       y       z     vdW  Elec       q    Type
REMARK                         _______ _______ _______ _____ _____    ______ ____
ROOT
ATOM      1  C   UNL     1       3.237  -7.431  -0.104  0.00  0.00    +0.167 C 
ATOM      2  C   UNL     1       3.366  -8.932  -0.163  0.00  0.00    +0.238 C 
ATOM      3  O   UNL     1       3.569  -9.476  -1.228  0.00  0.00    -0.273 OA
ATOM      4  N   UNL     1       3.260  -9.674   0.954  0.00  0.00    -0.282 N 
ATOM      5  C   UNL     1       3.168  -9.066   2.212  0.00  0.00    +0.055 A 
ATOM      6  C   UNL     1       2.857  -9.815   3.331  0.00  0.00    +0.038 A 
ATOM      7  C   UNL     1       2.760  -9.191   4.578  0.00  0.00    +0.039 A 
ATOM      8  C   UNL     1       2.976  -7.815   4.691  0.00  0.00    +0.015 A 
ATOM      9  C   UNL     1       3.290  -7.072   3.574  0.00  0.00    +0.025 A 
ATOM     10  C   UNL     1       3.391  -7.691   2.336  0.00  0.00    +0.049 A 
ATOM     11  N   UNL     1       3.731  -6.956   1.196  0.00  0.00    -0.331 N 
ATOM     12  H   UNL     1       3.247 -10.641   0.887  0.00  0.00    +0.155 HD
ATOM     13  H   UNL     1       4.276  -6.157   1.261  0.00  0.00    +0.147 HD
ENDROOT
BRANCH   7  14
ATOM     14  C   UNL     1       2.428  -9.986   5.776  0.00  0.00    +0.247 C 
ATOM     15  O   UNL     1       1.514 -10.787   5.740  0.00  0.00    -0.270 OA
ATOM     16  N   UNL     1       3.138  -9.824   6.910  0.00  0.00    -0.294 N 
ATOM     17  C   UNL     1       4.180  -8.791   6.999  0.00  0.00    +0.127 C 
ATOM     18  C   UNL     1       5.497  -9.459   7.415  0.00  0.00    +0.124 C 
ATOM     19  N   UNL     1       5.243 -10.311   8.584  0.00  0.00    -0.324 N 
ATOM     20  C   UNL     1       4.202 -11.344   8.495  0.00  0.00    +0.088 C 
ATOM     21  C   UNL     1       2.881 -10.674   8.081  0.00  0.00    +0.130 C 
ATOM     22  C   UNL     1       4.603 -12.390   7.452  0.00  0.00    +0.029 C 
BRANCH  19  23
ATOM     23  C   UNL     1       5.979 -10.144   9.759  0.00  0.00    +0.030 A 
ATOM     24  C   UNL     1       6.872  -9.086   9.877  0.00  0.00    +0.023 A 
ATOM     25  C   UNL     1       7.597  -8.923  11.040  0.00  0.00    +0.002 A 
ATOM     26  C   UNL     1       7.437  -9.811  12.088  0.00  0.00    +0.003 A 
ATOM     27  C   UNL     1       6.550 -10.866  11.974  0.00  0.00    -0.049 A 
ATOM     28  C   UNL     1       5.816 -11.031  10.815  0.00  0.00    +0.026 A 
ATOM     29  C   UNL     1       6.378 -11.832  13.117  0.00  0.00    +0.044 C 
ENDBRANCH  19  23
ENDBRANCH   7  14
BRANCH   1  30
ATOM     30  C   UNL     1       1.768  -7.036  -0.270  0.00  0.00    +0.101 C 
BRANCH  30  31
ATOM     31  S   UNL     1       1.632  -5.229  -0.341  0.00  0.00    -0.154 S 
BRANCH  31  32
ATOM     32  C   UNL     1      -0.147  -4.931  -0.535  0.00  0.00    +0.104 C 
BRANCH  32  37
ATOM     33  C   UNL     1      -1.130   0.757  -0.819  0.00  0.00    +0.044 C 
ATOM     34  C   UNL     1      -0.874  -0.727  -0.745  0.00  0.00    -0.050 A 
ATOM     35  C   UNL     1      -0.632  -1.444  -1.901  0.00  0.00    +0.003 A 
ATOM     36  C   UNL     1      -0.396  -2.805  -1.833  0.00  0.00    +0.005 A 
ATOM     37  C   UNL     1      -0.403  -3.447  -0.609  0.00  0.00    -0.038 A 
ATOM     38  C   UNL     1      -0.644  -2.729   0.547  0.00  0.00    +0.005 A 
ATOM     39  C   UNL     1      -0.875  -1.368   0.480  0.00  0.00    +0.003 A 
ENDBRANCH  32  37
ENDBRANCH  31  32
ENDBRANCH  30  31
ENDBRANCH   1  30
TORSDOF 6
