REMARK  Name = ZINC35865842
REMARK  6 active torsions:
REMARK  status: ('A' for Active; 'I' for Inactive)
REMARK    1  A    between atoms: C_1  and  C_2
REMARK    2  A    between atoms: C_11  and  N_18
REMARK    3  A    between atoms: C_13  and  C_15
REMARK    4  A    between atoms: C_15  and  C_16
REMARK    5  A    between atoms: C_15  and  C_17
REMARK    6  A    between atoms: C_24  and  C_26
REMARK                            x       y       z     vdW  Elec       q    Type
REMARK                         _______ _______ _______ _____ _____    ______ ____
ROOT
ATOM      1  C   UNL     1       0.025   1.512  -0.041  0.00  0.00    +0.008 C 
ATOM      2  C   UNL     1       0.035  -0.018  -0.038  0.00  0.00    -0.009 C 
ATOM      3  C   UNL     1      -1.403  -0.541  -0.012  0.00  0.00    +0.008 C 
ATOM      4  C   UNL     1      -1.411  -2.050  -0.258  0.00  0.00    +0.037 C 
ATOM      5  C   UNL     1      -0.454  -2.717   0.727  0.00  0.00    -0.025 A 
ATOM      6  C   UNL     1       0.499  -1.992   1.356  0.00  0.00    -0.004 A 
ATOM      7  S   UNL     1       1.363  -3.151   2.387  0.00  0.00    -0.073 S 
ATOM      8  C   UNL     1       0.449  -4.602   1.977  0.00  0.00    +0.114 A 
ATOM      9  C   UNL     1      -0.509  -4.135   1.041  0.00  0.00    +0.051 A 
ATOM     10  C   UNL     1      -1.416  -5.098   0.513  0.00  0.00    +0.133 A 
ATOM     11  N   UNL     1      -1.264  -6.343   0.960  0.00  0.00    -0.216 NA
ATOM     12  C   UNL     1      -0.347  -6.706   1.834  0.00  0.00    +0.135 A 
ATOM     13  N   UNL     1       0.528  -5.859   2.364  0.00  0.00    -0.224 NA
ATOM     14  C   UNL     1       0.770  -0.526   1.210  0.00  0.00    +0.046 C 
ENDROOT
BRANCH  10  15
ATOM     15  N   UNL     1      -2.393  -4.761  -0.406  0.00  0.00    -0.312 N 
ATOM     16  C   UNL     1      -2.084  -4.707  -1.841  0.00  0.00    +0.125 C 
ATOM     17  C   UNL     1      -3.060  -5.624  -2.588  0.00  0.00    +0.126 C 
ATOM     18  N   UNL     1      -4.427  -5.314  -2.146  0.00  0.00    -0.298 N 
ATOM     19  C   UNL     1      -4.737  -5.368  -0.711  0.00  0.00    +0.126 C 
ATOM     20  C   UNL     1      -3.762  -4.456   0.036  0.00  0.00    +0.125 C 
ATOM     21  C   UNL     1      -5.379  -4.985  -3.042  0.00  0.00    +0.219 C 
ATOM     22  O   UNL     1      -5.112  -4.944  -4.224  0.00  0.00    -0.275 OA
BRANCH  21  23
ATOM     23  C   UNL     1      -6.777  -4.670  -2.574  0.00  0.00    +0.075 C 
ATOM     24  C   UNL     1      -7.401  -5.909  -1.900  0.00  0.00    +0.013 C 
ATOM     25  C   UNL     1      -8.889  -5.867  -2.329  0.00  0.00    +0.001 C 
ATOM     26  C   UNL     1      -8.807  -5.371  -3.794  0.00  0.00    +0.001 C 
ATOM     27  C   UNL     1      -7.671  -4.327  -3.778  0.00  0.00    +0.013 C 
ENDBRANCH  21  23
ENDBRANCH  10  15
BRANCH  12  28
ATOM     28  C   UNL     1      -0.288  -8.152   2.253  0.00  0.00    +0.051 C 
ATOM     29  C   UNL     1       1.082  -8.731   1.897  0.00  0.00    +0.015 C 
ATOM     30  C   UNL     1      -0.509  -8.255   3.763  0.00  0.00    +0.015 C 
ENDBRANCH  12  28
TORSDOF 3
