REMARK  Name = ZINC10048477
REMARK  13 active torsions:
REMARK  status: ('A' for Active; 'I' for Inactive)
REMARK    1  A    between atoms: C_1  and  C_2
REMARK    2  A    between atoms: C_5  and  C_38
REMARK    3  A    between atoms: C_6  and  N_8
REMARK    4  A    between atoms: C_9  and  C_37
REMARK    5  A    between atoms: C_10  and  C_36
REMARK    6  A    between atoms: N_18  and  C_23
REMARK    7  A    between atoms: N_21  and  C_22
REMARK    8  A    between atoms: C_23  and  C_24
REMARK    9  A    between atoms: C_24  and  C_26
REMARK   10  A    between atoms: C_24  and  C_27
REMARK   11  A    between atoms: C_27  and  N_28
REMARK   12  A    between atoms: N_28  and  C_29
REMARK   13  A    between atoms: C_34  and  N_35
REMARK                            x       y       z     vdW  Elec       q    Type
REMARK                         _______ _______ _______ _____ _____    ______ ____
ROOT
ATOM      1  N   UNL     1      -4.312   1.830  -8.107  0.00  0.00    -0.282 N 
ATOM      2  C   UNL     1      -4.730   0.569  -7.723  0.00  0.00    +0.043 A 
ATOM      3  C   UNL     1      -4.037   0.213  -6.646  0.00  0.00    +0.044 A 
ATOM      4  N   UNL     1      -3.167   1.241  -6.327  0.00  0.00    -0.274 N 
ATOM      5  C   UNL     1      -3.339   2.235  -7.229  0.00  0.00    +0.223 A 
ATOM      6  N   UNL     1      -2.515   3.232  -6.943  0.00  0.00    -0.193 NA
ATOM      7  C   UNL     1      -1.792   2.930  -5.868  0.00  0.00    +0.170 A 
ATOM      8  C   UNL     1      -2.182   1.660  -5.445  0.00  0.00    +0.157 A 
ATOM      9  C   UNL     1      -1.564   1.093  -4.319  0.00  0.00    +0.283 A 
ATOM     10  O   UNL     1      -1.885  -0.018  -3.933  0.00  0.00    -0.265 OA
ATOM     11  N   UNL     1      -0.613   1.792  -3.665  0.00  0.00    -0.259 N 
ATOM     12  C   UNL     1      -0.243   3.016  -4.080  0.00  0.00    +0.333 A 
ATOM     13  O   UNL     1       0.621   3.613  -3.468  0.00  0.00    -0.246 OA
ATOM     14  N   UNL     1      -0.805   3.596  -5.157  0.00  0.00    -0.279 N 
ATOM     15  C   UNL     1      -0.375   4.932  -5.578  0.00  0.00    +0.155 C 
ATOM     16  C   UNL     1      -4.175  -1.089  -5.899  0.00  0.00    +0.066 C 
ATOM     17  C   UNL     1      -5.788  -0.259  -8.407  0.00  0.00    +0.066 C 
ENDROOT
BRANCH   1  23
ATOM     18  C   UNL     1      -4.027   3.020 -12.870  0.00  0.00    +0.044 C 
ATOM     19  C   UNL     1      -4.677   3.159 -11.518  0.00  0.00    -0.048 A 
ATOM     20  C   UNL     1      -5.754   4.011 -11.353  0.00  0.00    +0.004 A 
ATOM     21  C   UNL     1      -6.353   4.141 -10.113  0.00  0.00    +0.005 A 
ATOM     22  C   UNL     1      -5.881   3.416  -9.037  0.00  0.00    -0.027 A 
ATOM     23  C   UNL     1      -4.797   2.563  -9.198  0.00  0.00    +0.053 A 
ATOM     24  C   UNL     1      -4.197   2.435 -10.444  0.00  0.00    +0.030 A 
ATOM     25  C   UNL     1      -6.538   3.553  -7.688  0.00  0.00    +0.046 C 
ENDBRANCH   1  23
BRANCH  11  26
ATOM     26  C   UNL     1       0.031   1.205  -2.487  0.00  0.00    +0.134 C 
BRANCH  26  27
ATOM     27  C   UNL     1      -0.753   1.593  -1.232  0.00  0.00    +0.023 C 
ATOM     28  C   UNL     1      -2.147   0.964  -1.286  0.00  0.00    +0.011 C 
BRANCH  27  29
ATOM     29  C   UNL     1      -0.013   1.086   0.008  0.00  0.00    +0.106 C 
BRANCH  29  30
ATOM     30  N   UNL     1      -0.698   1.558   1.213  0.00  0.00    -0.342 N 
ATOM     31  H   UNL     1      -1.495   2.106   1.135  0.00  0.00    +0.146 HD
BRANCH  30  32
ATOM     32  C   UNL     1      -0.203   1.220   2.479  0.00  0.00    +0.048 A 
ATOM     33  C   UNL     1       0.932   0.433   2.593  0.00  0.00    +0.025 A 
ATOM     34  C   UNL     1       1.422   0.103   3.844  0.00  0.00    +0.002 A 
ATOM     35  C   UNL     1       0.777   0.548   4.982  0.00  0.00    +0.002 A 
ATOM     36  C   UNL     1      -0.359   1.329   4.877  0.00  0.00    +0.024 A 
ATOM     37  C   UNL     1      -0.855   1.668   3.627  0.00  0.00    +0.046 A 
BRANCH  37  38
ATOM     38  N   UNL     1      -2.005   2.459   3.519  0.00  0.00    -0.357 N 
ATOM     39  H   UNL     1      -2.351   2.695   2.644  0.00  0.00    +0.142 HD
ATOM     40  H   UNL     1      -2.457   2.770   4.319  0.00  0.00    +0.142 HD
ENDBRANCH  37  38
ENDBRANCH  30  32
ENDBRANCH  29  30
ENDBRANCH  27  29
ENDBRANCH  26  27
ENDBRANCH  11  26
TORSDOF 7
