REMARK  Name = ZINC08918106
REMARK  8 active torsions:
REMARK  status: ('A' for Active; 'I' for Inactive)
REMARK    1  A    between atoms: C_1  and  C_2
REMARK    2  A    between atoms: C_7  and  O_13
REMARK    3  A    between atoms: O_13  and  C_14
REMARK    4  A    between atoms: N_20  and  C_23
REMARK    5  A    between atoms: C_28  and  C_29
REMARK    6  A    between atoms: N_31  and  C_32
REMARK    7  A    between atoms: C_32  and  C_33
REMARK    8  A    between atoms: C_33  and  C_34
REMARK                            x       y       z     vdW  Elec       q    Type
REMARK                         _______ _______ _______ _____ _____    ______ ____
ROOT
ATOM      1  C   UNL     1       1.806   2.366  -1.352  0.00  0.00    +0.048 C 
ATOM      2  C   UNL     1       1.398   1.775  -0.002  0.00  0.00    +0.153 C 
ATOM      3  C   UNL     1       1.512   2.777   1.122  0.00  0.00    +0.053 A 
ATOM      4  C   UNL     1       0.436   3.313   1.741  0.00  0.00    -0.015 A 
ATOM      5  C   UNL     1       0.950   4.233   2.741  0.00  0.00    +0.007 A 
ATOM      6  C   UNL     1       0.316   5.069   3.666  0.00  0.00    +0.056 A 
ATOM      7  C   UNL     1       1.138   5.826   4.488  0.00  0.00    +0.121 A 
ATOM      8  C   UNL     1       2.523   5.760   4.399  0.00  0.00    +0.047 A 
ATOM      9  C   UNL     1       3.166   4.940   3.489  0.00  0.00    +0.030 A 
ATOM     10  C   UNL     1       2.363   4.169   2.651  0.00  0.00    +0.047 A 
ATOM     11  N   UNL     1       2.666   3.275   1.662  0.00  0.00    -0.356 N 
ATOM     12  H   UNL     1       3.563   3.031   1.386  0.00  0.00    +0.166 HD
ATOM     13  C   UNL     1      -1.010   3.005   1.448  0.00  0.00    +0.056 C 
ATOM     14  C   UNL     1      -1.137   2.266   0.108  0.00  0.00    +0.115 C 
ATOM     15  N   UNL     1      -0.016   1.329   0.009  0.00  0.00    -0.265 N 
ATOM     16  C   UNL     1       0.002  -0.004   0.002  0.00  0.00    +0.317 C 
ATOM     17  O   UNL     1      -0.977  -0.698  -0.192  0.00  0.00    -0.252 OA
ATOM     18  N   UNL     1       1.233  -0.487   0.235  0.00  0.00    -0.191 N 
ATOM     19  C   UNL     1       2.150   0.503   0.309  0.00  0.00    +0.257 C 
ATOM     20  O   UNL     1       3.329   0.393   0.571  0.00  0.00    -0.272 OA
ENDROOT
BRANCH  18  21
ATOM     21  C   UNL     1       1.530  -1.843   0.383  0.00  0.00    +0.058 A 
ATOM     22  C   UNL     1       1.867  -2.608  -0.725  0.00  0.00    +0.025 A 
ATOM     23  C   UNL     1       2.160  -3.949  -0.577  0.00  0.00    +0.002 A 
ATOM     24  C   UNL     1       2.120  -4.541   0.674  0.00  0.00    +0.001 A 
ATOM     25  C   UNL     1       1.787  -3.797   1.786  0.00  0.00    +0.015 A 
ATOM     26  C   UNL     1       1.493  -2.438   1.651  0.00  0.00    +0.059 A 
BRANCH  26  27
ATOM     27  C   UNL     1       1.141  -1.635   2.838  0.00  0.00    +0.246 C 
ATOM     28  O   UNL     1       0.881  -0.453   2.717  0.00  0.00    -0.270 OA
ATOM     29  N   UNL     1       1.107  -2.211   4.056  0.00  0.00    -0.311 N 
ATOM     30  H   UNL     1       1.314  -3.153   4.153  0.00  0.00    +0.149 HD
BRANCH  29  31
ATOM     31  C   UNL     1       0.757  -1.413   5.234  0.00  0.00    +0.109 C 
BRANCH  31  32
ATOM     32  C   UNL     1       0.792  -2.300   6.480  0.00  0.00    +0.056 C 
BRANCH  32  33
ATOM     33  C   UNL     1       0.433  -1.479   7.691  0.00  0.00    -0.011 A 
ATOM     34  C   UNL     1       1.430  -0.923   8.470  0.00  0.00    +0.006 A 
ATOM     35  C   UNL     1       1.100  -0.165   9.578  0.00  0.00    +0.000 A 
ATOM     36  C   UNL     1      -0.227   0.028   9.916  0.00  0.00    +0.003 A 
ATOM     37  C   UNL     1      -1.225  -0.532   9.142  0.00  0.00    +0.038 A 
ATOM     38  C   UNL     1      -0.896  -1.287   8.028  0.00  0.00    +0.127 A 
ATOM     39  F   UNL     1      -1.871  -1.835   7.271  0.00  0.00    -0.205 F 
ENDBRANCH  32  33
ENDBRANCH  31  32
ENDBRANCH  29  31
ENDBRANCH  26  27
ENDBRANCH  18  21
BRANCH   7  40
ATOM     40  O   UNL     1       0.573   6.655   5.405  0.00  0.00    -0.495 OA
ATOM     41  C   UNL     1       1.461   7.414   6.228  0.00  0.00    +0.277 C 
ENDBRANCH   7  40
TORSDOF 6
