REMARK  Name = ZINC39399983
REMARK  5 active torsions:
REMARK  status: ('A' for Active; 'I' for Inactive)
REMARK    1  A    between atoms: N_8  and  C_20
REMARK    2  A    between atoms: C_10  and  C_13
REMARK    3  A    between atoms: C_20  and  C_21
REMARK    4  A    between atoms: N_23  and  C_24
REMARK    5  A    between atoms: C_24  and  C_25
REMARK                            x       y       z     vdW  Elec       q    Type
REMARK                         _______ _______ _______ _____ _____    ______ ____
ROOT
ATOM      1  C   UNL     1      -0.017   1.380   0.010  0.00  0.00    +0.001 A 
ATOM      2  C   UNL     1       1.170   2.090   0.002  0.00  0.00    +0.004 A 
ATOM      3  C   UNL     1       2.380   1.422  -0.004  0.00  0.00    +0.046 A 
ATOM      4  C   UNL     1       2.398   0.034  -0.007  0.00  0.00    +0.126 A 
ATOM      5  C   UNL     1       1.210  -0.670  -0.016  0.00  0.00    +0.008 A 
ATOM      6  C   UNL     1       0.002  -0.004   0.002  0.00  0.00    +0.008 A 
ATOM      7  C   UNL     1       1.243  -2.185  -0.077  0.00  0.00    +0.124 C 
ATOM      8  N   UNL     1       1.782  -2.697   1.188  0.00  0.00    -0.286 NA
ATOM      9  C   UNL     1       3.243  -2.718   1.208  0.00  0.00    +0.134 C 
ATOM     10  C   UNL     1       3.868  -1.340   1.228  0.00  0.00    +0.220 C 
ATOM     11  O   UNL     1       3.584  -0.634   0.014  0.00  0.00    -0.483 OA
ENDROOT
BRANCH  10  12
ATOM     12  C   UNL     1       5.361  -1.475   1.384  0.00  0.00    +0.029 A 
ATOM     13  C   UNL     1       6.177  -1.465   0.269  0.00  0.00    +0.010 A 
ATOM     14  C   UNL     1       7.546  -1.589   0.411  0.00  0.00    +0.001 A 
ATOM     15  C   UNL     1       8.101  -1.724   1.670  0.00  0.00    +0.003 A 
ATOM     16  C   UNL     1       7.288  -1.734   2.787  0.00  0.00    +0.039 A 
ATOM     17  C   UNL     1       5.917  -1.604   2.646  0.00  0.00    +0.130 A 
ATOM     18  F   UNL     1       5.121  -1.609   3.738  0.00  0.00    -0.205 F 
ENDBRANCH  10  12
BRANCH   8  19
ATOM     19  C   UNL     1       1.233  -4.024   1.496  0.00  0.00    +0.180 C 
BRANCH  19  20
ATOM     20  C   UNL     1      -0.247  -3.907   1.758  0.00  0.00    +0.227 C 
ATOM     21  O   UNL     1      -0.790  -2.824   1.695  0.00  0.00    -0.274 OA
ATOM     22  N   UNL     1      -0.966  -5.005   2.063  0.00  0.00    -0.314 N 
ATOM     23  H   UNL     1      -0.532  -5.871   2.114  0.00  0.00    +0.149 HD
BRANCH  22  24
ATOM     24  C   UNL     1      -2.404  -4.891   2.318  0.00  0.00    +0.109 C 
BRANCH  24  25
ATOM     25  C   UNL     1      -2.977  -6.273   2.638  0.00  0.00    +0.029 C 
ATOM     26  C   UNL     1      -2.887  -7.173   1.395  0.00  0.00    +0.029 C 
ATOM     27  C   UNL     1      -3.741  -8.447   1.603  0.00  0.00    +0.166 C 
ATOM     28  S   UNL     1      -5.048  -7.872   2.763  0.00  0.00    -0.031 S 
ATOM     29  O   UNL     1      -4.935  -8.594   3.982  0.00  0.00    -0.174 OA
ATOM     30  O   UNL     1      -6.293  -7.845   2.079  0.00  0.00    -0.174 OA
ATOM     31  C   UNL     1      -4.475  -6.142   3.034  0.00  0.00    +0.171 C 
ENDBRANCH  24  25
ENDBRANCH  22  24
ENDBRANCH  19  20
ENDBRANCH   8  19
TORSDOF 5
