REMARK  Name = ZINC04156594
REMARK  9 active torsions:
REMARK  status: ('A' for Active; 'I' for Inactive)
REMARK    1  A    between atoms: C_1  and  O_2
REMARK    2  A    between atoms: O_2  and  C_3
REMARK    3  A    between atoms: C_8  and  C_9
REMARK    4  A    between atoms: C_9  and  C_11
REMARK    5  A    between atoms: C_9  and  C_25
REMARK    6  A    between atoms: C_11  and  C_12
REMARK    7  A    between atoms: N_14  and  C_15
REMARK    8  A    between atoms: C_15  and  C_16
REMARK    9  A    between atoms: C_16  and  C_17
REMARK                            x       y       z     vdW  Elec       q    Type
REMARK                         _______ _______ _______ _____ _____    ______ ____
ROOT
ATOM      1  C   UNL     1       1.160   3.598   0.010  0.00  0.00    +0.080 C 
ENDROOT
BRANCH   1   2
ATOM      2  C   UNL     1       1.766   4.100   1.294  0.00  0.00    +0.051 A 
ATOM      3  C   UNL     1       2.849   3.591   1.923  0.00  0.00    +0.135 A 
ATOM      4  N   UNL     1       3.076   4.306   3.027  0.00  0.00    -0.236 NA
ATOM      5  C   UNL     1       2.163   5.263   3.121  0.00  0.00    +0.138 A 
ATOM      6  N   UNL     1       1.328   5.161   2.039  0.00  0.00    -0.302 N 
ATOM      7  C   UNL     1       0.284   6.027   1.887  0.00  0.00    +0.113 A 
ATOM      8  C   UNL     1       0.063   7.004   2.793  0.00  0.00    +0.058 A 
ATOM      9  C   UNL     1       0.906   7.138   3.910  0.00  0.00    +0.025 A 
ATOM     10  C   UNL     1       1.947   6.277   4.076  0.00  0.00    +0.048 A 
ATOM     11 CL   UNL     1      -1.266   8.100   2.578  0.00  0.00    -0.082 Cl
ENDBRANCH   1   2
BRANCH   1  17
ATOM     12  C   UNL     1       0.128   1.312   0.004  0.00  0.00    +0.124 A 
ATOM     13  C   UNL     1       0.234  -0.070  -0.047  0.00  0.00    +0.046 A 
ATOM     14  C   UNL     1       1.478  -0.663  -0.146  0.00  0.00    +0.004 A 
ATOM     15  C   UNL     1       2.616   0.120  -0.194  0.00  0.00    +0.001 A 
ATOM     16  C   UNL     1       2.513   1.498  -0.144  0.00  0.00    +0.008 A 
ATOM     17  C   UNL     1       1.271   2.096  -0.045  0.00  0.00    +0.004 A 
BRANCH  12  19
ATOM     18  C   UNL     1      -2.229   1.030   0.136  0.00  0.00    +0.277 C 
ATOM     19  O   UNL     1      -1.095   1.898   0.096  0.00  0.00    -0.495 OA
ENDBRANCH  12  19
ENDBRANCH   1  17
BRANCH   1  20
ATOM     20  C   UNL     1       1.904   4.208  -1.179  0.00  0.00    +0.110 C 
BRANCH  20  21
ATOM     21  C   UNL     1       1.222   3.804  -2.461  0.00  0.00    +0.214 C 
ATOM     22  O   UNL     1       0.237   3.097  -2.426  0.00  0.00    -0.276 OA
ATOM     23  N   UNL     1       1.706   4.228  -3.645  0.00  0.00    -0.315 N 
ATOM     24  H   UNL     1       2.494   4.793  -3.672  0.00  0.00    +0.149 HD
BRANCH  23  25
ATOM     25  C   UNL     1       1.043   3.835  -4.890  0.00  0.00    +0.109 C 
BRANCH  25  26
ATOM     26  C   UNL     1       1.788   4.445  -6.079  0.00  0.00    +0.055 C 
BRANCH  26  27
ATOM     27  C   UNL     1       1.106   4.041  -7.361  0.00  0.00    -0.027 A 
ATOM     28  C   UNL     1       0.249   4.921  -7.995  0.00  0.00    +0.006 A 
ATOM     29  C   UNL     1      -0.377   4.551  -9.170  0.00  0.00    +0.020 A 
ATOM     30  C   UNL     1      -0.146   3.300  -9.713  0.00  0.00    +0.042 A 
ATOM     31  C   UNL     1       0.712   2.419  -9.079  0.00  0.00    +0.040 A 
ATOM     32  C   UNL     1       1.342   2.791  -7.905  0.00  0.00    +0.046 A 
ATOM     33 CL   UNL     1       2.423   1.689  -7.113  0.00  0.00    -0.083 Cl
ATOM     34 CL   UNL     1      -0.932   2.835 -11.189  0.00  0.00    -0.083 Cl
ENDBRANCH  26  27
ENDBRANCH  25  26
ENDBRANCH  23  25
ENDBRANCH  20  21
ENDBRANCH   1  20
TORSDOF 8
