REMARK  Name = ZINC12501782
REMARK  5 active torsions:
REMARK  status: ('A' for Active; 'I' for Inactive)
REMARK    1  A    between atoms: C_8  and  C_10
REMARK    2  A    between atoms: N_12  and  N_13
REMARK    3  A    between atoms: N_13  and  C_14
REMARK    4  A    between atoms: C_14  and  N_16
REMARK    5  A    between atoms: C_17  and  C_19
REMARK                            x       y       z     vdW  Elec       q    Type
REMARK                         _______ _______ _______ _____ _____    ______ ____
ROOT
ATOM      1  N   UNL     1       3.738   8.740   0.010  0.00  0.00    -0.245 N 
ATOM      2  H   UNL     1       4.679   8.507  -0.000  0.00  0.00    +0.172 HD
ENDROOT
BRANCH   1   5
ATOM      3  C   UNL     1       3.140   6.435   0.004  0.00  0.00    +0.268 C 
ATOM      4  O   UNL     1       4.321   6.143  -0.009  0.00  0.00    -0.268 OA
ATOM      5  N   UNL     1       2.767   7.730   0.015  0.00  0.00    -0.231 N 
ATOM      6  H   UNL     1       1.825   7.963   0.025  0.00  0.00    +0.173 HD
BRANCH   3  14
ATOM      7  C   UNL     1      -0.013   1.076   0.008  0.00  0.00    +0.001 A 
ATOM      8  C   UNL     1      -1.235   1.737   0.017  0.00  0.00    +0.001 A 
ATOM      9  C   UNL     1      -1.261   3.117   0.029  0.00  0.00    +0.016 A 
ATOM     10  C   UNL     1      -0.075   3.819   0.022  0.00  0.00    +0.021 A 
ATOM     11  C   UNL     1       1.184   3.173   0.007  0.00  0.00    +0.008 A 
ATOM     12  C   UNL     1       1.164   1.754   0.000  0.00  0.00    +0.010 A 
ATOM     13  C   UNL     1       2.301   4.028   0.001  0.00  0.00    +0.068 A 
ATOM     14  C   UNL     1       2.122   5.377   0.009  0.00  0.00    +0.095 A 
ATOM     15  S   UNL     1       0.346   5.544   0.027  0.00  0.00    -0.082 S 
ATOM     16 CL   UNL     1       3.905   3.364  -0.018  0.00  0.00    -0.082 Cl
ENDBRANCH   3  14
ENDBRANCH   1   5
BRANCH   1  17
ATOM     17  C   UNL     1       3.364  10.035   0.020  0.00  0.00    +0.153 C 
ATOM     18  S   UNL     1       4.551  11.268   0.015  0.00  0.00    -0.017 S 
BRANCH  17  19
ATOM     19  N   UNL     1       2.056  10.358   0.035  0.00  0.00    -0.263 N 
ATOM     20  C   UNL     1       1.682  11.653   0.045  0.00  0.00    +0.250 C 
ATOM     21  O   UNL     1       2.525  12.529   0.041  0.00  0.00    -0.270 OA
ATOM     22  H   UNL     1       1.383   9.659   0.038  0.00  0.00    +0.157 HD
BRANCH  20  23
ATOM     23  C   UNL     1       0.248  12.008   0.061  0.00  0.00    +0.037 A 
ATOM     24  C   UNL     1      -0.722  11.004   0.059  0.00  0.00    +0.014 A 
ATOM     25  C   UNL     1      -2.059  11.341   0.079  0.00  0.00    +0.021 A 
ATOM     26  C   UNL     1      -2.440  12.673   0.089  0.00  0.00    +0.041 A 
ATOM     27  C   UNL     1      -1.482  13.673   0.085  0.00  0.00    +0.021 A 
ATOM     28  C   UNL     1      -0.142  13.349   0.071  0.00  0.00    +0.014 A 
ATOM     29 CL   UNL     1      -4.125  13.090   0.108  0.00  0.00    -0.084 Cl
ENDBRANCH  20  23
ENDBRANCH  17  19
ENDBRANCH   1  17
TORSDOF 5
