REMARK  Name = ZINC06282211
REMARK  11 active torsions:
REMARK  status: ('A' for Active; 'I' for Inactive)
REMARK    1  A    between atoms: C_1  and  C_2
REMARK    2  A    between atoms: C_7  and  C_14
REMARK    3  A    between atoms: C_14  and  C_16
REMARK    4  A    between atoms: C_14  and  N_71
REMARK    5  A    between atoms: N_20  and  C_21
REMARK    6  A    between atoms: C_21  and  C_22
REMARK    7  A    between atoms: C_21  and  C_23
REMARK    8  A    between atoms: C_21  and  C_24
REMARK    9  A    between atoms: N_27  and  C_30
REMARK   10  A    between atoms: C_32  and  C_37
REMARK   11  A    between atoms: C_35  and  C_36
REMARK                            x       y       z     vdW  Elec       q    Type
REMARK                         _______ _______ _______ _____ _____    ______ ____
ROOT
ATOM      1  C   UNL     1       4.993   1.320   0.031  0.00  0.00    +0.039 C 
ENDROOT
BRANCH   1   8
ATOM      2  C   UNL     1      -2.229   4.415  -1.342  0.00  0.00    +0.044 C 
ATOM      3  C   UNL     1      -0.971   3.623  -1.095  0.00  0.00    -0.048 A 
ATOM      4  C   UNL     1      -1.026   2.236  -1.072  0.00  0.00    +0.004 A 
ATOM      5  C   UNL     1       0.101   1.499  -0.844  0.00  0.00    +0.010 A 
ATOM      6  C   UNL     1       1.325   2.147  -0.644  0.00  0.00    -0.001 A 
ATOM      7  C   UNL     1       2.553   1.388  -0.403  0.00  0.00    +0.017 A 
ATOM      8  C   UNL     1       3.710   2.071  -0.218  0.00  0.00    +0.011 A 
ATOM      9  C   UNL     1       3.717   3.481  -0.257  0.00  0.00    +0.251 A 
ATOM     10  O   UNL     1       4.768   4.075  -0.087  0.00  0.00    -0.268 OA
ATOM     11  N   UNL     1       2.594   4.187  -0.477  0.00  0.00    -0.322 N 
ATOM     12  H   UNL     1       2.635   5.156  -0.497  0.00  0.00    +0.169 HD
ATOM     13  C   UNL     1       1.386   3.553  -0.673  0.00  0.00    +0.049 A 
ATOM     14  C   UNL     1       0.223   4.283  -0.901  0.00  0.00    +0.029 A 
ENDBRANCH   1   8
BRANCH   1  20
ATOM     15  C   UNL     1       5.511   1.532  -2.325  0.00  0.00    -0.058 C 
ATOM     16  C   UNL     1       6.556   2.047  -3.318  0.00  0.00    +0.086 C 
ATOM     17  N   UNL     1       7.823   1.334  -3.106  0.00  0.00    -0.333 N 
ATOM     18  C   UNL     1       8.313   1.534  -1.735  0.00  0.00    +0.086 C 
ATOM     19  C   UNL     1       7.268   1.019  -0.742  0.00  0.00    -0.058 C 
ATOM     20  N   UNL     1       6.006   1.760  -0.951  0.00  0.00    +0.391 N 
ATOM     21  H   UNL     1       6.183   2.763  -0.822  0.00  0.00    -0.080 HD
BRANCH  17  22
ATOM     22  C   UNL     1       8.781   1.726  -4.043  0.00  0.00    +0.033 A 
ATOM     23  C   UNL     1       9.166   3.058  -4.128  0.00  0.00    +0.026 A 
ATOM     24  C   UNL     1      10.115   3.443  -5.056  0.00  0.00    -0.049 A 
ATOM     25  C   UNL     1      10.681   2.503  -5.898  0.00  0.00    +0.004 A 
ATOM     26  C   UNL     1      10.300   1.177  -5.816  0.00  0.00    +0.005 A 
ATOM     27  C   UNL     1       9.356   0.785  -4.887  0.00  0.00    -0.029 A 
ATOM     28  C   UNL     1       8.945  -0.662  -4.794  0.00  0.00    +0.045 C 
ATOM     29  C   UNL     1      10.533   4.888  -5.149  0.00  0.00    +0.044 C 
ENDBRANCH  17  22
ENDBRANCH   1  20
BRANCH   1  30
ATOM     30  C   UNL     1       5.493   1.626   1.419  0.00  0.00    +0.143 A 
ATOM     31  N   UNL     1       5.979   2.767   1.842  0.00  0.00    -0.115 NA
ATOM     32  N   UNL     1       6.293   2.630   3.084  0.00  0.00    -0.023 NA
ATOM     33  N   UNL     1       6.027   1.429   3.463  0.00  0.00    -0.043 NA
ATOM     34  N   UNL     1       5.532   0.778   2.464  0.00  0.00    -0.225 N 
BRANCH  34  35
ATOM     35  C   UNL     1       5.095  -0.620   2.468  0.00  0.00    +0.059 C 
ATOM     36  C   UNL     1       5.952  -1.425   1.490  0.00  0.00    +0.036 C 
ATOM     37  C   UNL     1       5.247  -1.198   3.876  0.00  0.00    +0.036 C 
ATOM     38  C   UNL     1       3.627  -0.696   2.041  0.00  0.00    +0.036 C 
ENDBRANCH  34  35
ENDBRANCH   1  30
TORSDOF 5
