REMARK  Name = ZINC13141656
REMARK  9 active torsions:
REMARK  status: ('A' for Active; 'I' for Inactive)
REMARK    1  A    between atoms: C_1  and  C_2
REMARK    2  A    between atoms: C_2  and  N_3
REMARK    3  A    between atoms: C_14  and  N_16
REMARK    4  A    between atoms: C_17  and  C_19
REMARK    5  A    between atoms: C_19  and  O_20
REMARK    6  A    between atoms: O_20  and  C_21
REMARK    7  A    between atoms: C_21  and  C_23
REMARK    8  A    between atoms: C_27  and  N_28
REMARK    9  A    between atoms: C_29  and  C_31
REMARK                            x       y       z     vdW  Elec       q    Type
REMARK                         _______ _______ _______ _____ _____    ______ ____
ROOT
ATOM      1  N   UNL     1      -0.711   8.840   0.056  0.00  0.00    -0.283 N 
ATOM      2  C   UNL     1      -0.124  10.049   0.158  0.00  0.00    +0.255 C 
ATOM      3  O   UNL     1       1.085  10.139   0.147  0.00  0.00    -0.272 OA
ATOM      4  H   UNL     1      -1.677   8.773  -0.002  0.00  0.00    +0.155 HD
ENDROOT
BRANCH   1  16
ATOM      5  N   UNL     1       2.573   4.375  -0.162  0.00  0.00    -0.340 N 
ATOM      6  C   UNL     1       3.659   4.870  -0.861  0.00  0.00    +0.050 A 
ATOM      7  C   UNL     1       4.854   4.287  -1.272  0.00  0.00    +0.026 A 
ATOM      8  C   UNL     1       5.781   5.030  -1.970  0.00  0.00    +0.002 A 
ATOM      9  C   UNL     1       5.538   6.363  -2.265  0.00  0.00    +0.001 A 
ATOM     10  C   UNL     1       4.358   6.957  -1.873  0.00  0.00    +0.010 A 
ATOM     11  C   UNL     1       3.413   6.217  -1.166  0.00  0.00    +0.008 A 
ATOM     12  C   UNL     1       2.087   6.537  -0.607  0.00  0.00    +0.009 A 
ATOM     13  C   UNL     1       1.617   5.364   0.001  0.00  0.00    +0.050 A 
ATOM     14  C   UNL     1       0.371   5.367   0.621  0.00  0.00    +0.028 A 
ATOM     15  C   UNL     1      -0.391   6.514   0.637  0.00  0.00    +0.025 A 
ATOM     16  C   UNL     1       0.074   7.679   0.034  0.00  0.00    +0.034 A 
ATOM     17  C   UNL     1       1.311   7.693  -0.587  0.00  0.00    +0.034 A 
BRANCH   5  19
ATOM     18  C   UNL     1       3.029   2.919   1.749  0.00  0.00    +0.027 C 
ATOM     19  C   UNL     1       2.452   3.002   0.335  0.00  0.00    +0.119 C 
ENDBRANCH   5  19
ENDBRANCH   1  16
BRANCH   2  20
ATOM     20  C   UNL     1      -0.971  11.289   0.287  0.00  0.00    +0.328 C 
BRANCH  20  21
ATOM     21  O   UNL     1      -0.110  12.455   0.380  0.00  0.00    -0.452 OA
BRANCH  21  22
ATOM     22  C   UNL     1      -0.715  13.654   0.501  0.00  0.00    +0.342 C 
ATOM     23  O   UNL     1      -1.929  13.724   0.528  0.00  0.00    -0.245 OA
BRANCH  22  24
ATOM     24  C   UNL     1       0.090  14.874   0.601  0.00  0.00    +0.091 A 
ATOM     25  C   UNL     1       0.489  15.613  -0.585  0.00  0.00    -0.021 A 
ATOM     26  C   UNL     1       1.226  16.720  -0.352  0.00  0.00    -0.004 A 
ATOM     27  S   UNL     1       1.404  16.784   1.408  0.00  0.00    -0.077 S 
ATOM     28  C   UNL     1       0.506  15.364   1.832  0.00  0.00    +0.086 A 
ATOM     29  C   UNL     1       1.772  17.673  -1.371  0.00  0.00    +0.043 C 
ATOM     30  C   UNL     1       1.683  17.008  -2.752  0.00  0.00    +0.005 C 
ATOM     31  C   UNL     1       0.280  16.418  -2.925  0.00  0.00    +0.005 C 
ATOM     32  C   UNL     1       0.107  15.209  -2.004  0.00  0.00    +0.037 C 
BRANCH  28  33
ATOM     33  N   UNL     1       0.264  14.843   3.093  0.00  0.00    -0.280 N 
ATOM     34  C   UNL     1       0.754  15.463   4.184  0.00  0.00    +0.214 C 
ATOM     35  O   UNL     1       1.408  16.478   4.063  0.00  0.00    -0.276 OA
ATOM     36  C   UNL     1       0.490  14.897   5.556  0.00  0.00    +0.109 C 
ATOM     37  H   UNL     1      -0.260  14.032   3.190  0.00  0.00    +0.155 HD
ENDBRANCH  28  33
ENDBRANCH  22  24
ENDBRANCH  21  22
ENDBRANCH  20  21
ENDBRANCH   2  20
TORSDOF 7
