REMARK  Name = ZINC65406689
REMARK  10 active torsions:
REMARK  status: ('A' for Active; 'I' for Inactive)
REMARK    1  A    between atoms: C_1  and  C_2
REMARK    2  A    between atoms: C_2  and  C_3
REMARK    3  A    between atoms: N_5  and  C_6
REMARK    4  A    between atoms: C_11  and  O_12
REMARK    5  A    between atoms: O_12  and  C_13
REMARK    6  A    between atoms: C_14  and  C_20
REMARK    7  A    between atoms: C_23  and  C_26
REMARK    8  A    between atoms: C_26  and  C_27
REMARK    9  A    between atoms: C_26  and  C_28
REMARK   10  A    between atoms: C_26  and  C_29
REMARK                            x       y       z     vdW  Elec       q    Type
REMARK                         _______ _______ _______ _____ _____    ______ ____
ROOT
ATOM      1  C   UNL     1       1.413  -2.315  -2.638  0.00  0.00    +0.077 A 
ATOM      2  C   UNL     1       1.948  -1.447  -3.577  0.00  0.00    +0.050 A 
ATOM      3  C   UNL     1       2.505  -1.946  -4.746  0.00  0.00    +0.039 A 
ATOM      4  C   UNL     1       2.546  -3.317  -4.964  0.00  0.00    -0.017 A 
ATOM      5  C   UNL     1       2.008  -4.183  -4.031  0.00  0.00    +0.053 A 
ATOM      6  C   UNL     1       1.446  -3.689  -2.866  0.00  0.00    +0.142 A 
ATOM      7  C   UNL     1       3.195  -3.864  -6.209  0.00  0.00    +0.060 C 
ATOM      8  C   UNL     1       2.981  -2.894  -7.371  0.00  0.00    +0.106 C 
ATOM      9  C   UNL     1       3.332  -1.495  -6.938  0.00  0.00    +0.218 C 
ATOM     10  O   UNL     1       3.886  -0.746  -7.715  0.00  0.00    -0.275 OA
ATOM     11  N   UNL     1       3.038  -1.069  -5.698  0.00  0.00    -0.285 N 
ATOM     12  H   UNL     1       3.197  -0.142  -5.459  0.00  0.00    +0.155 HD
ENDROOT
BRANCH   7  13
ATOM     13  C   UNL     1       4.695  -4.041  -5.965  0.00  0.00    +0.160 C 
ATOM     14  C   UNL     1       5.389  -4.536  -7.222  0.00  0.00    +0.027 C 
ATOM     15  C   UNL     1       6.255  -3.563  -7.515  0.00  0.00    +0.067 C 
ATOM     16  N   UNL     1       6.175  -2.561  -6.612  0.00  0.00    -0.158 NA
ATOM     17  N   UNL     1       5.340  -2.740  -5.717  0.00  0.00    -0.179 NA
BRANCH  15  18
ATOM     18  C   UNL     1       7.194  -3.581  -8.694  0.00  0.00    +0.006 C 
ATOM     19  C   UNL     1       6.996  -4.875  -9.485  0.00  0.00    +0.017 C 
ATOM     20  C   UNL     1       6.902  -2.381  -9.597  0.00  0.00    +0.017 C 
ATOM     21  C   UNL     1       8.639  -3.504  -8.195  0.00  0.00    +0.017 C 
ENDBRANCH  15  18
ENDBRANCH   7  13
BRANCH   1  24
ATOM     22  C   UNL     1       0.187  -0.637  -1.477  0.00  0.00    +0.217 C 
ATOM     23  O   UNL     1       0.152   0.024  -2.494  0.00  0.00    -0.275 OA
ATOM     24  N   UNL     1       0.847  -1.812  -1.460  0.00  0.00    -0.283 N 
ATOM     25  H   UNL     1       0.929  -2.310  -0.631  0.00  0.00    +0.155 HD
BRANCH  22  27
ATOM     26  C   UNL     1      -1.175   1.202  -0.522  0.00  0.00    +0.013 C 
ATOM     27  C   UNL     1      -0.508  -0.145  -0.234  0.00  0.00    +0.093 C 
ENDBRANCH  22  27
ENDBRANCH   1  24
BRANCH   6  28
ATOM     28  O   UNL     1       0.921  -4.544  -1.947  0.00  0.00    -0.493 OA
ATOM     29  C   UNL     1       0.989  -5.940  -2.246  0.00  0.00    +0.277 C 
ENDBRANCH   6  28
TORSDOF 5
