REMARK  Name = ZINC46539186
REMARK  7 active torsions:
REMARK  status: ('A' for Active; 'I' for Inactive)
REMARK    1  A    between atoms: C_1  and  N_2
REMARK    2  A    between atoms: N_2  and  C_3
REMARK    3  A    between atoms: N_2  and  C_29
REMARK    4  A    between atoms: C_3  and  C_4
REMARK    5  A    between atoms: C_9  and  N_10
REMARK    6  A    between atoms: C_11  and  C_13
REMARK    7  A    between atoms: C_13  and  N_14
REMARK                            x       y       z     vdW  Elec       q    Type
REMARK                         _______ _______ _______ _____ _____    ______ ____
ROOT
ATOM      1  N   UNL     1      -1.552  -1.973   2.069  0.00  0.00    -0.284 N 
ATOM      2  C   UNL     1      -2.830  -2.398   2.113  0.00  0.00    +0.235 C 
ATOM      3  O   UNL     1      -3.660  -1.765   2.731  0.00  0.00    -0.274 OA
ATOM      4  H   UNL     1      -0.907  -2.434   1.510  0.00  0.00    +0.155 HD
ENDROOT
BRANCH   1  10
ATOM      5  C   UNL     1      -0.056  -0.115   2.443  0.00  0.00    -0.043 A 
ATOM      6  C   UNL     1       0.329   0.980   3.192  0.00  0.00    +0.003 A 
ATOM      7  C   UNL     1      -0.377   1.323   4.330  0.00  0.00    +0.000 A 
ATOM      8  C   UNL     1      -1.471   0.572   4.722  0.00  0.00    +0.002 A 
ATOM      9  C   UNL     1      -1.861  -0.523   3.976  0.00  0.00    +0.023 A 
ATOM     10  C   UNL     1      -1.157  -0.867   2.830  0.00  0.00    +0.035 A 
BRANCH   5  11
ATOM     11  C   UNL     1       0.715  -0.488   1.202  0.00  0.00    -0.041 C 
BRANCH  11  13
ATOM     12  C   UNL     1      -0.013   1.478   0.036  0.00  0.00    -0.095 C 
ATOM     13  N   UNL     1       0.004   0.009   0.017  0.00  0.00    +0.382 N 
ATOM     14  H   UNL     1      -0.943  -0.338   0.022  0.00  0.00    -0.081 HD
BRANCH  13  15
ATOM     15  C   UNL     1       0.691  -0.456  -1.196  0.00  0.00    -0.069 C 
ATOM     16  C   UNL     1      -0.049   0.062  -2.431  0.00  0.00    -0.015 C 
ATOM     17  C   UNL     1       0.665  -0.423  -3.694  0.00  0.00    -0.002 C 
ATOM     18  C   UNL     1       0.683  -1.953  -3.715  0.00  0.00    -0.000 C 
ATOM     19  C   UNL     1       1.423  -2.471  -2.480  0.00  0.00    -0.002 C 
ATOM     20  C   UNL     1       0.708  -1.986  -1.216  0.00  0.00    -0.015 C 
ENDBRANCH  13  15
ENDBRANCH  11  13
ENDBRANCH   5  11
ENDBRANCH   1  10
BRANCH   2  21
ATOM     21  C   UNL     1      -3.230  -3.661   1.393  0.00  0.00    +0.214 C 
BRANCH  21  22
ATOM     22  N   UNL     1      -4.660  -3.905   1.593  0.00  0.00    -0.215 N 
ATOM     23  C   UNL     1      -5.173  -4.623   2.616  0.00  0.00    +0.251 C 
ATOM     24  O   UNL     1      -4.563  -5.167   3.512  0.00  0.00    -0.272 OA
ATOM     25  C   UNL     1      -6.664  -4.601   2.407  0.00  0.00    +0.138 C 
ATOM     26  C   UNL     1      -7.224  -6.021   2.245  0.00  0.00    +0.045 C 
ATOM     27  C   UNL     1      -8.628  -5.891   2.878  0.00  0.00    +0.038 C 
ATOM     28  C   UNL     1      -8.518  -4.742   3.859  0.00  0.00    -0.042 A 
ATOM     29  C   UNL     1      -7.383  -3.998   3.583  0.00  0.00    -0.012 A 
ATOM     30  C   UNL     1      -7.083  -2.891   4.360  0.00  0.00    +0.006 A 
ATOM     31  C   UNL     1      -7.909  -2.529   5.406  0.00  0.00    +0.000 A 
ATOM     32  C   UNL     1      -9.041  -3.272   5.681  0.00  0.00    +0.000 A 
ATOM     33  C   UNL     1      -9.344  -4.376   4.907  0.00  0.00    +0.004 A 
ATOM     34  N   UNL     1      -6.855  -3.811   1.190  0.00  0.00    -0.281 N 
ATOM     35  C   UNL     1      -5.623  -3.440   0.786  0.00  0.00    +0.310 C 
ATOM     36  O   UNL     1      -5.410  -2.764  -0.201  0.00  0.00    -0.252 OA
ATOM     37  H   UNL     1      -7.698  -3.595   0.762  0.00  0.00    +0.152 HD
ENDBRANCH  21  22
ENDBRANCH   2  21
TORSDOF 6
