REMARK  Name = ZINC09138379
REMARK  4 active torsions:
REMARK  status: ('A' for Active; 'I' for Inactive)
REMARK    1  A    between atoms: C_1  and  N_2
REMARK    2  A    between atoms: C_11  and  S_12
REMARK    3  A    between atoms: S_12  and  C_13
REMARK    4  A    between atoms: C_13  and  C_14
REMARK                            x       y       z     vdW  Elec       q    Type
REMARK                         _______ _______ _______ _____ _____    ______ ____
ROOT
ATOM      1  S   UNL     1       4.785   4.519  -0.022  0.00  0.00    -0.078 S 
ENDROOT
BRANCH   1  12
ATOM      2  C   UNL     1       5.879   1.766  -0.045  0.00  0.00    +0.154 C 
ATOM      3  N   UNL     1       4.416   1.836  -0.031  0.00  0.00    -0.290 N 
ATOM      4  C   UNL     1       3.700   0.696  -0.030  0.00  0.00    +0.263 A 
ATOM      5  O   UNL     1       4.260  -0.387  -0.041  0.00  0.00    -0.267 OA
ATOM      6  C   UNL     1       2.272   0.775  -0.016  0.00  0.00    +0.076 A 
ATOM      7  C   UNL     1       1.303  -0.334  -0.013  0.00  0.00    -0.023 A 
ATOM      8  C   UNL     1       0.002  -0.004   0.002  0.00  0.00    -0.004 A 
ATOM      9  S   UNL     1      -0.022   1.774   0.012  0.00  0.00    -0.073 S 
ATOM     10  C   UNL     1       1.727   2.067  -0.003  0.00  0.00    +0.117 A 
ATOM     11  N   UNL     1       2.489   3.155  -0.006  0.00  0.00    -0.216 NA
ATOM     12  C   UNL     1       3.804   3.055  -0.019  0.00  0.00    +0.173 A 
ATOM     13  C   UNL     1      -0.892  -1.215   0.007  0.00  0.00    +0.043 C 
ATOM     14  C   UNL     1       0.034  -2.377   0.430  0.00  0.00    +0.010 C 
ATOM     15  C   UNL     1       1.413  -1.862  -0.026  0.00  0.00    +0.037 C 
ENDBRANCH   1  12
BRANCH   1  16
ATOM     16  C   UNL     1       3.479   5.773  -0.003  0.00  0.00    +0.173 C 
BRANCH  16  17
ATOM     17  C   UNL     1       4.101   7.146  -0.003  0.00  0.00    +0.229 C 
ATOM     18  O   UNL     1       5.308   7.265  -0.015  0.00  0.00    -0.275 OA
ATOM     19  N   UNL     1       3.316   8.241   0.010  0.00  0.00    -0.264 N 
ATOM     20  C   UNL     1       3.887   9.503   0.010  0.00  0.00    +0.165 A 
ATOM     21  N   UNL     1       3.296  10.674   0.021  0.00  0.00    -0.225 NA
ATOM     22  C   UNL     1       3.985  11.836   0.020  0.00  0.00    +0.080 A 
ATOM     23  C   UNL     1       3.474  13.155   0.032  0.00  0.00    +0.032 A 
ATOM     24  C   UNL     1       4.318  14.234   0.028  0.00  0.00    +0.040 A 
ATOM     25  C   UNL     1       5.699  14.075   0.013  0.00  0.00    +0.125 A 
ATOM     26  C   UNL     1       6.233  12.798   0.002  0.00  0.00    +0.055 A 
ATOM     27  C   UNL     1       5.393  11.713   0.005  0.00  0.00    +0.043 A 
ATOM     28  S   UNL     1       5.618   9.950   0.003  0.00  0.00    -0.052 S 
ATOM     29  F   UNL     1       6.510  15.155   0.010  0.00  0.00    -0.205 F 
ATOM     30  H   UNL     1       2.350   8.146   0.019  0.00  0.00    +0.157 HD
ENDBRANCH  16  17
ENDBRANCH   1  16
TORSDOF 3
