REMARK  Name = ZINC39364516
REMARK  4 active torsions:
REMARK  status: ('A' for Active; 'I' for Inactive)
REMARK    1  A    between atoms: C_8  and  C_10
REMARK    2  A    between atoms: C_10  and  N_11
REMARK    3  A    between atoms: N_11  and  C_12
REMARK    4  A    between atoms: N_17  and  C_19
REMARK                            x       y       z     vdW  Elec       q    Type
REMARK                         _______ _______ _______ _____ _____    ______ ____
ROOT
ATOM      1  C   UNL     1       4.884  -4.970  -1.497  0.00  0.00    +0.037 C 
ATOM      2  C   UNL     1       6.364  -4.589  -1.399  0.00  0.00    +0.015 C 
ATOM      3  C   UNL     1       7.217  -5.853  -1.535  0.00  0.00    -0.017 C 
ATOM      4  C   UNL     1       6.883  -6.548  -2.857  0.00  0.00    -0.078 C 
ATOM      5  N   UNL     1       5.461  -6.911  -2.877  0.00  0.00    +0.383 N 
ATOM      6  C   UNL     1       4.636  -5.698  -2.819  0.00  0.00    -0.060 C 
ATOM      7  H   UNL     1       5.253  -7.496  -2.082  0.00  0.00    -0.081 HD
ENDROOT
BRANCH   5   8
ATOM      8  C   UNL     1       5.162  -7.646  -4.114  0.00  0.00    -0.060 C 
ATOM      9  C   UNL     1       3.720  -8.195  -4.091  0.00  0.00    +0.020 C 
ATOM     10  C   UNL     1       3.792  -9.528  -4.805  0.00  0.00    -0.046 A 
ATOM     11  C   UNL     1       2.788 -10.306  -5.356  0.00  0.00    +0.004 A 
ATOM     12  C   UNL     1       3.095 -11.505  -5.968  0.00  0.00    +0.000 A 
ATOM     13  C   UNL     1       4.409 -11.931  -6.033  0.00  0.00    +0.000 A 
ATOM     14  C   UNL     1       5.412 -11.155  -5.485  0.00  0.00    +0.004 A 
ATOM     15  C   UNL     1       5.106  -9.953  -4.870  0.00  0.00    -0.046 A 
ATOM     16  C   UNL     1       6.006  -8.935  -4.203  0.00  0.00    +0.020 C 
ENDBRANCH   5   8
BRANCH   1  17
ATOM     17  N   UNL     1       4.060  -3.756  -1.443  0.00  0.00    -0.308 NA
ATOM     18  H   UNL     1       3.197  -3.881  -1.951  0.00  0.00    +0.123 HD
BRANCH  17  19
ATOM     19  C   UNL     1       3.799  -3.358  -0.053  0.00  0.00    +0.156 C 
BRANCH  19  27
ATOM     20  C   UNL     1      -0.017   1.363   0.009  0.00  0.00    +0.001 A 
ATOM     21  C   UNL     1       1.170   2.082   0.002  0.00  0.00    +0.004 A 
ATOM     22  C   UNL     1       2.386   1.432  -0.013  0.00  0.00    +0.047 A 
ATOM     23  C   UNL     1       2.427   0.043  -0.021  0.00  0.00    +0.135 A 
ATOM     24  C   UNL     1       1.222  -0.679  -0.013  0.00  0.00    +0.020 A 
ATOM     25  C   UNL     1       0.002  -0.004   0.002  0.00  0.00    +0.011 A 
ATOM     26  C   UNL     1       1.613  -2.093  -0.025  0.00  0.00    +0.054 A 
ATOM     27  C   UNL     1       2.952  -2.111  -0.038  0.00  0.00    +0.120 A 
ATOM     28  O   UNL     1       3.432  -0.855  -0.036  0.00  0.00    -0.458 OA
ENDBRANCH  19  27
ENDBRANCH  17  19
ENDBRANCH   1  17
TORSDOF 4
