REMARK  Name = ZINC43290597
REMARK  7 active torsions:
REMARK  status: ('A' for Active; 'I' for Inactive)
REMARK    1  A    between atoms: C_1  and  C_2
REMARK    2  A    between atoms: C_2  and  C_3
REMARK    3  A    between atoms: C_3  and  C_5
REMARK    4  A    between atoms: C_3  and  N_23
REMARK    5  A    between atoms: C_5  and  C_7
REMARK    6  A    between atoms: C_5  and  S_13
REMARK    7  A    between atoms: S_13  and  C_14
REMARK                            x       y       z     vdW  Elec       q    Type
REMARK                         _______ _______ _______ _____ _____    ______ ____
ROOT
ATOM      1  C   UNL     1       0.679  -1.819  -1.398  0.00  0.00    +0.078 C 
ENDROOT
BRANCH   1   2
ATOM      2  C   UNL     1      -0.759  -2.270  -1.401  0.00  0.00    +0.003 A 
ATOM      3  C   UNL     1      -1.409  -3.054  -0.507  0.00  0.00    +0.027 A 
ATOM      4  C   UNL     1      -2.746  -3.340  -0.714  0.00  0.00    +0.025 A 
ATOM      5  C   UNL     1      -3.366  -2.827  -1.804  0.00  0.00    +0.060 A 
ATOM      6  S   UNL     1      -2.050  -1.902  -2.577  0.00  0.00    -0.099 S 
ATOM      7 BR   UNL     1      -3.694  -4.431   0.506  0.00  0.00    -0.050 Br
ENDBRANCH   1   2
BRANCH   1   8
ATOM      8  C   UNL     1       0.735  -0.291  -1.345  0.00  0.00    -0.057 C 
BRANCH   8   9
ATOM      9  N   UNL     1      -0.049   0.188  -0.199  0.00  0.00    +0.381 N 
ATOM     10  H   UNL     1      -0.999  -0.143  -0.280  0.00  0.00    -0.090 HD
ATOM     11  H   UNL     1       0.357  -0.160   0.656  0.00  0.00    -0.090 HD
ATOM     12  H   UNL     1      -0.045   1.197  -0.187  0.00  0.00    -0.090 HD
ENDBRANCH   8   9
BRANCH   8  14
ATOM     13  C   UNL     1       0.323   1.806  -2.639  0.00  0.00    +0.002 C 
ATOM     14  C   UNL     1       0.154   0.285  -2.638  0.00  0.00    -0.018 C 
ENDBRANCH   8  14
ENDBRANCH   1   8
BRANCH   1  15
ATOM     15  S   UNL     1       1.498  -2.403  -2.908  0.00  0.00    -0.060 S 
BRANCH  15  16
ATOM     16  C   UNL     1       3.195  -1.998  -2.656  0.00  0.00    +0.259 A 
ATOM     17  N   UNL     1       3.665  -1.343  -1.625  0.00  0.00    -0.203 NA
ATOM     18  C   UNL     1       5.013  -1.215  -1.766  0.00  0.00    +0.110 A 
ATOM     19  C   UNL     1       6.011  -0.623  -0.991  0.00  0.00    +0.031 A 
ATOM     20  C   UNL     1       7.320  -0.662  -1.418  0.00  0.00    +0.002 A 
ATOM     21  C   UNL     1       7.651  -1.286  -2.611  0.00  0.00    +0.004 A 
ATOM     22  C   UNL     1       6.673  -1.875  -3.387  0.00  0.00    +0.048 A 
ATOM     23  C   UNL     1       5.351  -1.845  -2.973  0.00  0.00    +0.156 A 
ATOM     24  O   UNL     1       4.197  -2.322  -3.493  0.00  0.00    -0.431 OA
ENDBRANCH  15  16
ENDBRANCH   1  15
TORSDOF 6
