REMARK  Name = ZINC45494583
REMARK  8 active torsions:
REMARK  status: ('A' for Active; 'I' for Inactive)
REMARK    1  A    between atoms: C_1  and  C_2
REMARK    2  A    between atoms: C_2  and  C_4
REMARK    3  A    between atoms: C_2  and  S_15
REMARK    4  A    between atoms: N_6  and  C_7
REMARK    5  A    between atoms: S_15  and  C_16
REMARK    6  A    between atoms: C_19  and  C_22
REMARK    7  A    between atoms: N_20  and  C_21
REMARK    8  A    between atoms: C_22  and  C_23
REMARK                            x       y       z     vdW  Elec       q    Type
REMARK                         _______ _______ _______ _____ _____    ______ ____
ROOT
ATOM      1  S   UNL     1       0.875  -0.581   1.476  0.00  0.00    -0.074 S 
ENDROOT
BRANCH   1   2
ATOM      2  C   UNL     1       2.525  -0.005   1.247  0.00  0.00    +0.192 A 
ATOM      3  N   UNL     1       2.973   0.696   0.232  0.00  0.00    -0.122 NA
ATOM      4  N   UNL     1       4.224   0.943   0.390  0.00  0.00    -0.134 NA
ATOM      5  C   UNL     1       4.646   0.418   1.506  0.00  0.00    +0.134 A 
ATOM      6  N   UNL     1       3.578  -0.200   2.094  0.00  0.00    -0.309 N 
ATOM      7  C   UNL     1       3.566  -0.923   3.368  0.00  0.00    +0.152 C 
BRANCH   5   8
ATOM      8  C   UNL     1       6.050   0.485   2.050  0.00  0.00    +0.081 C 
BRANCH   8   9
ATOM      9  C   UNL     1       6.196   1.727   2.932  0.00  0.00    +0.019 C 
ATOM     10  C   UNL     1       6.068   2.994   2.071  0.00  0.00    +0.028 C 
ATOM     11  C   UNL     1       6.528   4.231   2.880  0.00  0.00    +0.166 C 
ATOM     12  S   UNL     1       7.749   3.514   4.054  0.00  0.00    -0.031 S 
ATOM     13  O   UNL     1       9.048   3.973   3.707  0.00  0.00    -0.174 OA
ATOM     14  O   UNL     1       7.274   3.693   5.381  0.00  0.00    -0.174 OA
ATOM     15  C   UNL     1       7.602   1.735   3.598  0.00  0.00    +0.170 C 
ENDBRANCH   8   9
ENDBRANCH   5   8
ENDBRANCH   1   2
BRANCH   1  17
ATOM     16  C   UNL     1      -0.037   1.542   0.012  0.00  0.00    +0.029 C 
ATOM     17  C   UNL     1      -0.005   0.013   0.005  0.00  0.00    +0.137 C 
BRANCH  17  18
ATOM     18  C   UNL     1      -1.414  -0.520   0.014  0.00  0.00    +0.230 C 
ATOM     19  O   UNL     1      -1.941  -0.825   1.063  0.00  0.00    -0.274 OA
ATOM     20  N   UNL     1      -2.090  -0.657  -1.144  0.00  0.00    -0.283 N 
ATOM     21  H   UNL     1      -1.694  -0.353  -1.976  0.00  0.00    +0.155 HD
BRANCH  20  22
ATOM     22  C   UNL     1      -3.364  -1.239  -1.147  0.00  0.00    +0.053 A 
ATOM     23  C   UNL     1      -4.225  -1.032  -0.078  0.00  0.00    +0.044 A 
ATOM     24  C   UNL     1      -5.481  -1.608  -0.083  0.00  0.00    +0.043 A 
ATOM     25  C   UNL     1      -5.882  -2.389  -1.153  0.00  0.00    +0.021 A 
ATOM     26  C   UNL     1      -5.026  -2.597  -2.219  0.00  0.00    +0.023 A 
ATOM     27  C   UNL     1      -3.770  -2.019  -2.222  0.00  0.00    +0.062 A 
ATOM     28 CL   UNL     1      -2.699  -2.275  -3.564  0.00  0.00    -0.082 Cl
ATOM     29 CL   UNL     1      -6.559  -1.351   1.254  0.00  0.00    -0.083 Cl
ENDBRANCH  20  22
ENDBRANCH  17  18
ENDBRANCH   1  17
TORSDOF 6
