REMARK  Name = ZINC17250982
REMARK  10 active torsions:
REMARK  status: ('A' for Active; 'I' for Inactive)
REMARK    1  A    between atoms: C_1  and  C_2
REMARK    2  A    between atoms: C_2  and  C_3
REMARK    3  A    between atoms: C_2  and  C_4
REMARK    4  A    between atoms: C_9  and  C_29
REMARK    5  A    between atoms: C_9  and  O_30
REMARK    6  A    between atoms: C_13  and  C_28
REMARK    7  A    between atoms: C_16  and  O_18
REMARK    8  A    between atoms: O_18  and  C_19
REMARK    9  A    between atoms: C_19  and  C_21
REMARK   10  A    between atoms: C_24  and  O_27
REMARK                            x       y       z     vdW  Elec       q    Type
REMARK                         _______ _______ _______ _____ _____    ______ ____
ROOT
ATOM      1  C   UNL     1      -0.465   1.646  -0.373  0.00  0.00    +0.055 C 
ATOM      2  C   UNL     1      -0.834   2.752  -1.328  0.00  0.00    -0.024 C 
ATOM      3  C   UNL     1      -1.749   3.627  -0.993  0.00  0.00    -0.028 C 
ATOM      4  C   UNL     1      -2.121   4.733  -1.947  0.00  0.00    +0.061 C 
ATOM      5  C   UNL     1      -1.504   6.049  -1.469  0.00  0.00    +0.069 C 
ATOM      6  C   UNL     1       0.019   5.971  -1.589  0.00  0.00    +0.069 C 
ATOM      7  C   UNL     1       0.595   5.299  -0.340  0.00  0.00    +0.153 C 
ATOM      8  C   UNL     1       1.500   4.081  -0.538  0.00  0.00    +0.097 C 
ATOM      9  O   UNL     1       2.010   5.357  -0.146  0.00  0.00    -0.365 OA
ATOM     10  C   UNL     1       1.452   2.977   0.520  0.00  0.00    +0.082 C 
ATOM     11  C   UNL     1       1.047   1.657  -0.139  0.00  0.00    +0.187 C 
ATOM     12  C   UNL     1       1.766   3.616  -1.972  0.00  0.00    +0.044 C 
ATOM     13  C   UNL     1      -2.025   7.200  -2.332  0.00  0.00    +0.041 C 
ENDROOT
BRANCH   1  15
ATOM     14  C   UNL     1      -2.688   1.625   0.766  0.00  0.00    +0.008 C 
ATOM     15  C   UNL     1      -1.189   1.859   0.958  0.00  0.00    -0.007 C 
ATOM     16  C   UNL     1      -0.647   0.875   1.996  0.00  0.00    +0.008 C 
ENDBRANCH   1  15
BRANCH   5  17
ATOM     17  O   UNL     1      -1.864   6.276  -0.105  0.00  0.00    -0.388 OA
ATOM     18  H   UNL     1      -2.817   6.336   0.046  0.00  0.00    +0.210 HD
ENDBRANCH   5  17
BRANCH  11  19
ATOM     19  O   UNL     1       1.735   1.519  -1.410  0.00  0.00    -0.457 OA
BRANCH  19  20
ATOM     20  C   UNL     1       2.870   0.794  -1.416  0.00  0.00    +0.339 C 
ATOM     21  O   UNL     1       3.275   0.290  -0.387  0.00  0.00    -0.245 OA
BRANCH  20  22
ATOM     22  C   UNL     1       3.622   0.611  -2.671  0.00  0.00    +0.059 A 
ATOM     23  C   UNL     1       3.156   1.185  -3.857  0.00  0.00    +0.018 A 
ATOM     24  C   UNL     1       3.864   1.017  -5.026  0.00  0.00    +0.046 A 
ATOM     25  C   UNL     1       5.035   0.269  -5.030  0.00  0.00    +0.117 A 
ATOM     26  C   UNL     1       5.500  -0.308  -3.853  0.00  0.00    +0.046 A 
ATOM     27  C   UNL     1       4.801  -0.141  -2.679  0.00  0.00    +0.018 A 
BRANCH  25  28
ATOM     28  O   UNL     1       5.728   0.101  -6.185  0.00  0.00    -0.507 OA
ATOM     29  H   UNL     1       5.462  -0.677  -6.693  0.00  0.00    +0.292 HD
ENDBRANCH  25  28
ENDBRANCH  20  22
ENDBRANCH  19  20
ENDBRANCH  11  19
TORSDOF 6
