REMARK  Name = ZINC62082764
REMARK  7 active torsions:
REMARK  status: ('A' for Active; 'I' for Inactive)
REMARK    1  A    between atoms: C_1  and  C_2
REMARK    2  A    between atoms: C_2  and  C_4
REMARK    3  A    between atoms: C_2  and  C_17
REMARK    4  A    between atoms: C_4  and  N_5
REMARK    5  A    between atoms: C_6  and  C_8
REMARK    6  A    between atoms: C_10  and  N_16
REMARK    7  A    between atoms: C_17  and  N_18
REMARK                            x       y       z     vdW  Elec       q    Type
REMARK                         _______ _______ _______ _____ _____    ______ ____
ROOT
ATOM      1  N   UNL     1      -2.082  -0.162   1.273  0.00  0.00    -0.311 N 
ATOM      2  C   UNL     1      -3.358  -0.524   1.506  0.00  0.00    +0.245 C 
ATOM      3  O   UNL     1      -3.973  -1.159   0.671  0.00  0.00    -0.270 OA
ATOM      4  H   UNL     1      -1.592   0.345   1.939  0.00  0.00    +0.149 HD
ENDROOT
BRANCH   2   5
ATOM      5  C   UNL     1      -4.012  -0.149   2.777  0.00  0.00    +0.053 A 
ATOM      6  C   UNL     1      -3.310   0.586   3.735  0.00  0.00    +0.039 A 
ATOM      7  C   UNL     1      -3.929   0.934   4.923  0.00  0.00    +0.061 A 
ATOM      8  C   UNL     1      -5.247   0.552   5.161  0.00  0.00    +0.145 A 
ATOM      9  C   UNL     1      -5.943  -0.176   4.211  0.00  0.00    +0.056 A 
ATOM     10  C   UNL     1      -5.335  -0.523   3.021  0.00  0.00    +0.033 A 
ATOM     11 BR   UNL     1      -6.293  -1.512   1.724  0.00  0.00    -0.049 Br
ATOM     12  F   UNL     1      -5.849   0.894   6.321  0.00  0.00    -0.204 F 
BRANCH   7  13
ATOM     13  N   UNL     1      -3.229   1.670   5.886  0.00  0.00    -0.356 N 
ATOM     14  H   UNL     1      -2.311   1.936   5.721  0.00  0.00    +0.142 HD
ATOM     15  H   UNL     1      -3.663   1.914   6.719  0.00  0.00    +0.142 HD
ENDBRANCH   7  13
ENDBRANCH   2   5
BRANCH   1  16
ATOM     16  C   UNL     1      -1.433  -0.534   0.013  0.00  0.00    +0.106 C 
BRANCH  16  18
ATOM     17  C   UNL     1      -0.019   1.526   0.010  0.00  0.00    +0.007 C 
ATOM     18  C   UNL     1       0.002  -0.004   0.002  0.00  0.00    -0.014 C 
BRANCH  18  19
ATOM     19  C   UNL     1       0.718  -0.497  -1.257  0.00  0.00    -0.074 C 
BRANCH  19  20
ATOM     20  N   UNL     1       2.129  -0.090  -1.209  0.00  0.00    +0.380 N 
ATOM     21  C   UNL     1       2.841  -0.833  -0.138  0.00  0.00    -0.079 C 
ATOM     22  C   UNL     1       4.326  -0.741  -0.570  0.00  0.00    -0.020 C 
ATOM     23  C   UNL     1       4.247  -0.865  -2.109  0.00  0.00    -0.020 C 
ATOM     24  C   UNL     1       2.808  -0.454  -2.472  0.00  0.00    -0.079 C 
ATOM     25  H   UNL     1       2.199   0.904  -1.050  0.00  0.00    -0.082 HD
ENDBRANCH  19  20
ENDBRANCH  18  19
ENDBRANCH  16  18
ENDBRANCH   1  16
TORSDOF 6
