REMARK  Name = ZINC08793212
REMARK  4 active torsions:
REMARK  status: ('A' for Active; 'I' for Inactive)
REMARK    1  A    between atoms: C_1  and  N_44
REMARK    2  A    between atoms: C_7  and  N_18
REMARK    3  A    between atoms: C_8  and  C_9
REMARK    4  A    between atoms: C_19  and  C_21
REMARK                            x       y       z     vdW  Elec       q    Type
REMARK                         _______ _______ _______ _____ _____    ______ ____
ROOT
ATOM      1  C   UNL     1      -6.600   5.075  -0.149  0.00  0.00    -0.096 C 
ATOM      2  C   UNL     1      -5.921   2.842   0.494  0.00  0.00    -0.074 C 
ATOM      3  C   UNL     1      -5.085   1.643   0.039  0.00  0.00    +0.018 C 
ATOM      4  C   UNL     1      -3.617   2.061   0.031  0.00  0.00    -0.029 A 
ATOM      5  C   UNL     1      -3.292   3.376   0.036  0.00  0.00    -0.021 A 
ATOM      6  S   UNL     1      -1.522   3.404   0.036  0.00  0.00    -0.079 S 
ATOM      7  C   UNL     1      -1.224   1.644   0.017  0.00  0.00    +0.082 A 
ATOM      8  C   UNL     1      -2.510   1.126   0.020  0.00  0.00    +0.039 A 
ATOM      9  C   UNL     1      -4.244   4.530   0.046  0.00  0.00    -0.036 C 
ATOM     10  N   UNL     1      -5.583   4.018  -0.333  0.00  0.00    +0.381 N 
ATOM     11  H   UNL     1      -5.567   3.738  -1.321  0.00  0.00    -0.082 HD
ENDROOT
BRANCH   8  12
ATOM     12  C   UNL     1      -2.743  -0.328   0.013  0.00  0.00    +0.112 A 
ATOM     13  N   UNL     1      -3.887  -0.982   0.021  0.00  0.00    -0.239 NA
ATOM     14  C   UNL     1      -3.950  -2.329   0.008  0.00  0.00    +0.079 A 
ATOM     15  C   UNL     1      -5.104  -3.148   0.010  0.00  0.00    +0.029 A 
ATOM     16  C   UNL     1      -4.992  -4.514   0.001  0.00  0.00    +0.002 A 
ATOM     17  C   UNL     1      -3.754  -5.140  -0.009  0.00  0.00    +0.001 A 
ATOM     18  C   UNL     1      -2.605  -4.370  -0.011  0.00  0.00    +0.017 A 
ATOM     19  C   UNL     1      -2.707  -3.002  -0.003  0.00  0.00    +0.040 A 
ATOM     20  S   UNL     1      -1.547  -1.656  -0.001  0.00  0.00    -0.067 S 
ENDBRANCH   8  12
BRANCH   7  21
ATOM     21  N   UNL     1      -0.011   0.966   0.007  0.00  0.00    -0.275 N 
ATOM     22  C   UNL     1       1.147   1.655   0.000  0.00  0.00    +0.251 C 
ATOM     23  O   UNL     1       1.130   2.872   0.007  0.00  0.00    -0.270 OA
ATOM     24  H   UNL     1       0.002  -0.004   0.002  0.00  0.00    +0.156 HD
BRANCH  22  25
ATOM     25  C   UNL     1       2.430   0.938  -0.016  0.00  0.00    +0.064 A 
ATOM     26  C   UNL     1       2.487  -0.504  -0.019  0.00  0.00    +0.042 A 
ATOM     27  C   UNL     1       3.711  -1.068  -0.039  0.00  0.00    +0.080 A 
ATOM     28  S   UNL     1       4.805   0.337  -0.041  0.00  0.00    -0.064 S 
ATOM     29  C   UNL     1       3.635   1.613  -0.024  0.00  0.00    +0.091 A 
ATOM     30 CL   UNL     1       3.909   3.327  -0.017  0.00  0.00    -0.075 Cl
ATOM     31 CL   UNL     1       4.121  -2.755  -0.051  0.00  0.00    -0.076 Cl
ENDBRANCH  22  25
ENDBRANCH   7  21
TORSDOF 3
