REMARK  Name = ZINC38875933
REMARK  4 active torsions:
REMARK  status: ('A' for Active; 'I' for Inactive)
REMARK    1  A    between atoms: C_2  and  C_3
REMARK    2  A    between atoms: C_3  and  N_4
REMARK    3  A    between atoms: N_13  and  C_14
REMARK    4  A    between atoms: C_14  and  C_16
REMARK                            x       y       z     vdW  Elec       q    Type
REMARK                         _______ _______ _______ _____ _____    ______ ____
ROOT
ATOM      1  N   UNL     1       1.357   1.975  -0.000  0.00  0.00    -0.309 N 
ATOM      2  C   UNL     1       2.021   2.204   1.192  0.00  0.00    +0.062 A 
ATOM      3  C   UNL     1       1.567   2.018   2.505  0.00  0.00    +0.076 A 
ATOM      4  C   UNL     1       2.382   2.304   3.582  0.00  0.00    +0.168 A 
ATOM      5  C   UNL     1       3.677   2.785   3.385  0.00  0.00    +0.167 A 
ATOM      6  C   UNL     1       4.144   2.974   2.095  0.00  0.00    +0.066 A 
ATOM      7  C   UNL     1       3.326   2.687   1.028  0.00  0.00    +0.043 A 
ATOM      8  S   UNL     1       3.504   2.777  -0.735  0.00  0.00    -0.052 S 
ATOM      9  C   UNL     1       1.984   2.216  -1.179  0.00  0.00    +0.167 A 
ATOM     10  N   UNL     1       1.502   2.048  -2.409  0.00  0.00    -0.156 NA
ATOM     11  O   UNL     1       4.261   2.985   4.601  0.00  0.00    -0.453 OA
ATOM     12  C   UNL     1       3.177   3.012   5.548  0.00  0.00    +0.466 C 
ATOM     13  O   UNL     1       2.160   2.204   4.928  0.00  0.00    -0.453 OA
ENDROOT
BRANCH  10  14
ATOM     14  C   UNL     1       2.258   2.336  -3.463  0.00  0.00    +0.241 C 
ATOM     15  O   UNL     1       3.390   2.753  -3.304  0.00  0.00    -0.273 OA
BRANCH  14  16
ATOM     16  C   UNL     1       1.714   2.146  -4.855  0.00  0.00    +0.077 C 
ATOM     17  C   UNL     1       1.816   0.699  -5.365  0.00  0.00    +0.013 C 
ATOM     18  C   UNL     1       2.205   1.290  -6.730  0.00  0.00    +0.001 C 
ATOM     19  C   UNL     1       2.711   2.523  -5.964  0.00  0.00    +0.013 C 
ENDBRANCH  14  16
ENDBRANCH  10  14
BRANCH   1  20
ATOM     20  C   UNL     1      -0.018   1.468   0.010  0.00  0.00    +0.212 C 
BRANCH  20  22
ATOM     21  C   UNL     1       0.018  -1.178  -0.004  0.00  0.00    +0.005 C 
ATOM     22  C   UNL     1       0.002  -0.004   0.002  0.00  0.00    -0.084 C 
ENDBRANCH  20  22
ENDBRANCH   1  20
TORSDOF 4
