REMARK  Name = ZINC21916264
REMARK  9 active torsions:
REMARK  status: ('A' for Active; 'I' for Inactive)
REMARK    1  A    between atoms: C_1  and  C_2
REMARK    2  A    between atoms: C_2  and  C_3
REMARK    3  A    between atoms: N_9  and  C_10
REMARK    4  A    between atoms: C_10  and  C_11
REMARK    5  A    between atoms: C_11  and  C_12
REMARK    6  A    between atoms: C_12  and  N_13
REMARK    7  A    between atoms: C_14  and  C_16
REMARK    8  A    between atoms: C_16  and  C_17
REMARK    9  A    between atoms: C_20  and  N_23
REMARK                            x       y       z     vdW  Elec       q    Type
REMARK                         _______ _______ _______ _____ _____    ______ ____
ROOT
ATOM      1  C   UNL     1       6.551   9.767  -3.203  0.00  0.00    -0.039 A 
ATOM      2  C   UNL     1       7.325  10.318  -2.199  0.00  0.00    +0.006 A 
ATOM      3  C   UNL     1       8.479  11.010  -2.515  0.00  0.00    +0.023 A 
ATOM      4  C   UNL     1       8.854  11.159  -3.844  0.00  0.00    +0.035 A 
ATOM      5  C   UNL     1       8.071  10.609  -4.850  0.00  0.00    +0.023 A 
ATOM      6  C   UNL     1       6.922   9.915  -4.527  0.00  0.00    +0.006 A 
ENDROOT
BRANCH   4   7
ATOM      7  N   UNL     1      10.019  11.864  -4.168  0.00  0.00    -0.269 N 
ATOM      8  C   UNL     1      10.067  12.605  -5.293  0.00  0.00    +0.311 C 
ATOM      9  O   UNL     1       9.128  12.599  -6.066  0.00  0.00    -0.252 OA
ATOM     10  N   UNL     1      11.156  13.352  -5.561  0.00  0.00    -0.255 N 
ATOM     11  C   UNL     1      11.233  14.170  -6.783  0.00  0.00    +0.115 C 
ATOM     12  C   UNL     1      10.832  15.596  -6.486  0.00  0.00    +0.020 C 
ATOM     13  C   UNL     1      11.769  16.305  -5.519  0.00  0.00    +0.006 C 
ATOM     14  C   UNL     1      11.642  15.736  -4.109  0.00  0.00    +0.037 C 
ATOM     15  C   UNL     1      12.548  14.524  -3.977  0.00  0.00    -0.026 A 
ATOM     16  C   UNL     1      12.246  13.380  -4.685  0.00  0.00    +0.041 A 
ATOM     17  C   UNL     1      13.044  12.246  -4.537  0.00  0.00    +0.024 A 
ATOM     18  C   UNL     1      14.142  12.289  -3.699  0.00  0.00    +0.002 A 
ATOM     19  C   UNL     1      14.451  13.449  -3.013  0.00  0.00    +0.000 A 
ATOM     20  C   UNL     1      13.651  14.570  -3.151  0.00  0.00    +0.005 A 
ATOM     21  H   UNL     1      10.895  11.813  -3.505  0.00  0.00    +0.156 HD
ENDBRANCH   4   7
BRANCH   1  22
ATOM     22  C   UNL     1       5.296   9.009  -2.854  0.00  0.00    +0.130 C 
BRANCH  22  24
ATOM     23  N   UNL     1       4.653   6.676  -2.342  0.00  0.00    -0.315 N 
ATOM     24  C   UNL     1       5.627   7.551  -2.662  0.00  0.00    +0.217 C 
ATOM     25  O   UNL     1       6.769   7.166  -2.795  0.00  0.00    -0.275 OA
ATOM     26  H   UNL     1       3.617   7.025  -2.221  0.00  0.00    +0.149 HD
BRANCH  23  27
ATOM     27  C   UNL     1       4.974   5.259  -2.155  0.00  0.00    +0.102 C 
BRANCH  27  28
ATOM     28  C   UNL     1       3.700   4.489  -1.800  0.00  0.00    +0.000 C 
BRANCH  28  29
ATOM     29  C   UNL     1       4.036   3.009  -1.605  0.00  0.00    -0.077 C 
BRANCH  29  35
ATOM     30  C   UNL     1       3.031   0.821  -1.357  0.00  0.00    -0.069 C 
ATOM     31  C   UNL     1       1.704   0.090  -1.140  0.00  0.00    -0.015 C 
ATOM     32  C   UNL     1       1.146   0.454   0.239  0.00  0.00    -0.003 C 
ATOM     33  C   UNL     1       0.974   1.973   0.326  0.00  0.00    -0.019 C 
ATOM     34  C   UNL     1       2.322   2.650   0.066  0.00  0.00    -0.078 C 
ATOM     35  N   UNL     1       2.813   2.271  -1.265  0.00  0.00    +0.382 N 
ATOM     36  H   UNL     1       2.038   2.540  -1.998  0.00  0.00    -0.081 HD
BRANCH  30  38
ATOM     37  C   UNL     1       2.627   0.999  -3.817  0.00  0.00    +0.002 C 
ATOM     38  C   UNL     1       3.582   0.476  -2.742  0.00  0.00    -0.019 C 
ENDBRANCH  30  38
ENDBRANCH  29  35
ENDBRANCH  28  29
ENDBRANCH  27  28
ENDBRANCH  23  27
ENDBRANCH  22  24
ENDBRANCH   1  22
TORSDOF 8
