REMARK  Name = ZINC66369914
REMARK  5 active torsions:
REMARK  status: ('A' for Active; 'I' for Inactive)
REMARK    1  A    between atoms: C_3  and  N_8
REMARK    2  A    between atoms: N_8  and  C_9
REMARK    3  A    between atoms: N_8  and  S_12
REMARK    4  A    between atoms: C_9  and  C_10
REMARK    5  A    between atoms: S_12  and  C_15
REMARK                            x       y       z     vdW  Elec       q    Type
REMARK                         _______ _______ _______ _____ _____    ______ ____
ROOT
ATOM      1  S   UNL     1       4.978   1.391  -0.529  0.00  0.00    +0.078 S 
ATOM      2  O   UNL     1       6.044   2.024   0.165  0.00  0.00    -0.150 OA
ATOM      3  O   UNL     1       4.749  -0.009  -0.461  0.00  0.00    -0.150 OA
ENDROOT
BRANCH   1   4
ATOM      4  C   UNL     1       5.183   1.786  -2.234  0.00  0.00    +0.135 A 
ATOM      5  C   UNL     1       6.172   2.515  -2.773  0.00  0.00    +0.114 A 
ATOM      6  N   UNL     1       5.998   2.609  -4.128  0.00  0.00    -0.344 N 
ATOM      7  H   UNL     1       6.588   3.086  -4.732  0.00  0.00    +0.167 HD
ATOM      8  C   UNL     1       4.867   1.927  -4.505  0.00  0.00    +0.140 A 
ATOM      9  C   UNL     1       4.309   1.375  -3.335  0.00  0.00    +0.045 A 
ATOM     10  C   UNL     1       3.140   0.616  -3.422  0.00  0.00    +0.015 A 
ATOM     11  C   UNL     1       2.576   0.434  -4.671  0.00  0.00    +0.020 A 
ATOM     12  C   UNL     1       3.181   1.002  -5.781  0.00  0.00    +0.113 A 
ATOM     13  N   UNL     1       4.279   1.721  -5.676  0.00  0.00    -0.237 NA
ENDBRANCH   1   4
BRANCH   1  14
ATOM     14  N   UNL     1       3.582   2.124  -0.021  0.00  0.00    -0.189 N 
BRANCH  14  17
ATOM     15  C   UNL     1       1.095  -0.454   0.804  0.00  0.00    +0.003 A 
ATOM     16  C   UNL     1       2.280   0.256   0.780  0.00  0.00    +0.025 A 
ATOM     17  C   UNL     1       2.385   1.404   0.005  0.00  0.00    +0.054 A 
ATOM     18  C   UNL     1       1.297   1.835  -0.744  0.00  0.00    +0.044 A 
ATOM     19  C   UNL     1       0.115   1.121  -0.715  0.00  0.00    +0.043 A 
ATOM     20  C   UNL     1       0.014  -0.023   0.058  0.00  0.00    +0.020 A 
ATOM     21 CL   UNL     1      -1.246   1.659  -1.649  0.00  0.00    -0.083 Cl
ENDBRANCH  14  17
BRANCH  14  22
ATOM     22  C   UNL     1       3.602   3.527   0.401  0.00  0.00    +0.249 C 
BRANCH  22  23
ATOM     23  C   UNL     1       3.756   3.597   1.863  0.00  0.00    +0.083 C 
ATOM     24  N   UNL     1       3.874   3.651   2.991  0.00  0.00    -0.195 NA
ENDBRANCH  22  23
ENDBRANCH  14  22
ENDBRANCH   1  14
TORSDOF 5
