REMARK  Name = ZINC39596196
REMARK  8 active torsions:
REMARK  status: ('A' for Active; 'I' for Inactive)
REMARK    1  A    between atoms: C_4  and  C_7
REMARK    2  A    between atoms: N_9  and  C_10
REMARK    3  A    between atoms: C_13  and  C_16
REMARK    4  A    between atoms: C_16  and  C_17
REMARK    5  A    between atoms: C_17  and  C_18
REMARK    6  A    between atoms: N_20  and  C_21
REMARK    7  A    between atoms: C_21  and  C_22
REMARK    8  A    between atoms: C_22  and  C_23
REMARK                            x       y       z     vdW  Elec       q    Type
REMARK                         _______ _______ _______ _____ _____    ______ ____
ROOT
ATOM      1  C   UNL     1       4.248  -6.689  -1.113  0.00  0.00    +0.101 C 
ENDROOT
BRANCH   1   2
ATOM      2  C   UNL     1       4.054  -8.156  -1.394  0.00  0.00    +0.213 C 
ATOM      3  O   UNL     1       4.604  -8.985  -0.700  0.00  0.00    -0.276 OA
ATOM      4  N   UNL     1       3.270  -8.549  -2.418  0.00  0.00    -0.315 N 
ATOM      5  H   UNL     1       2.830  -7.886  -2.974  0.00  0.00    +0.149 HD
BRANCH   4   6
ATOM      6  C   UNL     1       3.082  -9.976  -2.691  0.00  0.00    +0.109 C 
BRANCH   6   7
ATOM      7  C   UNL     1       2.154 -10.146  -3.896  0.00  0.00    +0.056 C 
BRANCH   7   8
ATOM      8  C   UNL     1       1.961 -11.614  -4.177  0.00  0.00    -0.021 A 
ATOM      9  C   UNL     1       0.982 -12.501  -3.544  0.00  0.00    +0.003 A 
ATOM     10  C   UNL     1      -0.003 -12.322  -2.571  0.00  0.00    +0.010 A 
ATOM     11  C   UNL     1      -0.776 -13.380  -2.185  0.00  0.00    +0.001 A 
ATOM     12  C   UNL     1      -0.589 -14.633  -2.752  0.00  0.00    +0.002 A 
ATOM     13  C   UNL     1       0.377 -14.832  -3.714  0.00  0.00    +0.026 A 
ATOM     14  C   UNL     1       1.175 -13.769  -4.123  0.00  0.00    +0.047 A 
ATOM     15  N   UNL     1       2.197 -13.647  -5.037  0.00  0.00    -0.360 N 
ATOM     16  C   UNL     1       2.649 -12.355  -5.060  0.00  0.00    +0.087 A 
ATOM     17  H   UNL     1       2.543 -14.368  -5.586  0.00  0.00    +0.165 HD
ENDBRANCH   7   8
ENDBRANCH   6   7
ENDBRANCH   4   6
ENDBRANCH   1   2
BRANCH   1  18
ATOM     18  C   UNL     1       5.175  -6.518   0.092  0.00  0.00    +0.060 C 
BRANCH  18  21
ATOM     19  C   UNL     1       4.997  -2.744  -0.061  0.00  0.00    +0.251 C 
ATOM     20  N   UNL     1       4.805  -4.182  -0.339  0.00  0.00    -0.259 NA
ATOM     21  C   UNL     1       5.369  -5.050   0.373  0.00  0.00    +0.027 C 
ATOM     22  C   UNL     1       6.251  -4.591   1.525  0.00  0.00    +0.123 C 
ATOM     23  S   UNL     1       5.742  -2.817   1.627  0.00  0.00    -0.110 S 
BRANCH  19  26
ATOM     24  C   UNL     1       3.696  -0.685  -0.037  0.00  0.00    +0.246 C 
ATOM     25  O   UNL     1       4.738  -0.060  -0.044  0.00  0.00    -0.270 OA
ATOM     26  N   UNL     1       3.717  -2.032  -0.045  0.00  0.00    -0.281 N 
ATOM     27  H   UNL     1       2.885  -2.531  -0.039  0.00  0.00    +0.152 HD
BRANCH  24  31
ATOM     28  C   UNL     1      -0.017   1.379   0.010  0.00  0.00    +0.000 A 
ATOM     29  C   UNL     1       1.168   2.094   0.002  0.00  0.00    +0.001 A 
ATOM     30  C   UNL     1       2.377   1.429  -0.013  0.00  0.00    +0.013 A 
ATOM     31  C   UNL     1       2.403   0.034  -0.021  0.00  0.00    +0.037 A 
ATOM     32  C   UNL     1       1.204  -0.681  -0.013  0.00  0.00    +0.013 A 
ATOM     33  C   UNL     1       0.002  -0.004   0.002  0.00  0.00    +0.001 A 
ENDBRANCH  24  31
ENDBRANCH  19  26
ENDBRANCH  18  21
ENDBRANCH   1  18
TORSDOF 8
