REMARK  Name = ZINC43118036
REMARK  4 active torsions:
REMARK  status: ('A' for Active; 'I' for Inactive)
REMARK    1  A    between atoms: C_1  and  C_2
REMARK    2  A    between atoms: N_14  and  C_15
REMARK    3  A    between atoms: C_18  and  S_21
REMARK    4  A    between atoms: S_21  and  C_22
REMARK                            x       y       z     vdW  Elec       q    Type
REMARK                         _______ _______ _______ _____ _____    ______ ____
ROOT
ATOM      1  C   UNL     1      -1.159   1.228   1.428  0.00  0.00    +0.033 C 
ATOM      2  C   UNL     1      -0.789  -0.177   0.947  0.00  0.00    +0.105 C 
ATOM      3  C   UNL     1      -1.899  -1.159   1.318  0.00  0.00    -0.017 A 
ATOM      4  C   UNL     1      -3.250  -0.908   1.084  0.00  0.00    +0.013 A 
ATOM      5  C   UNL     1      -4.179  -1.827   1.436  0.00  0.00    +0.046 A 
ATOM      6  S   UNL     1      -3.168  -3.125   2.132  0.00  0.00    -0.101 S 
ATOM      7  C   UNL     1      -1.590  -2.347   1.905  0.00  0.00    -0.004 A 
ATOM      8  C   UNL     1      -0.238  -2.865   2.275  0.00  0.00    +0.062 C 
ATOM      9  C   UNL     1       0.825  -2.040   1.533  0.00  0.00    +0.115 C 
ATOM     10  N   UNL     1       0.445  -0.621   1.608  0.00  0.00    -0.278 N 
ATOM     11  C   UNL     1       1.218   0.259   2.275  0.00  0.00    +0.307 C 
ATOM     12  O   UNL     1       0.854   1.412   2.403  0.00  0.00    -0.252 OA
ATOM     13  N   UNL     1       2.393  -0.139   2.800  0.00  0.00    -0.269 N 
ATOM     14  H   UNL     1       2.721  -1.036   2.631  0.00  0.00    +0.156 HD
ENDROOT
BRANCH  13  15
ATOM     15  C   UNL     1       3.143   0.744   3.590  0.00  0.00    +0.035 A 
ATOM     16  C   UNL     1       3.137   2.103   3.309  0.00  0.00    +0.024 A 
ATOM     17  C   UNL     1       3.874   2.973   4.087  0.00  0.00    +0.017 A 
ATOM     18  C   UNL     1       4.623   2.487   5.152  0.00  0.00    +0.013 A 
ATOM     19  C   UNL     1       4.629   1.127   5.433  0.00  0.00    +0.017 A 
ATOM     20  C   UNL     1       3.887   0.259   4.658  0.00  0.00    +0.024 A 
BRANCH  18  21
ATOM     21  S   UNL     1       5.565   3.596   6.146  0.00  0.00    -0.056 S 
BRANCH  21  22
ATOM     22  C   UNL     1       6.351   2.522   7.378  0.00  0.00    +0.404 C 
ATOM     23  F   UNL     1       5.365   1.861   8.117  0.00  0.00    -0.197 F 
ATOM     24  F   UNL     1       7.158   1.581   6.729  0.00  0.00    -0.197 F 
ENDBRANCH  21  22
ENDBRANCH  18  21
ENDBRANCH  13  15
TORSDOF 3
