REMARK  Name = ZINC43737227
REMARK  11 active torsions:
REMARK  status: ('A' for Active; 'I' for Inactive)
REMARK    1  A    between atoms: C_1  and  C_2
REMARK    2  A    between atoms: C_2  and  O_4
REMARK    3  A    between atoms: O_4  and  C_5
REMARK    4  A    between atoms: C_16  and  C_35
REMARK    5  A    between atoms: C_19  and  C_34
REMARK    6  A    between atoms: C_20  and  C_33
REMARK    7  A    between atoms: C_23  and  C_32
REMARK    8  A    between atoms: C_27  and  C_30
REMARK    9  A    between atoms: C_27  and  C_31
REMARK   10  A    between atoms: C_36  and  C_37
REMARK   11  A    between atoms: C_36  and  C_38
REMARK                            x       y       z     vdW  Elec       q    Type
REMARK                         _______ _______ _______ _____ _____    ______ ____
ROOT
ATOM      1  C   UNL     1       0.588  -2.139   0.530  0.00  0.00    +0.186 C 
ATOM      2  C   UNL     1       0.399  -2.589   1.975  0.00  0.00    +0.046 C 
ATOM      3  C   UNL     1       0.472  -4.123   2.016  0.00  0.00    +0.012 C 
ATOM      4  C   UNL     1      -0.727  -4.670   1.248  0.00  0.00    +0.022 C 
ATOM      5  C   UNL     1      -0.710  -4.167  -0.172  0.00  0.00    -0.061 C 
ATOM      6  C   UNL     1      -0.897  -4.950  -1.196  0.00  0.00    -0.026 C 
ATOM      7  C   UNL     1      -1.169  -6.432  -1.072  0.00  0.00    +0.031 C 
ATOM      8  C   UNL     1      -1.790  -6.677   0.304  0.00  0.00    +0.006 C 
ATOM      9  C   UNL     1      -0.813  -6.192   1.365  0.00  0.00    -0.022 C 
ATOM     10  C   UNL     1      -1.282  -6.549   2.774  0.00  0.00    +0.008 C 
ATOM     11  C   UNL     1      -1.721  -8.005   2.887  0.00  0.00    +0.008 C 
ATOM     12  C   UNL     1      -2.841  -8.307   1.881  0.00  0.00    -0.023 C 
ATOM     13  C   UNL     1      -2.277  -8.103   0.470  0.00  0.00    -0.023 C 
ATOM     14  C   UNL     1      -3.400  -8.391  -0.538  0.00  0.00    +0.008 C 
ATOM     15  C   UNL     1      -3.831  -9.847  -0.428  0.00  0.00    +0.007 C 
ATOM     16  C   UNL     1      -4.300 -10.204   0.984  0.00  0.00    -0.029 C 
ATOM     17  C   UNL     1      -3.334  -9.737   2.056  0.00  0.00    +0.002 C 
ATOM     18  C   UNL     1      -3.846  -9.993   3.458  0.00  0.00    +0.011 C 
ATOM     19  C   UNL     1      -5.329 -10.034   3.719  0.00  0.00    -0.035 C 
ATOM     20  C   UNL     1      -6.265 -10.159   2.538  0.00  0.00    +0.007 C 
ATOM     21  C   UNL     1      -5.713  -9.692   1.207  0.00  0.00    +0.007 C 
ATOM     22  C   UNL     1      -5.738  -8.793   4.543  0.00  0.00    +0.011 C 
ATOM     23  C   UNL     1      -5.599 -11.254   4.642  0.00  0.00    +0.011 C 
ATOM     24  C   UNL     1      -4.345 -11.753   1.039  0.00  0.00    +0.011 C 
ATOM     25  C   UNL     1      -1.151  -9.105   0.194  0.00  0.00    +0.012 C 
ATOM     26  C   UNL     1      -3.971  -7.306   2.139  0.00  0.00    +0.012 C 
ATOM     27  C   UNL     1       0.592  -6.760   1.157  0.00  0.00    +0.012 C 
ATOM     28  C   UNL     1      -0.522  -2.676  -0.377  0.00  0.00    +0.023 C 
ATOM     29  C   UNL     1      -1.837  -1.952  -0.055  0.00  0.00    +0.019 C 
ATOM     30  C   UNL     1      -0.136  -2.350  -1.826  0.00  0.00    +0.019 C 
ENDROOT
BRANCH   1  31
ATOM     31  O   UNL     1       0.588  -0.708   0.474  0.00  0.00    -0.461 OA
BRANCH  31  33
ATOM     32  C   UNL     1       1.850   1.412   0.578  0.00  0.00    +0.136 C 
ATOM     33  C   UNL     1       1.772  -0.093   0.625  0.00  0.00    +0.304 C 
ATOM     34  O   UNL     1       2.774  -0.745   0.800  0.00  0.00    -0.251 OA
ENDBRANCH  31  33
ENDBRANCH   1  31
TORSDOF 2
