REMARK  Name = ZINC36692807
REMARK  15 active torsions:
REMARK  status: ('A' for Active; 'I' for Inactive)
REMARK    1  A    between atoms: C_1  and  C_2
REMARK    2  A    between atoms: C_2  and  N_3
REMARK    3  A    between atoms: N_3  and  C_4
REMARK    4  A    between atoms: N_3  and  C_6
REMARK    5  A    between atoms: C_4  and  C_5
REMARK    6  A    between atoms: C_6  and  C_8
REMARK    7  A    between atoms: C_6  and  C_30
REMARK    8  A    between atoms: C_8  and  N_9
REMARK    9  A    between atoms: C_10  and  C_12
REMARK   10  A    between atoms: C_12  and  C_14
REMARK   11  A    between atoms: C_12  and  S_15
REMARK   12  A    between atoms: S_15  and  C_16
REMARK   13  A    between atoms: C_16  and  C_17
REMARK   14  A    between atoms: C_23  and  C_29
REMARK   15  A    between atoms: C_24  and  C_28
REMARK                            x       y       z     vdW  Elec       q    Type
REMARK                         _______ _______ _______ _____ _____    ______ ____
ROOT
ATOM      1  N   UNL     1       1.445   0.827  -0.986  0.00  0.00    -0.316 N 
ATOM      2  C   UNL     1       2.357   1.817  -1.054  0.00  0.00    +0.226 C 
ATOM      3  O   UNL     1       3.061   1.926  -2.035  0.00  0.00    -0.275 OA
ATOM      4  H   UNL     1       0.833   0.782  -0.234  0.00  0.00    +0.149 HD
ENDROOT
BRANCH   2   5
ATOM      5  C   UNL     1       2.502   2.787   0.090  0.00  0.00    +0.129 C 
ATOM      6  C   UNL     1       1.378   3.823   0.026  0.00  0.00    +0.029 C 
BRANCH   5   7
ATOM      7  S   UNL     1       4.106   3.627  -0.029  0.00  0.00    -0.141 S 
BRANCH   7   8
ATOM      8  C   UNL     1       4.189   4.631   1.479  0.00  0.00    +0.144 C 
BRANCH   8   9
ATOM      9  C   UNL     1       5.490   5.391   1.506  0.00  0.00    +0.121 A 
ATOM     10  N   UNL     1       5.765   6.206   2.557  0.00  0.00    -0.310 N 
ATOM     11  H   UNL     1       5.119   6.288   3.276  0.00  0.00    +0.170 HD
ATOM     12  C   UNL     1       6.915   6.902   2.620  0.00  0.00    +0.260 A 
ATOM     13  O   UNL     1       7.147   7.629   3.571  0.00  0.00    -0.267 OA
ATOM     14  C   UNL     1       7.863   6.774   1.553  0.00  0.00    +0.075 A 
ATOM     15  C   UNL     1       9.157   7.410   1.391  0.00  0.00    -0.026 A 
ATOM     16  C   UNL     1       9.887   7.141   0.297  0.00  0.00    -0.008 A 
ATOM     17  S   UNL     1       8.867   5.992  -0.608  0.00  0.00    -0.073 S 
ATOM     18  C   UNL     1       7.491   5.908   0.510  0.00  0.00    +0.116 A 
ATOM     19  N   UNL     1       6.336   5.249   0.521  0.00  0.00    -0.226 NA
ATOM     20  C   UNL     1      11.244   7.680  -0.078  0.00  0.00    +0.052 C 
ATOM     21  C   UNL     1       9.676   8.362   2.438  0.00  0.00    +0.045 C 
ENDBRANCH   8   9
ENDBRANCH   7   8
ENDBRANCH   5   7
ENDBRANCH   2   5
BRANCH   1  22
ATOM     22  C   UNL     1       1.377  -0.181  -2.046  0.00  0.00    +0.093 C 
BRANCH  22  23
ATOM     23  C   UNL     1       0.186  -1.108  -1.794  0.00  0.00    -0.020 C 
BRANCH  23  24
ATOM     24  C   UNL     1       0.210  -2.239  -2.790  0.00  0.00    -0.059 A 
ATOM     25  C   UNL     1       1.405  -2.626  -3.368  0.00  0.00    +0.002 A 
ATOM     26  C   UNL     1       1.427  -3.663  -4.282  0.00  0.00    +0.000 A 
ATOM     27  C   UNL     1       0.254  -4.313  -4.618  0.00  0.00    +0.000 A 
ATOM     28  C   UNL     1      -0.941  -3.926  -4.040  0.00  0.00    +0.000 A 
ATOM     29  C   UNL     1      -0.962  -2.892  -3.123  0.00  0.00    +0.002 A 
ENDBRANCH  23  24
BRANCH  23  30
ATOM     30  N   UNL     1       0.270  -1.653  -0.433  0.00  0.00    +0.385 N 
ATOM     31  H   UNL     1       0.337  -0.895   0.230  0.00  0.00    -0.081 HD
BRANCH  30  33
ATOM     32  C   UNL     1      -2.156  -1.529  -0.125  0.00  0.00    -0.017 C 
ATOM     33  C   UNL     1      -0.933  -2.447  -0.148  0.00  0.00    -0.081 C 
ENDBRANCH  30  33
BRANCH  30  34
ATOM     34  C   UNL     1       1.459  -2.509  -0.320  0.00  0.00    -0.081 C 
ATOM     35  C   UNL     1       2.660  -1.659   0.101  0.00  0.00    -0.017 C 
ENDBRANCH  30  34
ENDBRANCH  23  30
ENDBRANCH  22  23
ENDBRANCH   1  22
TORSDOF 10
