REMARK  Name = ZINC34756945
REMARK  5 active torsions:
REMARK  status: ('A' for Active; 'I' for Inactive)
REMARK    1  A    between atoms: C_1  and  C_2
REMARK    2  A    between atoms: C_2  and  C_3
REMARK    3  A    between atoms: C_3  and  N_4
REMARK    4  A    between atoms: C_17  and  C_19
REMARK    5  A    between atoms: C_19  and  C_20
REMARK                            x       y       z     vdW  Elec       q    Type
REMARK                         _______ _______ _______ _____ _____    ______ ____
ROOT
ATOM      1  N   UNL     1       0.245  -2.732  -0.140  0.00  0.00    +0.382 N 
ATOM      2  C   UNL     1       0.416  -4.165   0.130  0.00  0.00    -0.060 C 
ATOM      3  C   UNL     1       1.085  -4.835  -1.075  0.00  0.00    +0.088 C 
ATOM      4  N   UNL     1       0.291  -4.533  -2.276  0.00  0.00    -0.318 N 
ATOM      5  C   UNL     1      -0.066  -3.130  -2.537  0.00  0.00    +0.088 C 
ATOM      6  C   UNL     1      -0.681  -2.541  -1.263  0.00  0.00    -0.060 C 
ATOM      7  C   UNL     1      -0.107  -5.540  -3.136  0.00  0.00    +0.133 A 
ATOM      8  C   UNL     1       0.751  -5.979  -4.181  0.00  0.00    +0.051 A 
ATOM      9  C   UNL     1       2.100  -5.497  -4.522  0.00  0.00    -0.025 A 
ATOM     10  C   UNL     1       2.707  -6.081  -5.567  0.00  0.00    -0.004 A 
ATOM     11  S   UNL     1       1.549  -7.294  -6.157  0.00  0.00    -0.073 S 
ATOM     12  C   UNL     1       0.243  -7.009  -4.994  0.00  0.00    +0.114 A 
ATOM     13  N   UNL     1      -0.955  -7.523  -4.787  0.00  0.00    -0.224 NA
ATOM     14  C   UNL     1      -1.708  -7.076  -3.801  0.00  0.00    +0.137 A 
ATOM     15  N   UNL     1      -1.292  -6.114  -2.996  0.00  0.00    -0.216 NA
ATOM     16  C   UNL     1       4.074  -5.505  -5.824  0.00  0.00    +0.043 C 
ATOM     17  C   UNL     1       4.082  -4.166  -5.054  0.00  0.00    +0.010 C 
ATOM     18  C   UNL     1       3.043  -4.435  -3.948  0.00  0.00    +0.037 C 
ATOM     19  H   UNL     1       1.140  -2.327  -0.371  0.00  0.00    -0.082 HD
ENDROOT
BRANCH   1  20
ATOM     20  C   UNL     1      -0.295  -2.071   1.056  0.00  0.00    -0.079 C 
BRANCH  20  22
ATOM     21  C   UNL     1       0.162  -1.473   3.438  0.00  0.00    +0.002 C 
ATOM     22  C   UNL     1       0.725  -2.161   2.193  0.00  0.00    -0.022 C 
ENDBRANCH  20  22
ENDBRANCH   1  20
BRANCH  14  23
ATOM     23  C   UNL     1      -3.072  -7.678  -3.585  0.00  0.00    +0.111 C 
BRANCH  23  24
ATOM     24  C   UNL     1      -2.960  -8.848  -2.641  0.00  0.00    -0.040 A 
ATOM     25  C   UNL     1      -2.727 -10.117  -3.138  0.00  0.00    +0.004 A 
ATOM     26  C   UNL     1      -2.625 -11.190  -2.272  0.00  0.00    +0.000 A 
ATOM     27  C   UNL     1      -2.756 -10.994  -0.910  0.00  0.00    +0.000 A 
ATOM     28  C   UNL     1      -2.988  -9.725  -0.413  0.00  0.00    +0.000 A 
ATOM     29  C   UNL     1      -3.086  -8.651  -1.279  0.00  0.00    +0.004 A 
ENDBRANCH  23  24
ENDBRANCH  14  23
TORSDOF 4
