REMARK  Name = ZINC15636168
REMARK  4 active torsions:
REMARK  status: ('A' for Active; 'I' for Inactive)
REMARK    1  A    between atoms: C_4  and  O_19
REMARK    2  A    between atoms: C_5  and  C_7
REMARK    3  A    between atoms: N_8  and  N_9
REMARK    4  A    between atoms: C_10  and  C_12
REMARK                            x       y       z     vdW  Elec       q    Type
REMARK                         _______ _______ _______ _____ _____    ______ ____
ROOT
ATOM      1  N   UNL     1       4.264   2.168  -0.990  0.00  0.00    -0.202 N 
ATOM      2  C   UNL     1       3.669   0.978  -1.204  0.00  0.00    +0.282 C 
ATOM      3  O   UNL     1       4.250  -0.053  -0.920  0.00  0.00    -0.267 OA
ATOM      4  H   UNL     1       3.802   2.990  -1.216  0.00  0.00    +0.178 HD
ENDROOT
BRANCH   2   5
ATOM      5  C   UNL     1       2.318   0.925  -1.781  0.00  0.00    +0.135 A 
ATOM      6  C   UNL     1       1.576  -0.211  -2.060  0.00  0.00    +0.063 A 
ATOM      7  C   UNL     1       0.371   0.256  -2.591  0.00  0.00    +0.149 A 
ATOM      8  N   UNL     1       0.421   1.563  -2.615  0.00  0.00    -0.181 NA
ATOM      9  N   UNL     1       1.541   1.988  -2.150  0.00  0.00    -0.272 N 
ATOM     10  H   UNL     1       1.804   2.949  -2.070  0.00  0.00    +0.189 HD
ATOM     11  I   UNL     1       2.141  -2.204  -1.750  0.00  0.00    -0.040 I 
ENDBRANCH   2   5
BRANCH   1  13
ATOM     12  C   UNL     1       6.083   3.362  -0.134  0.00  0.00    +0.142 C 
ATOM     13  N   UNL     1       5.552   2.218  -0.440  0.00  0.00    -0.187 NA
BRANCH  12  18
ATOM     14  C   UNL     1       3.107   5.633   0.116  0.00  0.00    +0.001 A 
ATOM     15  C   UNL     1       3.690   6.870  -0.097  0.00  0.00    +0.004 A 
ATOM     16  C   UNL     1       5.050   6.973  -0.323  0.00  0.00    +0.046 A 
ATOM     17  C   UNL     1       5.839   5.835  -0.337  0.00  0.00    +0.125 A 
ATOM     18  C   UNL     1       5.253   4.580  -0.121  0.00  0.00    +0.036 A 
ATOM     19  C   UNL     1       3.877   4.489   0.101  0.00  0.00    +0.013 A 
BRANCH  17  20
ATOM     20  O   UNL     1       7.175   5.934  -0.558  0.00  0.00    -0.506 OA
ATOM     21  H   UNL     1       7.432   5.802  -1.481  0.00  0.00    +0.292 HD
ENDBRANCH  17  20
ENDBRANCH  12  18
ENDBRANCH   1  13
TORSDOF 4
