REMARK  Name = ZINC38984042
REMARK  6 active torsions:
REMARK  status: ('A' for Active; 'I' for Inactive)
REMARK    1  A    between atoms: C_1  and  O_2
REMARK    2  A    between atoms: O_2  and  C_3
REMARK    3  A    between atoms: C_5  and  C_11
REMARK    4  A    between atoms: C_8  and  O_9
REMARK    5  A    between atoms: N_12  and  N_13
REMARK    6  A    between atoms: C_14  and  C_20
REMARK                            x       y       z     vdW  Elec       q    Type
REMARK                         _______ _______ _______ _____ _____    ______ ____
ROOT
ATOM      1  N   UNL     1       3.452   0.534  -6.295  0.00  0.00    -0.172 N 
ATOM      2  C   UNL     1       4.031   0.053  -7.562  0.00  0.00    +0.266 C 
ATOM      3  N   UNL     1       4.354   1.288  -8.293  0.00  0.00    -0.189 NA
ATOM      4  N   UNL     1       4.027   2.247  -7.589  0.00  0.00    -0.219 N 
ATOM      5  C   UNL     1       3.483   1.881  -6.398  0.00  0.00    +0.174 C 
ATOM      6  S   UNL     1       2.922   2.970  -5.201  0.00  0.00    -0.015 S 
ATOM      7  H   UNL     1       4.143   3.171  -7.861  0.00  0.00    +0.176 HD
ENDROOT
BRANCH   2   8
ATOM      8  C   UNL     1       3.025  -0.769  -8.325  0.00  0.00    +0.033 A 
ATOM      9  C   UNL     1       1.997  -1.403  -7.653  0.00  0.00    +0.010 A 
ATOM     10  C   UNL     1       1.074  -2.157  -8.352  0.00  0.00    +0.001 A 
ATOM     11  C   UNL     1       1.177  -2.279  -9.726  0.00  0.00    +0.003 A 
ATOM     12  C   UNL     1       2.203  -1.645 -10.400  0.00  0.00    +0.039 A 
ATOM     13  C   UNL     1       3.126  -0.885  -9.701  0.00  0.00    +0.130 A 
ATOM     14  F   UNL     1       4.126  -0.262 -10.361  0.00  0.00    -0.205 F 
ENDBRANCH   2   8
BRANCH   1  16
ATOM     15  C   UNL     1       2.588   0.349  -4.129  0.00  0.00    +0.138 C 
ATOM     16  N   UNL     1       2.971  -0.233  -5.225  0.00  0.00    -0.183 NA
BRANCH  15  19
ATOM     17  C   UNL     1       1.003  -0.572  -0.852  0.00  0.00    +0.163 A 
ATOM     18  C   UNL     1       1.570   0.178  -1.865  0.00  0.00    +0.059 A 
ATOM     19  C   UNL     1       1.983  -0.446  -3.046  0.00  0.00    -0.001 A 
ATOM     20  C   UNL     1       1.821  -1.826  -3.196  0.00  0.00    +0.028 A 
ATOM     21  C   UNL     1       1.254  -2.568  -2.181  0.00  0.00    +0.063 A 
ATOM     22  C   UNL     1       0.849  -1.948  -1.006  0.00  0.00    +0.173 A 
ATOM     23 BR   UNL     1       1.035  -4.435  -2.385  0.00  0.00    -0.046 Br
BRANCH  17  25
ATOM     24  C   UNL     1       0.788   1.446   0.387  0.00  0.00    +0.277 C 
ATOM     25  O   UNL     1       0.600   0.032   0.297  0.00  0.00    -0.491 OA
ENDBRANCH  17  25
BRANCH  22  26
ATOM     26  O   UNL     1       0.295  -2.684  -0.007  0.00  0.00    -0.503 OA
ATOM     27  H   UNL     1      -0.666  -2.769  -0.066  0.00  0.00    +0.292 HD
ENDBRANCH  22  26
ENDBRANCH  15  19
ENDBRANCH   1  16
TORSDOF 5
