REMARK  Name = ZINC04316974
REMARK  5 active torsions:
REMARK  status: ('A' for Active; 'I' for Inactive)
REMARK    1  A    between atoms: C_4  and  N_11
REMARK    2  A    between atoms: C_5  and  C_7
REMARK    3  A    between atoms: C_12  and  C_14
REMARK    4  A    between atoms: C_14  and  S_15
REMARK    5  A    between atoms: S_15  and  C_16
REMARK                            x       y       z     vdW  Elec       q    Type
REMARK                         _______ _______ _______ _____ _____    ______ ____
ROOT
ATOM      1  N   UNL     1       3.622  -0.651  -0.037  0.00  0.00    -0.284 N 
ATOM      2  C   UNL     1       4.775   0.037  -0.147  0.00  0.00    +0.227 C 
ATOM      3  O   UNL     1       4.761   1.250  -0.141  0.00  0.00    -0.275 OA
ATOM      4  H   UNL     1       3.639  -1.618   0.038  0.00  0.00    +0.155 HD
ENDROOT
BRANCH   1   8
ATOM      5  C   UNL     1      -0.019   1.375  -0.023  0.00  0.00    +0.001 A 
ATOM      6  C   UNL     1       1.087   1.947  -0.626  0.00  0.00    +0.002 A 
ATOM      7  C   UNL     1       2.295   1.278  -0.633  0.00  0.00    +0.024 A 
ATOM      8  C   UNL     1       2.399   0.030  -0.032  0.00  0.00    +0.045 A 
ATOM      9  C   UNL     1       1.287  -0.541   0.573  0.00  0.00    +0.076 A 
ATOM     10  C   UNL     1       0.082   0.133   0.576  0.00  0.00    +0.014 A 
BRANCH   9  11
ATOM     11  C   UNL     1       1.396  -1.895   1.226  0.00  0.00    +0.419 C 
ATOM     12  F   UNL     1       0.155  -2.255   1.761  0.00  0.00    -0.166 F 
ATOM     13  F   UNL     1       1.785  -2.842   0.273  0.00  0.00    -0.166 F 
ATOM     14  F   UNL     1       2.349  -1.845   2.249  0.00  0.00    -0.166 F 
ENDBRANCH   9  11
ENDBRANCH   1   8
BRANCH   2  15
ATOM     15  C   UNL     1       6.083  -0.701  -0.278  0.00  0.00    +0.171 C 
BRANCH  15  16
ATOM     16  S   UNL     1       7.441   0.494  -0.406  0.00  0.00    -0.096 S 
BRANCH  16  17
ATOM     17  C   UNL     1       8.881  -0.511  -0.551  0.00  0.00    +0.108 A 
ATOM     18  C   UNL     1      10.158   0.092  -0.668  0.00  0.00    +0.004 A 
ATOM     19  C   UNL     1      11.242  -0.698  -0.770  0.00  0.00    +0.026 A 
ATOM     20  N   UNL     1      11.076  -2.057  -0.771  0.00  0.00    -0.310 N 
ATOM     21  H   UNL     1      11.851  -2.635  -0.853  0.00  0.00    +0.170 HD
ATOM     22  C   UNL     1       9.852  -2.600  -0.660  0.00  0.00    +0.347 A 
ATOM     23  O   UNL     1       9.730  -3.814  -0.659  0.00  0.00    -0.245 OA
ATOM     24  N   UNL     1       8.771  -1.832  -0.546  0.00  0.00    -0.186 NA
ATOM     25  C   UNL     1      12.642  -0.157  -0.875  0.00  0.00    +0.054 C 
ATOM     26  C   UNL     1      12.621   1.313  -1.293  0.00  0.00    +0.006 C 
ATOM     27  C   UNL     1      11.655   2.063  -0.368  0.00  0.00    +0.005 C 
ATOM     28  C   UNL     1      10.234   1.595  -0.677  0.00  0.00    +0.039 C 
ENDBRANCH  16  17
ENDBRANCH  15  16
ENDBRANCH   2  15
TORSDOF 5
