REMARK  Name = ZINC22698851
REMARK  9 active torsions:
REMARK  status: ('A' for Active; 'I' for Inactive)
REMARK    1  A    between atoms: C_1  and  C_2
REMARK    2  A    between atoms: C_10  and  C_11
REMARK    3  A    between atoms: N_13  and  N_14
REMARK    4  A    between atoms: C_15  and  C_17
REMARK    5  A    between atoms: C_17  and  C_19
REMARK    6  A    between atoms: C_17  and  N_26
REMARK    7  A    between atoms: C_19  and  C_20
REMARK    8  A    between atoms: N_26  and  S_27
REMARK    9  A    between atoms: S_27  and  C_30
REMARK                            x       y       z     vdW  Elec       q    Type
REMARK                         _______ _______ _______ _____ _____    ______ ____
ROOT
ATOM      1  C   UNL     1       2.628   0.847  -0.086  0.00  0.00    +0.168 C 
ENDROOT
BRANCH   1   3
ATOM      2  N   UNL     1       0.161   0.987  -0.201  0.00  0.00    -0.233 N 
ATOM      3  C   UNL     1       1.343   1.632  -0.144  0.00  0.00    +0.248 C 
ATOM      4  O   UNL     1       1.372   2.845  -0.138  0.00  0.00    -0.273 OA
ATOM      5  H   UNL     1       0.134  -0.113  -0.202  0.00  0.00    +0.173 HD
BRANCH   2   8
ATOM      6  C   UNL     1      -2.215   1.072  -0.323  0.00  0.00    +0.296 C 
ATOM      7  O   UNL     1      -2.245  -0.144  -0.329  0.00  0.00    -0.265 OA
ATOM      8  N   UNL     1      -1.034   1.717  -0.260  0.00  0.00    -0.228 N 
ATOM      9  H   UNL     1      -1.007   2.817  -0.255  0.00  0.00    +0.173 HD
BRANCH   6  19
ATOM     10  C   UNL     1      -5.063  -0.168  -0.487  0.00  0.00    +0.048 C 
ATOM     11  C   UNL     1      -4.712   1.298  -0.456  0.00  0.00    +0.008 A 
ATOM     12  C   UNL     1      -5.642   2.425  -0.495  0.00  0.00    +0.024 A 
ATOM     13  C   UNL     1      -7.033   2.539  -0.566  0.00  0.00    +0.012 A 
ATOM     14  C   UNL     1      -7.611   3.776  -0.591  0.00  0.00    +0.001 A 
ATOM     15  C   UNL     1      -6.826   4.920  -0.547  0.00  0.00    +0.004 A 
ATOM     16  C   UNL     1      -5.453   4.830  -0.477  0.00  0.00    +0.047 A 
ATOM     17  C   UNL     1      -4.841   3.582  -0.450  0.00  0.00    +0.136 A 
ATOM     18  O   UNL     1      -3.556   3.185  -0.386  0.00  0.00    -0.450 OA
ATOM     19  C   UNL     1      -3.468   1.838  -0.385  0.00  0.00    +0.195 A 
ENDBRANCH   6  19
ENDBRANCH   2   8
ENDBRANCH   1   3
BRANCH   1  20
ATOM     20  N   UNL     1       3.763   1.771  -0.030  0.00  0.00    -0.178 NA
ATOM     21  H   UNL     1       4.294   2.046  -0.953  0.00  0.00    +0.149 HD
BRANCH  20  22
ATOM     22  S   UNL     1       4.404   2.207   1.433  0.00  0.00    +0.062 S 
ATOM     23  O   UNL     1       5.469   3.106   1.158  0.00  0.00    -0.153 OA
ATOM     24  O   UNL     1       3.308   2.557   2.268  0.00  0.00    -0.153 OA
BRANCH  22  25
ATOM     25  C   UNL     1       5.131   0.764   2.135  0.00  0.00    +0.140 A 
ATOM     26  C   UNL     1       6.507   0.645   2.200  0.00  0.00    +0.031 A 
ATOM     27  C   UNL     1       7.078  -0.485   2.756  0.00  0.00    +0.002 A 
ATOM     28  C   UNL     1       6.274  -1.502   3.236  0.00  0.00    +0.003 A 
ATOM     29  C   UNL     1       4.898  -1.388   3.166  0.00  0.00    +0.040 A 
ATOM     30  C   UNL     1       4.325  -0.254   2.615  0.00  0.00    +0.150 A 
ATOM     31  F   UNL     1       2.981  -0.142   2.545  0.00  0.00    -0.203 F 
ENDBRANCH  22  25
ENDBRANCH  20  22
ENDBRANCH   1  20
BRANCH   1  32
ATOM     32  C   UNL     1       2.745  -0.030  -1.334  0.00  0.00    +0.065 C 
BRANCH  32  33
ATOM     33  C   UNL     1       3.993  -0.871  -1.242  0.00  0.00    -0.045 A 
ATOM     34  C   UNL     1       5.205  -0.359  -1.665  0.00  0.00    +0.004 A 
ATOM     35  C   UNL     1       6.349  -1.128  -1.576  0.00  0.00    +0.000 A 
ATOM     36  C   UNL     1       6.281  -2.414  -1.073  0.00  0.00    +0.000 A 
ATOM     37  C   UNL     1       5.068  -2.928  -0.654  0.00  0.00    +0.000 A 
ATOM     38  C   UNL     1       3.924  -2.157  -0.739  0.00  0.00    +0.004 A 
ENDBRANCH  32  33
ENDBRANCH   1  32
TORSDOF 8
