REMARK  Name = ZINC05081877
REMARK  9 active torsions:
REMARK  status: ('A' for Active; 'I' for Inactive)
REMARK    1  A    between atoms: C_1  and  C_2
REMARK    2  A    between atoms: C_2  and  C_3
REMARK    3  A    between atoms: C_2  and  C_4
REMARK    4  A    between atoms: C_4  and  C_5
REMARK    5  A    between atoms: C_5  and  S_6
REMARK    6  A    between atoms: S_6  and  C_7
REMARK    7  A    between atoms: C_12  and  N_16
REMARK    8  A    between atoms: C_13  and  N_15
REMARK    9  A    between atoms: C_17  and  C_19
REMARK                            x       y       z     vdW  Elec       q    Type
REMARK                         _______ _______ _______ _____ _____    ______ ____
ROOT
ATOM      1  C   UNL     1       1.136   2.045  -0.007  0.00  0.00    +0.171 A 
ATOM      2  N   UNL     1      -0.029   1.340   0.010  0.00  0.00    -0.300 N 
ATOM      3  H   UNL     1      -0.904   1.824   0.025  0.00  0.00    +0.171 HD
ATOM      4  C   UNL     1      -0.006  -0.009   0.005  0.00  0.00    +0.275 A 
ATOM      5  O   UNL     1      -1.046  -0.649   0.020  0.00  0.00    -0.266 OA
ATOM      6  C   UNL     1       1.235  -0.664  -0.016  0.00  0.00    +0.139 A 
ATOM      7  C   UNL     1       2.394   0.105  -0.033  0.00  0.00    +0.146 A 
ATOM      8  N   UNL     1       2.305   1.440  -0.028  0.00  0.00    -0.207 NA
ENDROOT
BRANCH   6   9
ATOM      9  N   UNL     1       1.305  -2.070  -0.021  0.00  0.00    -0.274 N 
ATOM     10  C   UNL     1       0.762  -2.775   0.991  0.00  0.00    +0.248 C 
ATOM     11  O   UNL     1       0.138  -2.203   1.865  0.00  0.00    -0.270 OA
ATOM     12  H   UNL     1       1.743  -2.531  -0.753  0.00  0.00    +0.155 HD
BRANCH  10  13
ATOM     13  C   UNL     1       0.925  -4.243   1.040  0.00  0.00    +0.037 A 
ATOM     14  C   UNL     1       1.637  -4.903   0.036  0.00  0.00    +0.014 A 
ATOM     15  C   UNL     1       1.791  -6.272   0.091  0.00  0.00    +0.021 A 
ATOM     16  C   UNL     1       1.232  -6.994   1.132  0.00  0.00    +0.041 A 
ATOM     17  C   UNL     1       0.520  -6.346   2.128  0.00  0.00    +0.021 A 
ATOM     18  C   UNL     1       0.364  -4.976   2.088  0.00  0.00    +0.014 A 
ATOM     19 CL   UNL     1       1.424  -8.718   1.190  0.00  0.00    -0.084 Cl
ENDBRANCH  10  13
ENDBRANCH   6   9
BRANCH   7  20
ATOM     20  N   UNL     1       3.634  -0.509  -0.054  0.00  0.00    -0.341 N 
ATOM     21  H   UNL     1       3.696  -1.477  -0.058  0.00  0.00    +0.144 HD
ATOM     22  H   UNL     1       4.441   0.029  -0.066  0.00  0.00    +0.144 HD
ENDBRANCH   7  20
BRANCH   1  23
ATOM     23  S   UNL     1       1.078   3.806  -0.001  0.00  0.00    -0.088 S 
BRANCH  23  24
ATOM     24  C   UNL     1       2.849   4.179  -0.029  0.00  0.00    +0.077 C 
BRANCH  24  25
ATOM     25  C   UNL     1       3.051   5.696  -0.028  0.00  0.00    +0.014 C 
BRANCH  25  27
ATOM     26  C   UNL     1       5.152   5.523  -1.370  0.00  0.00    +0.007 C 
ATOM     27  C   UNL     1       4.548   6.011  -0.051  0.00  0.00    -0.016 C 
ATOM     28  C   UNL     1       4.753   7.522   0.076  0.00  0.00    +0.007 C 
ENDBRANCH  25  27
ENDBRANCH  24  25
ENDBRANCH  23  24
ENDBRANCH   1  23
TORSDOF 7
