REMARK  Name = ZINC63375182
REMARK  7 active torsions:
REMARK  status: ('A' for Active; 'I' for Inactive)
REMARK    1  A    between atoms: C_1  and  O_2
REMARK    2  A    between atoms: O_2  and  C_3
REMARK    3  A    between atoms: C_6  and  C_11
REMARK    4  A    between atoms: C_8  and  O_9
REMARK    5  A    between atoms: O_9  and  C_10
REMARK    6  A    between atoms: C_11  and  N_12
REMARK    7  A    between atoms: C_13  and  C_15
REMARK                            x       y       z     vdW  Elec       q    Type
REMARK                         _______ _______ _______ _____ _____    ______ ____
ROOT
ATOM      1  C   UNL     1      -7.061  -3.697  -2.999  0.00  0.00    +0.167 C 
ATOM      2  C   UNL     1      -7.212  -2.346  -3.724  0.00  0.00    +0.065 C 
ATOM      3  C   UNL     1      -8.667  -2.204  -4.094  0.00  0.00    -0.034 C 
ATOM      4  C   UNL     1      -9.238  -1.916  -5.261  0.00  0.00    -0.001 A 
ATOM      5  C   UNL     1      -8.663  -1.546  -6.564  0.00  0.00    +0.010 A 
ATOM      6  C   UNL     1      -9.551  -1.331  -7.570  0.00  0.00    +0.001 A 
ATOM      7  C   UNL     1     -10.936  -1.446  -7.412  0.00  0.00    +0.002 A 
ATOM      8  C   UNL     1     -11.550  -1.774  -6.248  0.00  0.00    +0.026 A 
ATOM      9  C   UNL     1     -10.721  -2.019  -5.115  0.00  0.00    +0.043 A 
ATOM     10  N   UNL     1     -11.037  -2.328  -3.893  0.00  0.00    -0.375 N 
ATOM     11  C   UNL     1      -9.806  -2.405  -3.104  0.00  0.00    +0.131 C 
ATOM     12  C   UNL     1      -9.617  -3.780  -2.467  0.00  0.00    +0.134 C 
ATOM     13  N   UNL     1      -8.369  -4.365  -2.997  0.00  0.00    -0.276 N 
ATOM     14  C   UNL     1      -8.642  -5.590  -3.486  0.00  0.00    +0.248 C 
ATOM     15  O   UNL     1      -7.810  -6.383  -3.882  0.00  0.00    -0.270 OA
ATOM     16  C   UNL     1     -10.087  -5.826  -3.470  0.00  0.00    +0.042 A 
ATOM     17  C   UNL     1     -10.724  -4.713  -2.833  0.00  0.00    -0.013 A 
ATOM     18  C   UNL     1     -12.088  -4.636  -2.661  0.00  0.00    +0.006 A 
ATOM     19  C   UNL     1     -12.846  -5.708  -3.123  0.00  0.00    +0.000 A 
ATOM     20  C   UNL     1     -12.262  -6.805  -3.726  0.00  0.00    +0.001 A 
ATOM     21  C   UNL     1     -10.841  -6.905  -3.938  0.00  0.00    +0.013 A 
ATOM     22  H   UNL     1     -11.935  -2.482  -3.560  0.00  0.00    +0.160 HD
ENDROOT
BRANCH   1  24
ATOM     23  N   UNL     1      -5.430  -2.852  -1.343  0.00  0.00    -0.310 N 
ATOM     24  C   UNL     1      -6.605  -3.466  -1.582  0.00  0.00    +0.234 C 
ATOM     25  O   UNL     1      -7.297  -3.833  -0.655  0.00  0.00    -0.274 OA
ATOM     26  H   UNL     1      -4.877  -2.559  -2.084  0.00  0.00    +0.149 HD
BRANCH  23  27
ATOM     27  C   UNL     1      -4.987  -2.627   0.035  0.00  0.00    +0.139 C 
BRANCH  27  31
ATOM     28  C   UNL     1      -1.201  -0.638   0.010  0.00  0.00    +0.162 A 
ATOM     29  C   UNL     1      -2.374   0.099   0.019  0.00  0.00    +0.050 A 
ATOM     30  C   UNL     1      -3.596  -0.546   0.027  0.00  0.00    +0.009 A 
ATOM     31  C   UNL     1      -3.652  -1.928   0.026  0.00  0.00    -0.027 A 
ATOM     32  C   UNL     1      -2.485  -2.669   0.017  0.00  0.00    +0.054 A 
ATOM     33  C   UNL     1      -1.257  -2.028   0.003  0.00  0.00    +0.162 A 
BRANCH  28  35
ATOM     34  C   UNL     1      -0.017   1.425   0.010  0.00  0.00    +0.277 C 
ATOM     35  O   UNL     1       0.002  -0.004   0.002  0.00  0.00    -0.491 OA
ENDBRANCH  28  35
BRANCH  33  36
ATOM     36  O   UNL     1      -0.108  -2.756  -0.012  0.00  0.00    -0.491 OA
ATOM     37  C   UNL     1      -0.242  -4.179  -0.018  0.00  0.00    +0.277 C 
ENDBRANCH  33  36
ENDBRANCH  27  31
ENDBRANCH  23  27
ENDBRANCH   1  24
TORSDOF 5
