REMARK  Name = ZINC11398401
REMARK  9 active torsions:
REMARK  status: ('A' for Active; 'I' for Inactive)
REMARK    1  A    between atoms: C_1  and  C_2
REMARK    2  A    between atoms: C_2  and  C_4
REMARK    3  A    between atoms: C_2  and  O_17
REMARK    4  A    between atoms: N_6  and  C_7
REMARK    5  A    between atoms: C_10  and  S_13
REMARK    6  A    between atoms: S_13  and  N_16
REMARK    7  A    between atoms: O_17  and  C_18
REMARK    8  A    between atoms: C_18  and  C_20
REMARK    9  A    between atoms: C_22  and  C_30
REMARK                            x       y       z     vdW  Elec       q    Type
REMARK                         _______ _______ _______ _____ _____    ______ ____
ROOT
ATOM      1  C   UNL     1      -5.493   1.276  -1.266  0.00  0.00    +0.062 C 
ATOM      2  C   UNL     1      -4.969   1.416   0.165  0.00  0.00    +0.259 C 
ENDROOT
BRANCH   2   3
ATOM      3  C   UNL     1      -5.987   2.146   1.003  0.00  0.00    +0.258 C 
ATOM      4  O   UNL     1      -5.723   3.236   1.464  0.00  0.00    -0.271 OA
ATOM      5  N   UNL     1      -7.190   1.586   1.242  0.00  0.00    -0.282 N 
ATOM      6  H   UNL     1      -7.373   0.683   0.940  0.00  0.00    +0.155 HD
BRANCH   5   7
ATOM      7  C   UNL     1      -8.175   2.309   1.924  0.00  0.00    +0.034 A 
ATOM      8  C   UNL     1      -9.052   1.654   2.778  0.00  0.00    +0.025 A 
ATOM      9  C   UNL     1     -10.019   2.372   3.455  0.00  0.00    +0.030 A 
ATOM     10  C   UNL     1     -10.122   3.739   3.273  0.00  0.00    +0.105 A 
ATOM     11  C   UNL     1      -9.254   4.393   2.418  0.00  0.00    +0.030 A 
ATOM     12  C   UNL     1      -8.280   3.682   1.743  0.00  0.00    +0.025 A 
BRANCH  10  13
ATOM     13  S   UNL     1     -11.362   4.649   4.132  0.00  0.00    +0.056 S 
ATOM     14  O   UNL     1     -11.696   3.891   5.287  0.00  0.00    -0.153 OA
ATOM     15  O   UNL     1     -10.900   5.991   4.210  0.00  0.00    -0.153 OA
BRANCH  13  16
ATOM     16  N   UNL     1     -12.710   4.667   3.171  0.00  0.00    -0.204 NA
ATOM     17  H   UNL     1     -12.698   4.221   2.310  0.00  0.00    +0.144 HD
ATOM     18  H   UNL     1     -13.512   5.124   3.470  0.00  0.00    +0.144 HD
ENDBRANCH  13  16
ENDBRANCH  10  13
ENDBRANCH   5   7
ENDBRANCH   2   3
BRANCH   2  19
ATOM     19  O   UNL     1      -3.725   2.164   0.153  0.00  0.00    -0.449 OA
BRANCH  19  20
ATOM     20  C   UNL     1      -2.587   1.456   0.024  0.00  0.00    +0.341 C 
ATOM     21  O   UNL     1      -2.632   0.246  -0.077  0.00  0.00    -0.245 OA
BRANCH  20  22
ATOM     22  C   UNL     1      -1.282   2.151   0.004  0.00  0.00    +0.070 A 
ATOM     23  C   UNL     1      -1.203   3.535   0.009  0.00  0.00    +0.047 A 
ATOM     24  C   UNL     1       0.059   4.154  -0.004  0.00  0.00    +0.107 A 
ATOM     25  N   UNL     1       1.182   3.461  -0.028  0.00  0.00    -0.244 NA
ATOM     26  C   UNL     1       1.196   2.128  -0.040  0.00  0.00    +0.073 A 
ATOM     27  C   UNL     1      -0.023   1.405  -0.029  0.00  0.00    +0.014 A 
ATOM     28  C   UNL     1      -0.003   0.006  -0.042  0.00  0.00    +0.011 A 
ATOM     29  C   UNL     1       1.192  -0.650  -0.067  0.00  0.00    +0.001 A 
ATOM     30  C   UNL     1       2.394   0.055  -0.079  0.00  0.00    +0.002 A 
ATOM     31  C   UNL     1       2.410   1.416  -0.066  0.00  0.00    +0.028 A 
BRANCH  24  32
ATOM     32  C   UNL     1       0.131   5.627   0.008  0.00  0.00    +0.153 A 
ATOM     33  C   UNL     1       1.271   6.372   0.003  0.00  0.00    +0.051 A 
ATOM     34  C   UNL     1       0.873   7.722   0.016  0.00  0.00    +0.042 A 
ATOM     35  C   UNL     1      -0.475   7.737   0.037  0.00  0.00    +0.196 A 
ATOM     36  O   UNL     1      -0.920   6.470   0.032  0.00  0.00    -0.461 OA
ENDBRANCH  24  32
ENDBRANCH  20  22
ENDBRANCH  19  20
ENDBRANCH   2  19
TORSDOF 8
