REMARK  Name = ZINC41872804
REMARK  5 active torsions:
REMARK  status: ('A' for Active; 'I' for Inactive)
REMARK    1  A    between atoms: C_1  and  C_2
REMARK    2  A    between atoms: C_3  and  C_24
REMARK    3  A    between atoms: N_9  and  C_23
REMARK    4  A    between atoms: C_10  and  S_12
REMARK    5  A    between atoms: S_12  and  C_13
REMARK                            x       y       z     vdW  Elec       q    Type
REMARK                         _______ _______ _______ _____ _____    ______ ____
ROOT
ATOM      1  C   UNL     1      -0.018   1.503   0.010  0.00  0.00    +0.045 C 
ATOM      2  C   UNL     1       0.002  -0.004   0.002  0.00  0.00    -0.026 A 
ATOM      3  C   UNL     1       0.006  -0.676  -1.159  0.00  0.00    -0.008 A 
ATOM      4  S   UNL     1       0.032  -2.384  -0.648  0.00  0.00    -0.073 S 
ATOM      5  C   UNL     1       0.037  -2.146   1.110  0.00  0.00    +0.117 A 
ATOM      6  C   UNL     1       0.024  -0.745   1.251  0.00  0.00    +0.075 A 
ATOM      7  C   UNL     1       0.029  -0.255   2.595  0.00  0.00    +0.263 A 
ATOM      8  O   UNL     1       0.014   0.944   2.815  0.00  0.00    -0.267 OA
ATOM      9  N   UNL     1       0.051  -1.135   3.613  0.00  0.00    -0.290 N 
ATOM     10  C   UNL     1       0.067  -2.481   3.386  0.00  0.00    +0.179 A 
ATOM     11  N   UNL     1       0.053  -2.959   2.159  0.00  0.00    -0.215 NA
ATOM     12  C   UNL     1       0.056  -0.639   4.992  0.00  0.00    +0.154 C 
ATOM     13  C   UNL     1      -0.009  -0.120  -2.559  0.00  0.00    +0.052 C 
ENDROOT
BRANCH  10  14
ATOM     14  S   UNL     1       0.096  -3.593   4.752  0.00  0.00    -0.030 S 
BRANCH  14  15
ATOM     15  C   UNL     1       0.111  -5.188   4.003  0.00  0.00    +0.123 A 
ATOM     16  C   UNL     1       0.129  -6.338   4.812  0.00  0.00    +0.146 A 
ATOM     17  N   UNL     1       0.140  -7.532   4.273  0.00  0.00    -0.251 NA
ATOM     18  C   UNL     1       0.135  -7.663   2.940  0.00  0.00    +0.089 A 
ATOM     19  C   UNL     1       0.146  -8.932   2.337  0.00  0.00    +0.030 A 
ATOM     20  C   UNL     1       0.140  -9.035   0.980  0.00  0.00    +0.002 A 
ATOM     21  C   UNL     1       0.122  -7.898   0.175  0.00  0.00    +0.002 A 
ATOM     22  C   UNL     1       0.111  -6.652   0.724  0.00  0.00    +0.030 A 
ATOM     23  C   UNL     1       0.116  -6.506   2.121  0.00  0.00    +0.090 A 
ATOM     24  N   UNL     1       0.100  -5.294   2.688  0.00  0.00    -0.237 NA
ENDBRANCH  14  15
ENDBRANCH  10  14
TORSDOF 2
