REMARK  Name = ZINC36309809
REMARK  15 active torsions:
REMARK  status: ('A' for Active; 'I' for Inactive)
REMARK    1  A    between atoms: C_1  and  C_2
REMARK    2  A    between atoms: C_2  and  C_3
REMARK    3  A    between atoms: C_3  and  N_4
REMARK    4  A    between atoms: N_4  and  C_5
REMARK    5  A    between atoms: N_4  and  C_18
REMARK    6  A    between atoms: C_5  and  C_6
REMARK    7  A    between atoms: C_6  and  C_8
REMARK    8  A    between atoms: C_6  and  O_17
REMARK    9  A    between atoms: C_8  and  O_9
REMARK   10  A    between atoms: O_9  and  C_10
REMARK   11  A    between atoms: C_15  and  C_16
REMARK   12  A    between atoms: C_18  and  C_19
REMARK   13  A    between atoms: C_29  and  C_31
REMARK   14  A    between atoms: C_31  and  O_32
REMARK   15  A    between atoms: O_32  and  C_33
REMARK                            x       y       z     vdW  Elec       q    Type
REMARK                         _______ _______ _______ _____ _____    ______ ____
ROOT
ATOM      1  C   UNL     1      -1.492  -2.592  -0.060  0.00  0.00    +0.200 C 
ATOM      2  O   UNL     1      -0.967  -2.226   0.970  0.00  0.00    -0.278 OA
ATOM      3  N   UNL     1      -2.786  -2.970  -0.059  0.00  0.00    -0.292 N 
ATOM      4  C   UNL     1      -3.431  -3.422  -1.301  0.00  0.00    +0.113 C 
ATOM      5  C   UNL     1      -3.812  -4.902  -1.136  0.00  0.00    +0.061 C 
ATOM      6  C   UNL     1      -4.401  -5.095   0.224  0.00  0.00    -0.004 A 
ATOM      7  C   UNL     1      -4.323  -4.261   1.296  0.00  0.00    -0.014 A 
ATOM      8  C   UNL     1      -4.957  -4.681   2.463  0.00  0.00    +0.013 A 
ATOM      9  C   UNL     1      -5.614  -5.864   2.489  0.00  0.00    +0.046 A 
ATOM     10  S   UNL     1      -5.362  -6.460   0.824  0.00  0.00    -0.101 S 
ATOM     11  C   UNL     1      -3.570  -2.942   1.183  0.00  0.00    +0.144 C 
ENDROOT
BRANCH   1  12
ATOM     12  C   UNL     1      -0.698  -2.626  -1.340  0.00  0.00    +0.019 C 
BRANCH  12  13
ATOM     13  N   UNL     1       0.627  -2.034  -1.111  0.00  0.00    +0.387 N 
ATOM     14  H   UNL     1       1.062  -2.482  -0.318  0.00  0.00    -0.081 HD
BRANCH  13  15
ATOM     15  C   UNL     1       0.481  -0.597  -0.842  0.00  0.00    -0.078 C 
BRANCH  15  17
ATOM     16  C   UNL     1      -0.282   1.585  -1.789  0.00  0.00    +0.002 C 
ATOM     17  C   UNL     1      -0.039   0.106  -2.097  0.00  0.00    -0.022 C 
ENDBRANCH  15  17
ENDBRANCH  13  15
BRANCH  13  18
ATOM     18  C   UNL     1       1.463  -2.227  -2.303  0.00  0.00    -0.043 C 
BRANCH  18  19
ATOM     19  C   UNL     1       2.895  -1.782  -1.999  0.00  0.00    +0.135 C 
BRANCH  19  20
ATOM     20  O   UNL     1       2.934  -0.359  -1.872  0.00  0.00    -0.390 OA
ATOM     21  H   UNL     1       2.651   0.115  -2.666  0.00  0.00    +0.210 HD
ENDBRANCH  19  20
BRANCH  19  22
ATOM     22  C   UNL     1       3.817  -2.218  -3.139  0.00  0.00    +0.258 C 
BRANCH  22  23
ATOM     23  O   UNL     1       5.171  -1.906  -2.803  0.00  0.00    -0.489 OA
BRANCH  23  24
ATOM     24  C   UNL     1       6.124  -2.231  -3.716  0.00  0.00    +0.124 A 
ATOM     25  C   UNL     1       5.763  -2.832  -4.913  0.00  0.00    +0.046 A 
ATOM     26  C   UNL     1       6.734  -3.161  -5.839  0.00  0.00    +0.004 A 
ATOM     27  C   UNL     1       8.064  -2.891  -5.574  0.00  0.00    +0.000 A 
ATOM     28  C   UNL     1       8.426  -2.292  -4.381  0.00  0.00    +0.007 A 
ATOM     29  C   UNL     1       7.458  -1.956  -3.454  0.00  0.00    -0.009 A 
ATOM     30  C   UNL     1       7.853  -1.298  -2.157  0.00  0.00    +0.047 C 
ENDBRANCH  23  24
ENDBRANCH  22  23
ENDBRANCH  19  22
ENDBRANCH  18  19
ENDBRANCH  13  18
ENDBRANCH  12  13
ENDBRANCH   1  12
BRANCH  11  31
ATOM     31  C   UNL     1      -4.567  -1.782   1.139  0.00  0.00    +0.256 C 
BRANCH  31  32
ATOM     32  O   UNL     1      -5.521  -2.014   0.100  0.00  0.00    -0.490 OA
BRANCH  32  33
ATOM     33  C   UNL     1      -6.485  -1.071  -0.073  0.00  0.00    +0.121 A 
ATOM     34  C   UNL     1      -6.508   0.056   0.736  0.00  0.00    +0.048 A 
ATOM     35  C   UNL     1      -7.488   1.013   0.558  0.00  0.00    +0.042 A 
ATOM     36  C   UNL     1      -8.447   0.848  -0.427  0.00  0.00    +0.124 A 
ATOM     37  C   UNL     1      -8.425  -0.276  -1.235  0.00  0.00    +0.042 A 
ATOM     38  C   UNL     1      -7.442  -1.232  -1.064  0.00  0.00    +0.048 A 
ATOM     39  F   UNL     1      -9.406   1.784  -0.600  0.00  0.00    -0.205 F 
ENDBRANCH  32  33
ENDBRANCH  31  32
ENDBRANCH  11  31
TORSDOF 13
