REMARK  Name = ZINC02614806
REMARK  7 active torsions:
REMARK  status: ('A' for Active; 'I' for Inactive)
REMARK    1  A    between atoms: C_1  and  C_2
REMARK    2  A    between atoms: C_5  and  C_8
REMARK    3  A    between atoms: C_11  and  S_14
REMARK    4  A    between atoms: N_12  and  N_13
REMARK    5  A    between atoms: S_14  and  C_15
REMARK    6  A    between atoms: C_15  and  C_16
REMARK    7  A    between atoms: C_16  and  C_18
REMARK                            x       y       z     vdW  Elec       q    Type
REMARK                         _______ _______ _______ _____ _____    ______ ____
ROOT
ATOM      1  C   UNL     1       0.002  -0.004   0.002  0.00  0.00    +0.182 A 
ATOM      2  N   UNL     1       1.035  -0.772   0.262  0.00  0.00    -0.127 NA
ATOM      3  N   UNL     1       0.698  -2.008   0.164  0.00  0.00    -0.121 NA
ATOM      4  C   UNL     1      -0.571  -2.105  -0.164  0.00  0.00    +0.209 A 
ATOM      5  N   UNL     1      -1.060  -0.835  -0.273  0.00  0.00    -0.224 N 
ENDROOT
BRANCH   1  10
ATOM      6  C   UNL     1      -0.076   5.750   0.032  0.00  0.00    +0.044 C 
ATOM      7  C   UNL     1      -0.056   4.243   0.024  0.00  0.00    -0.050 A 
ATOM      8  C   UNL     1       1.154   3.571   0.010  0.00  0.00    +0.004 A 
ATOM      9  C   UNL     1       1.179   2.191   0.003  0.00  0.00    +0.012 A 
ATOM     10  C   UNL     1      -0.018   1.474   0.010  0.00  0.00    +0.021 A 
ATOM     11  C   UNL     1      -1.234   2.159   0.020  0.00  0.00    +0.012 A 
ATOM     12  C   UNL     1      -1.246   3.538   0.032  0.00  0.00    +0.004 A 
ENDBRANCH   1  10
BRANCH   5  13
ATOM     13  N   UNL     1      -2.335  -0.465  -0.593  0.00  0.00    -0.295 N 
ATOM     14  H   UNL     1      -2.442  -0.360  -1.591  0.00  0.00    +0.163 HD
ATOM     15  H   UNL     1      -3.005  -1.124  -0.225  0.00  0.00    +0.163 HD
ENDBRANCH   5  13
BRANCH   4  16
ATOM     16  S   UNL     1      -1.476  -3.597  -0.409  0.00  0.00    -0.077 S 
BRANCH  16  17
ATOM     17  C   UNL     1      -0.174  -4.812  -0.083  0.00  0.00    +0.157 C 
BRANCH  17  18
ATOM     18  C   UNL     1      -0.733  -6.202  -0.239  0.00  0.00    +0.175 C 
ATOM     19  O   UNL     1      -1.898  -6.357  -0.541  0.00  0.00    -0.291 OA
BRANCH  18  20
ATOM     20  C   UNL     1       0.132  -7.371  -0.025  0.00  0.00    +0.037 A 
ATOM     21  C   UNL     1       1.476  -7.196   0.323  0.00  0.00    +0.014 A 
ATOM     22  C   UNL     1       2.281  -8.296   0.522  0.00  0.00    +0.021 A 
ATOM     23  C   UNL     1       1.764  -9.574   0.379  0.00  0.00    +0.042 A 
ATOM     24  C   UNL     1       0.435  -9.757   0.034  0.00  0.00    +0.040 A 
ATOM     25  C   UNL     1      -0.385  -8.665  -0.164  0.00  0.00    +0.053 A 
ATOM     26 CL   UNL     1      -2.053  -8.895  -0.589  0.00  0.00    -0.083 Cl
ATOM     27 CL   UNL     1       2.788 -10.954   0.632  0.00  0.00    -0.083 Cl
ENDBRANCH  18  20
ENDBRANCH  17  18
ENDBRANCH  16  17
ENDBRANCH   4  16
TORSDOF 6
