REMARK  Name = ZINC35452953
REMARK  12 active torsions:
REMARK  status: ('A' for Active; 'I' for Inactive)
REMARK    1  A    between atoms: C_1  and  C_2
REMARK    2  A    between atoms: C_2  and  C_3
REMARK    3  A    between atoms: C_3  and  C_4
REMARK    4  A    between atoms: C_4  and  N_5
REMARK    5  A    between atoms: N_5  and  C_6
REMARK    6  A    between atoms: C_6  and  C_7
REMARK    7  A    between atoms: N_9  and  C_10
REMARK    8  A    between atoms: N_9  and  C_17
REMARK    9  A    between atoms: C_10  and  C_11
REMARK   10  A    between atoms: C_17  and  C_18
REMARK   11  A    between atoms: C_24  and  C_29
REMARK   12  A    between atoms: N_32  and  C_33
REMARK                            x       y       z     vdW  Elec       q    Type
REMARK                         _______ _______ _______ _____ _____    ______ ____
ROOT
ATOM      1  C   UNL     1       3.155  -4.153  -2.039  0.00  0.00    +0.234 C 
ATOM      2  O   UNL     1       2.246  -4.877  -1.693  0.00  0.00    -0.274 OA
ATOM      3  N   UNL     1       4.421  -4.615  -2.045  0.00  0.00    -0.291 N 
ENDROOT
BRANCH   1   4
ATOM      4  C   UNL     1       2.869  -2.735  -2.463  0.00  0.00    +0.205 C 
BRANCH   4   5
ATOM      5  N   UNL     1       1.420  -2.515  -2.486  0.00  0.00    -0.277 N 
ATOM      6  C   UNL     1       0.720  -2.755  -3.612  0.00  0.00    +0.303 C 
ATOM      7  O   UNL     1       1.290  -3.153  -4.609  0.00  0.00    -0.253 OA
ATOM      8  N   UNL     1      -0.613  -2.552  -3.633  0.00  0.00    -0.296 N 
ATOM      9  H   UNL     1      -1.067  -2.234  -2.837  0.00  0.00    +0.151 HD
BRANCH   8  10
ATOM     10  C   UNL     1      -1.374  -2.812  -4.857  0.00  0.00    +0.074 C 
ATOM     11  C   UNL     1      -1.321  -1.580  -5.762  0.00  0.00    +0.022 C 
ATOM     12  C   UNL     1      -2.116  -1.852  -7.041  0.00  0.00    +0.002 C 
ATOM     13  C   UNL     1      -3.571  -2.158  -6.681  0.00  0.00    +0.000 C 
ATOM     14  C   UNL     1      -3.624  -3.390  -5.776  0.00  0.00    +0.002 C 
ATOM     15  C   UNL     1      -2.829  -3.118  -4.497  0.00  0.00    +0.022 C 
ENDBRANCH   8  10
BRANCH   5  16
ATOM     16  C   UNL     1       0.733  -2.035  -1.284  0.00  0.00    +0.110 C 
BRANCH  16  17
ATOM     17  C   UNL     1       0.708  -0.505  -1.288  0.00  0.00    +0.019 C 
BRANCH  17  19
ATOM     18  C   UNL     1      -0.035   1.526  -0.037  0.00  0.00    +0.004 C 
ATOM     19  C   UNL     1      -0.009  -0.004  -0.033  0.00  0.00    -0.002 C 
ENDBRANCH  17  19
ENDBRANCH  16  17
ENDBRANCH   5  16
ENDBRANCH   4   5
ENDBRANCH   1   4
BRANCH   3  20
ATOM     20  C   UNL     1       5.530  -3.708  -2.348  0.00  0.00    +0.143 C 
BRANCH  20  21
ATOM     21  C   UNL     1       6.114  -3.182  -1.062  0.00  0.00    -0.030 A 
ATOM     22  C   UNL     1       5.690  -1.967  -0.556  0.00  0.00    +0.005 A 
ATOM     23  C   UNL     1       6.226  -1.484   0.623  0.00  0.00    +0.000 A 
ATOM     24  C   UNL     1       7.185  -2.216   1.297  0.00  0.00    +0.000 A 
ATOM     25  C   UNL     1       7.609  -3.431   0.792  0.00  0.00    +0.000 A 
ATOM     26  C   UNL     1       7.070  -3.916  -0.385  0.00  0.00    +0.005 A 
ENDBRANCH  20  21
ENDBRANCH   3  20
BRANCH   3  27
ATOM     27  C   UNL     1       4.687  -6.025  -1.748  0.00  0.00    +0.150 C 
BRANCH  27  28
ATOM     28  C   UNL     1       4.658  -6.822  -3.026  0.00  0.00    +0.052 A 
ATOM     29  C   UNL     1       5.800  -7.084  -3.686  0.00  0.00    +0.204 A 
ATOM     30  O   UNL     1       5.836  -7.785  -4.824  0.00  0.00    -0.462 OA
ATOM     31  C   UNL     1       4.724  -8.286  -5.400  0.00  0.00    +0.138 A 
ATOM     32  C   UNL     1       4.795  -9.011  -6.583  0.00  0.00    +0.047 A 
ATOM     33  C   UNL     1       3.644  -9.512  -7.152  0.00  0.00    +0.007 A 
ATOM     34  C   UNL     1       2.409  -9.302  -6.556  0.00  0.00    -0.050 A 
ATOM     35  C   UNL     1       2.316  -8.585  -5.383  0.00  0.00    +0.018 A 
ATOM     36  C   UNL     1       3.473  -8.073  -4.798  0.00  0.00    +0.065 A 
ATOM     37  C   UNL     1       3.425  -7.305  -3.538  0.00  0.00    +0.197 A 
ATOM     38  O   UNL     1       2.371  -7.091  -2.965  0.00  0.00    -0.287 OA
ATOM     39  C   UNL     1       1.163  -9.859  -7.195  0.00  0.00    +0.044 C 
ENDBRANCH  27  28
ENDBRANCH   3  27
TORSDOF 10
