REMARK  Name = ZINC01956847
REMARK  9 active torsions:
REMARK  status: ('A' for Active; 'I' for Inactive)
REMARK    1  A    between atoms: C_1  and  C_2
REMARK    2  A    between atoms: C_4  and  O_10
REMARK    3  A    between atoms: C_6  and  C_9
REMARK    4  A    between atoms: O_10  and  C_11
REMARK    5  A    between atoms: C_11  and  C_13
REMARK    6  A    between atoms: C_11  and  C_14
REMARK    7  A    between atoms: N_16  and  C_17
REMARK    8  A    between atoms: C_18  and  C_28
REMARK    9  A    between atoms: C_23  and  C_27
REMARK                            x       y       z     vdW  Elec       q    Type
REMARK                         _______ _______ _______ _____ _____    ______ ____
ROOT
ATOM      1  C   UNL     1      -1.650   2.563  -5.847  0.00  0.00    +0.258 C 
ATOM      2  O   UNL     1      -2.806   2.721  -5.514  0.00  0.00    -0.271 OA
ATOM      3  N   UNL     1      -0.765   2.035  -4.979  0.00  0.00    -0.276 N 
ATOM      4  H   UNL     1       0.159   1.909  -5.245  0.00  0.00    +0.155 HD
ENDROOT
BRANCH   3   5
ATOM      5  C   UNL     1      -1.176   1.671  -3.705  0.00  0.00    +0.084 A 
ATOM      6  C   UNL     1      -0.421   1.117  -2.681  0.00  0.00    +0.068 A 
ATOM      7  C   UNL     1      -1.098   0.825  -1.429  0.00  0.00    -0.023 A 
ATOM      8  C   UNL     1      -2.413   1.132  -1.402  0.00  0.00    -0.004 A 
ATOM      9  S   UNL     1      -2.756   1.798  -3.006  0.00  0.00    -0.077 S 
ATOM     10  C   UNL     1      -3.361   0.943  -0.258  0.00  0.00    +0.046 C 
ATOM     11  C   UNL     1      -2.706   0.000   0.762  0.00  0.00    -0.009 C 
ATOM     12  C   UNL     1      -1.270   0.473   1.024  0.00  0.00    +0.008 C 
ATOM     13  C   UNL     1      -0.408   0.217  -0.214  0.00  0.00    +0.037 C 
ATOM     14  C   UNL     1      -3.500   0.028   2.069  0.00  0.00    +0.008 C 
BRANCH   6  15
ATOM     15  C   UNL     1       1.008   0.837  -2.856  0.00  0.00    +0.244 C 
ATOM     16  O   UNL     1       1.369  -0.246  -3.280  0.00  0.00    -0.270 OA
ATOM     17  N   UNL     1       1.922   1.778  -2.548  0.00  0.00    -0.325 N 
ATOM     18  H   UNL     1       1.635   2.641  -2.210  0.00  0.00    +0.145 HD
ATOM     19  H   UNL     1       2.867   1.593  -2.663  0.00  0.00    +0.145 HD
ENDBRANCH   6  15
ENDBRANCH   3   5
BRANCH   1  20
ATOM     20  C   UNL     1      -1.204   2.959  -7.231  0.00  0.00    +0.256 C 
ATOM     21  C   UNL     1      -0.776   1.710  -8.005  0.00  0.00    +0.062 C 
BRANCH  20  22
ATOM     22  O   UNL     1      -2.284   3.596  -7.916  0.00  0.00    -0.480 OA
BRANCH  22  26
ATOM     23  C   UNL     1      -3.692   6.860 -11.261  0.00  0.00    +0.045 C 
ATOM     24  C   UNL     1      -2.617   6.059 -10.573  0.00  0.00    -0.028 A 
ATOM     25  C   UNL     1      -2.950   5.189  -9.553  0.00  0.00    +0.050 A 
ATOM     26  C   UNL     1      -1.959   4.452  -8.920  0.00  0.00    +0.122 A 
ATOM     27  C   UNL     1      -0.635   4.594  -9.310  0.00  0.00    +0.050 A 
ATOM     28  C   UNL     1      -0.307   5.461 -10.334  0.00  0.00    -0.028 A 
ATOM     29  C   UNL     1      -1.296   6.195 -10.964  0.00  0.00    +0.047 A 
ATOM     30 CL   UNL     1      -0.881   7.289 -12.247  0.00  0.00    -0.083 Cl
ATOM     31  C   UNL     1       1.130   5.612 -10.762  0.00  0.00    +0.045 C 
ENDBRANCH  22  26
ENDBRANCH  20  22
ENDBRANCH   1  20
TORSDOF 5
