REMARK  Name = ZINC04290526
REMARK  4 active torsions:
REMARK  status: ('A' for Active; 'I' for Inactive)
REMARK    1  A    between atoms: C_1  and  C_2
REMARK    2  A    between atoms: C_5  and  C_8
REMARK    3  A    between atoms: C_8  and  S_9
REMARK    4  A    between atoms: S_9  and  C_11
REMARK                            x       y       z     vdW  Elec       q    Type
REMARK                         _______ _______ _______ _____ _____    ______ ____
ROOT
ATOM      1  C   UNL     1       1.229  -2.186  -0.021  0.00  0.00    +0.146 C 
ENDROOT
BRANCH   1   6
ATOM      2  C   UNL     1       1.151   3.592   0.010  0.00  0.00    +0.044 C 
ATOM      3  C   UNL     1       1.171   2.086   0.002  0.00  0.00    -0.050 A 
ATOM      4  C   UNL     1      -0.017   1.378   0.010  0.00  0.00    +0.003 A 
ATOM      5  C   UNL     1       0.002  -0.004   0.002  0.00  0.00    +0.005 A 
ATOM      6  C   UNL     1       1.208  -0.679  -0.013  0.00  0.00    -0.035 A 
ATOM      7  C   UNL     1       2.396   0.029  -0.021  0.00  0.00    +0.005 A 
ATOM      8  C   UNL     1       2.377   1.411  -0.015  0.00  0.00    +0.003 A 
ENDBRANCH   1   6
BRANCH   1   9
ATOM      9  S   UNL     1       1.220  -2.782  -1.734  0.00  0.00    +0.085 S 
ATOM     10  O   UNL     1       2.464  -2.475  -2.349  0.00  0.00    -0.250 OA
BRANCH   9  11
ATOM     11  C   UNL     1       1.246  -4.537  -1.574  0.00  0.00    +0.186 A 
ATOM     12  N   UNL     1       0.236  -5.381  -1.483  0.00  0.00    -0.199 NA
ATOM     13  C   UNL     1       0.490  -6.663  -1.373  0.00  0.00    +0.231 A 
ATOM     14  N   UNL     1       1.736  -7.079  -1.346  0.00  0.00    -0.177 NA
ATOM     15  S   UNL     1       2.605  -5.611  -1.487  0.00  0.00    +0.044 S 
ATOM     16 CL   UNL     1      -0.813  -7.804  -1.258  0.00  0.00    -0.040 Cl
ENDBRANCH   9  11
ENDBRANCH   1   9
TORSDOF 3
