REMARK  Name = ZINC05863272
REMARK  8 active torsions:
REMARK  status: ('A' for Active; 'I' for Inactive)
REMARK    1  A    between atoms: C_1  and  C_2
REMARK    2  A    between atoms: C_2  and  C_3
REMARK    3  A    between atoms: C_12  and  C_13
REMARK    4  A    between atoms: C_13  and  C_15
REMARK    5  A    between atoms: C_15  and  S_16
REMARK    6  A    between atoms: S_16  and  C_17
REMARK    7  A    between atoms: C_20  and  C_22
REMARK    8  A    between atoms: C_25  and  C_28
REMARK                            x       y       z     vdW  Elec       q    Type
REMARK                         _______ _______ _______ _____ _____    ______ ____
ROOT
ATOM      1  C   UNL     1       3.556   0.935  -0.026  0.00  0.00    +0.175 C 
ATOM      2  O   UNL     1       4.239  -0.069  -0.038  0.00  0.00    -0.291 OA
ENDROOT
BRANCH   1  12
ATOM      3  C   UNL     1      -1.002  -0.967   0.006  0.00  0.00    -0.024 A 
ATOM      4  C   UNL     1      -0.671  -2.305  -0.004  0.00  0.00    +0.005 A 
ATOM      5  C   UNL     1       0.657  -2.705  -0.018  0.00  0.00    +0.001 A 
ATOM      6  C   UNL     1       1.665  -1.766  -0.023  0.00  0.00    +0.011 A 
ATOM      7  C   UNL     1       1.345  -0.411  -0.013  0.00  0.00    +0.010 A 
ATOM      8  C   UNL     1       0.002  -0.004   0.002  0.00  0.00    +0.050 A 
ATOM      9  N   UNL     1      -0.017   1.376   0.010  0.00  0.00    -0.360 N 
ATOM     10  H   UNL     1      -0.822   1.917   0.017  0.00  0.00    +0.165 HD
ATOM     11  C   UNL     1       1.236   1.869   0.000  0.00  0.00    +0.095 A 
ATOM     12  C   UNL     1       2.143   0.831  -0.014  0.00  0.00    +0.043 A 
BRANCH   3  14
ATOM     13  C   UNL     1      -2.917  -0.278  -1.409  0.00  0.00    +0.009 C 
ATOM     14  C   UNL     1      -2.449  -0.548   0.022  0.00  0.00    +0.034 C 
ENDBRANCH   3  14
ENDBRANCH   1  12
BRANCH   1  15
ATOM     15  C   UNL     1       4.212   2.292  -0.025  0.00  0.00    +0.158 C 
BRANCH  15  16
ATOM     16  S   UNL     1       6.011   2.093  -0.043  0.00  0.00    -0.058 S 
BRANCH  16  17
ATOM     17  C   UNL     1       6.506   3.784  -0.039  0.00  0.00    +0.278 A 
ATOM     18  N   UNL     1       5.709   4.827  -0.032  0.00  0.00    -0.101 NA
ATOM     19  N   UNL     1       6.413   5.904  -0.027  0.00  0.00    -0.106 NA
ATOM     20  C   UNL     1       7.686   5.592  -0.041  0.00  0.00    +0.249 A 
ATOM     21  O   UNL     1       7.772   4.243  -0.048  0.00  0.00    -0.411 OA
BRANCH  20  22
ATOM     22  C   UNL     1       8.818   6.541  -0.045  0.00  0.00    +0.039 A 
ATOM     23  C   UNL     1      10.131   6.066  -0.053  0.00  0.00    +0.013 A 
ATOM     24  C   UNL     1      11.184   6.957  -0.062  0.00  0.00    +0.004 A 
ATOM     25  C   UNL     1      10.941   8.319  -0.053  0.00  0.00    -0.050 A 
ATOM     26  C   UNL     1       9.643   8.797  -0.040  0.00  0.00    +0.004 A 
ATOM     27  C   UNL     1       8.581   7.917  -0.036  0.00  0.00    +0.013 A 
ATOM     28  C   UNL     1      12.096   9.287  -0.056  0.00  0.00    +0.044 C 
ENDBRANCH  20  22
ENDBRANCH  16  17
ENDBRANCH  15  16
ENDBRANCH   1  15
TORSDOF 6
