REMARK  Name = ZINC39949637
REMARK  7 active torsions:
REMARK  status: ('A' for Active; 'I' for Inactive)
REMARK    1  A    between atoms: C_4  and  C_7
REMARK    2  A    between atoms: C_8  and  C_9
REMARK    3  A    between atoms: C_8  and  N_24
REMARK    4  A    between atoms: N_11  and  C_12
REMARK    5  A    between atoms: C_12  and  C_13
REMARK    6  A    between atoms: C_13  and  C_14
REMARK    7  A    between atoms: C_25  and  C_27
REMARK                            x       y       z     vdW  Elec       q    Type
REMARK                         _______ _______ _______ _____ _____    ______ ____
ROOT
ATOM      1  C   UNL     1       3.687  -0.678  -0.105  0.00  0.00    +0.036 C 
ATOM      2  C   UNL     1       3.712  -2.020   0.062  0.00  0.00    +0.097 C 
ENDROOT
BRANCH   1   6
ATOM      3  C   UNL     1      -0.019   1.382  -0.170  0.00  0.00    +0.000 A 
ATOM      4  C   UNL     1       0.067   0.138   0.431  0.00  0.00    +0.001 A 
ATOM      5  C   UNL     1       1.268  -0.538   0.456  0.00  0.00    +0.008 A 
ATOM      6  C   UNL     1       2.402   0.036  -0.128  0.00  0.00    -0.023 A 
ATOM      7  C   UNL     1       2.307   1.294  -0.733  0.00  0.00    +0.008 A 
ATOM      8  C   UNL     1       1.098   1.957  -0.750  0.00  0.00    +0.001 A 
ENDBRANCH   1   6
BRANCH   2   9
ATOM      9  C   UNL     1       4.996  -2.716   0.239  0.00  0.00    +0.258 C 
ATOM     10  O   UNL     1       5.019  -3.922   0.390  0.00  0.00    -0.269 OA
ATOM     11  N   UNL     1       6.148  -2.015   0.233  0.00  0.00    -0.310 N 
ATOM     12  H   UNL     1       6.130  -1.053   0.113  0.00  0.00    +0.149 HD
BRANCH  11  13
ATOM     13  C   UNL     1       7.427  -2.708   0.409  0.00  0.00    +0.112 C 
BRANCH  13  14
ATOM     14  C   UNL     1       8.568  -1.690   0.363  0.00  0.00    +0.094 C 
BRANCH  14  15
ATOM     15  C   UNL     1       9.884  -2.403   0.544  0.00  0.00    +0.127 C 
ATOM     16  N   UNL     1       9.984  -3.692   0.705  0.00  0.00    -0.256 NA
ATOM     17  C   UNL     1      11.404  -3.967   0.909  0.00  0.00    +0.178 C 
ATOM     18  C   UNL     1      11.995  -4.957  -0.053  0.00  0.00    +0.006 C 
ATOM     19  C   UNL     1      13.234  -4.751  -0.515  0.00  0.00    -0.002 C 
ATOM     20  C   UNL     1      14.013  -3.617  -0.186  0.00  0.00    +0.002 C 
ATOM     21  C   UNL     1      13.429  -2.507   0.363  0.00  0.00    +0.026 C 
ATOM     22  C   UNL     1      12.051  -2.618   0.641  0.00  0.00    +0.072 C 
ATOM     23  N   UNL     1      11.068  -1.774   0.549  0.00  0.00    -0.235 NA
ENDBRANCH  14  15
ENDBRANCH  13  14
ENDBRANCH  11  13
ENDBRANCH   2   9
BRANCH   2  24
ATOM     24  N   UNL     1       2.518  -2.746   0.068  0.00  0.00    -0.277 N 
ATOM     25  C   UNL     1       2.209  -3.528   1.122  0.00  0.00    +0.250 C 
ATOM     26  O   UNL     1       3.011  -3.676   2.025  0.00  0.00    -0.270 OA
ATOM     27  H   UNL     1       1.911  -2.688  -0.686  0.00  0.00    +0.155 HD
BRANCH  25  28
ATOM     28  C   UNL     1       0.898  -4.204   1.181  0.00  0.00    +0.055 A 
ATOM     29  C   UNL     1       0.022  -4.131   0.096  0.00  0.00    +0.016 A 
ATOM     30  C   UNL     1      -1.201  -4.765   0.157  0.00  0.00    +0.021 A 
ATOM     31  C   UNL     1      -1.563  -5.472   1.292  0.00  0.00    +0.042 A 
ATOM     32  C   UNL     1      -0.700  -5.549   2.372  0.00  0.00    +0.040 A 
ATOM     33  C   UNL     1       0.530  -4.924   2.321  0.00  0.00    +0.054 A 
ATOM     34 CL   UNL     1       1.615  -5.028   3.673  0.00  0.00    -0.083 Cl
ATOM     35 CL   UNL     1      -3.105  -6.266   1.360  0.00  0.00    -0.083 Cl
ENDBRANCH  25  28
ENDBRANCH   2  24
TORSDOF 7
