REMARK  Name = ZINC33708589
REMARK  11 active torsions:
REMARK  status: ('A' for Active; 'I' for Inactive)
REMARK    1  A    between atoms: C_1  and  C_2
REMARK    2  A    between atoms: C_2  and  C_3
REMARK    3  A    between atoms: C_7  and  C_40
REMARK    4  A    between atoms: C_8  and  N_9
REMARK    5  A    between atoms: C_14  and  C_31
REMARK    6  A    between atoms: C_17  and  C_22
REMARK    7  A    between atoms: C_17  and  C_28
REMARK    8  A    between atoms: C_34  and  O_39
REMARK    9  A    between atoms: C_35  and  O_37
REMARK   10  A    between atoms: O_37  and  C_38
REMARK   11  A    between atoms: C_40  and  C_41
REMARK                            x       y       z     vdW  Elec       q    Type
REMARK                         _______ _______ _______ _____ _____    ______ ____
ROOT
ATOM      1  N   UNL     1      -2.587   1.853   0.423  0.00  0.00    -0.209 N 
ATOM      2  C   UNL     1      -3.316   1.353   1.474  0.00  0.00    +0.229 C 
ATOM      3  O   UNL     1      -3.294   1.719   2.630  0.00  0.00    -0.275 OA
ATOM      4  C   UNL     1      -4.111   0.297   0.901  0.00  0.00    +0.078 C 
ATOM      5  C   UNL     1      -5.314  -0.506   1.176  0.00  0.00    -0.026 C 
ATOM      6  N   UNL     1      -5.513  -1.230  -0.126  0.00  0.00    +0.398 N 
ATOM      7  C   UNL     1      -4.837  -0.440  -1.197  0.00  0.00    +0.074 C 
ATOM      8  C   UNL     1      -4.426   0.876  -0.535  0.00  0.00    +0.090 C 
ATOM      9  C   UNL     1      -3.047   1.423  -0.789  0.00  0.00    +0.229 C 
ATOM     10  O   UNL     1      -2.465   1.472  -1.851  0.00  0.00    -0.275 OA
ATOM     11  H   UNL     1      -5.072  -2.236  -0.058  0.00  0.00    -0.083 HD
ATOM     12  H   UNL     1      -6.590  -1.316  -0.337  0.00  0.00    -0.083 HD
ENDROOT
BRANCH   1  18
ATOM     13  C   UNL     1      -0.212   2.197   0.715  0.00  0.00    -0.026 A 
ATOM     14  C   UNL     1       0.864   3.050   0.861  0.00  0.00    +0.005 A 
ATOM     15  C   UNL     1       0.667   4.418   0.876  0.00  0.00    +0.001 A 
ATOM     16  C   UNL     1      -0.608   4.938   0.745  0.00  0.00    +0.005 A 
ATOM     17  C   UNL     1      -1.688   4.090   0.599  0.00  0.00    -0.026 A 
ATOM     18  C   UNL     1      -1.493   2.716   0.578  0.00  0.00    +0.050 A 
BRANCH  13  20
ATOM     19  C   UNL     1       0.115   0.223  -0.749  0.00  0.00    +0.009 C 
ATOM     20  C   UNL     1       0.003   0.706   0.698  0.00  0.00    +0.033 C 
ENDBRANCH  13  20
BRANCH  17  21
ATOM     21  C   UNL     1      -3.078   4.656   0.456  0.00  0.00    +0.033 C 
ATOM     22  C   UNL     1      -3.757   4.693   1.827  0.00  0.00    +0.009 C 
ENDBRANCH  17  21
ENDBRANCH   1  18
BRANCH   7  23
ATOM     23  C   UNL     1      -3.620  -1.174  -1.699  0.00  0.00    -0.047 A 
ATOM     24  C   UNL     1      -3.218  -1.027  -3.013  0.00  0.00    +0.003 A 
ATOM     25  C   UNL     1      -2.099  -1.697  -3.473  0.00  0.00    +0.000 A 
ATOM     26  C   UNL     1      -1.387  -2.519  -2.620  0.00  0.00    +0.000 A 
ATOM     27  C   UNL     1      -1.792  -2.670  -1.306  0.00  0.00    +0.000 A 
ATOM     28  C   UNL     1      -2.909  -1.997  -0.846  0.00  0.00    +0.003 A 
ENDBRANCH   7  23
BRANCH   5  29
ATOM     29  C   UNL     1      -5.066  -1.479   2.300  0.00  0.00    -0.057 A 
ATOM     30  C   UNL     1      -4.537  -2.727   2.028  0.00  0.00    +0.006 A 
ATOM     31  C   UNL     1      -4.306  -3.622   3.056  0.00  0.00    +0.049 A 
ATOM     32  C   UNL     1      -4.606  -3.270   4.362  0.00  0.00    +0.158 A 
ATOM     33  C   UNL     1      -5.139  -2.014   4.636  0.00  0.00    +0.161 A 
ATOM     34  C   UNL     1      -5.362  -1.119   3.602  0.00  0.00    +0.051 A 
BRANCH  33  35
ATOM     35  O   UNL     1      -5.435  -1.663   5.916  0.00  0.00    -0.491 OA
ATOM     36  C   UNL     1      -5.979  -0.358   6.122  0.00  0.00    +0.277 C 
ENDBRANCH  33  35
BRANCH  32  37
ATOM     37  O   UNL     1      -4.380  -4.149   5.374  0.00  0.00    -0.503 OA
ATOM     38  H   UNL     1      -4.618  -3.869   6.411  0.00  0.00    +0.292 HD
ENDBRANCH  32  37
ENDBRANCH   5  29
BRANCH   7  39
ATOM     39  C   UNL     1      -5.791  -0.177  -2.333  0.00  0.00    +0.350 C 
ATOM     40  O   UNL     1      -5.783   0.893  -2.894  0.00  0.00    -0.248 OA
ATOM     41  O   UNL     1      -6.651  -1.132  -2.722  0.00  0.00    -0.248 OA
ENDBRANCH   7  39
TORSDOF 8
