REMARK  Name = ZINC08692689
REMARK  10 active torsions:
REMARK  status: ('A' for Active; 'I' for Inactive)
REMARK    1  A    between atoms: C_1  and  C_2
REMARK    2  A    between atoms: C_7  and  N_12
REMARK    3  A    between atoms: C_9  and  C_11
REMARK    4  A    between atoms: C_13  and  C_15
REMARK    5  A    between atoms: C_15  and  O_16
REMARK    6  A    between atoms: O_16  and  C_17
REMARK    7  A    between atoms: C_17  and  C_19
REMARK    8  A    between atoms: C_22  and  O_39
REMARK    9  A    between atoms: N_25  and  S_26
REMARK   10  A    between atoms: S_26  and  C_29
REMARK                            x       y       z     vdW  Elec       q    Type
REMARK                         _______ _______ _______ _____ _____    ______ ____
ROOT
ATOM      1  C   UNL     1       1.593   0.987   9.411  0.00  0.00    +0.191 C 
ATOM      2  C   UNL     1       2.150   2.412   9.210  0.00  0.00    +0.064 C 
ATOM      3  C   UNL     1       2.453   2.874  10.661  0.00  0.00    +0.132 C 
ATOM      4  C   UNL     1       2.926   1.552  11.315  0.00  0.00    +0.141 C 
ATOM      5  N   UNL     1       2.075   0.505  10.713  0.00  0.00    -0.160 NA
ENDROOT
BRANCH   5   6
ATOM      6  S   UNL     1       1.722  -0.964  11.390  0.00  0.00    +0.062 S 
ATOM      7  O   UNL     1       1.252  -1.794  10.336  0.00  0.00    -0.153 OA
ATOM      8  O   UNL     1       2.835  -1.317  12.200  0.00  0.00    -0.153 OA
BRANCH   6   9
ATOM      9  C   UNL     1       0.361  -0.721  12.483  0.00  0.00    +0.109 A 
ATOM     10  C   UNL     1       0.586  -0.308  13.783  0.00  0.00    +0.032 A 
ATOM     11  C   UNL     1      -0.478  -0.118  14.644  0.00  0.00    +0.051 A 
ATOM     12  C   UNL     1      -1.775  -0.339  14.205  0.00  0.00    +0.162 A 
ATOM     13  C   UNL     1      -2.001  -0.751  12.897  0.00  0.00    +0.164 A 
ATOM     14  C   UNL     1      -0.929  -0.938  12.038  0.00  0.00    +0.078 A 
ATOM     15  O   UNL     1      -3.267  -0.966  12.444  0.00  0.00    -0.485 OA
ATOM     16  C   UNL     1      -4.288  -1.124  13.435  0.00  0.00    +0.270 C 
ATOM     17  C   UNL     1      -4.115  -0.017  14.483  0.00  0.00    +0.270 C 
ATOM     18  O   UNL     1      -2.813  -0.150  15.065  0.00  0.00    -0.485 OA
ENDBRANCH   6   9
ENDBRANCH   5   6
BRANCH   1  19
ATOM     19  C   UNL     1       2.092   0.083   8.313  0.00  0.00    +0.327 C 
ATOM     20  O   UNL     1       3.113  -0.545   8.465  0.00  0.00    -0.249 OA
BRANCH  19  21
ATOM     21  O   UNL     1       1.401  -0.026   7.167  0.00  0.00    -0.454 OA
BRANCH  21  22
ATOM     22  C   UNL     1       1.932  -0.901   6.170  0.00  0.00    +0.327 C 
BRANCH  22  24
ATOM     23  N   UNL     1       1.334  -1.651   3.890  0.00  0.00    -0.309 N 
ATOM     24  C   UNL     1       1.030  -0.894   4.963  0.00  0.00    +0.251 C 
ATOM     25  O   UNL     1       0.030  -0.207   4.958  0.00  0.00    -0.272 OA
ATOM     26  H   UNL     1       2.133  -2.200   3.895  0.00  0.00    +0.149 HD
BRANCH  23  32
ATOM     27  C   UNL     1      -0.242  -0.624   0.061  0.00  0.00    +0.008 C 
ATOM     28  C   UNL     1       0.346  -2.024   0.250  0.00  0.00    -0.009 C 
ATOM     29  C   UNL     1      -0.788  -3.030   0.456  0.00  0.00    +0.003 C 
ATOM     30  C   UNL     1      -1.594  -2.644   1.698  0.00  0.00    +0.002 C 
ATOM     31  C   UNL     1      -0.678  -2.651   2.923  0.00  0.00    +0.022 C 
ATOM     32  C   UNL     1       0.456  -1.645   2.717  0.00  0.00    +0.076 C 
ATOM     33  C   UNL     1       1.262  -2.031   1.476  0.00  0.00    +0.009 C 
ATOM     34  C   UNL     1       2.396  -1.025   1.270  0.00  0.00    +0.009 C 
ENDBRANCH  23  32
ENDBRANCH  22  24
ENDBRANCH  21  22
ENDBRANCH  19  21
ENDBRANCH   1  19
BRANCH   3  35
ATOM     35  O   UNL     1       3.490   3.856  10.679  0.00  0.00    -0.390 OA
ATOM     36  H   UNL     1       3.714   4.175  11.564  0.00  0.00    +0.210 HD
ENDBRANCH   3  35
TORSDOF 8
