REMARK  Name = ZINC39016441
REMARK  7 active torsions:
REMARK  status: ('A' for Active; 'I' for Inactive)
REMARK    1  A    between atoms: C_3  and  N_30
REMARK    2  A    between atoms: C_6  and  C_7
REMARK    3  A    between atoms: C_7  and  S_8
REMARK    4  A    between atoms: S_8  and  C_9
REMARK    5  A    between atoms: C_13  and  C_17
REMARK    6  A    between atoms: N_15  and  N_16
REMARK    7  A    between atoms: C_20  and  C_23
REMARK                            x       y       z     vdW  Elec       q    Type
REMARK                         _______ _______ _______ _____ _____    ______ ____
ROOT
ATOM      1  C   UNL     1      -3.378  -2.001  -1.514  0.00  0.00    +0.214 C 
ATOM      2  N   UNL     1      -3.141  -3.239  -0.738  0.00  0.00    -0.228 NA
ATOM      3  N   UNL     1      -3.495  -2.881   0.644  0.00  0.00    -0.234 NA
ATOM      4  C   UNL     1      -4.673  -1.990   0.469  0.00  0.00    +0.185 C 
ATOM      5  N   UNL     1      -4.357  -1.203  -0.746  0.00  0.00    -0.197 NA
ATOM      6  H   UNL     1      -3.720  -3.993  -1.075  0.00  0.00    +0.143 HD
ATOM      7  H   UNL     1      -3.738  -3.700   1.180  0.00  0.00    +0.143 HD
ENDROOT
BRANCH   4   8
ATOM      8  C   UNL     1      -4.833  -1.070   1.681  0.00  0.00    +0.187 C 
ATOM      9  C   UNL     1      -5.002  -1.882   2.953  0.00  0.00    +0.034 C 
ATOM     10  C   UNL     1      -6.221  -1.528   3.402  0.00  0.00    +0.091 C 
ATOM     11  N   UNL     1      -6.789  -0.619   2.566  0.00  0.00    -0.154 NA
ATOM     12  N   UNL     1      -6.091  -0.310   1.594  0.00  0.00    -0.176 NA
BRANCH  10  13
ATOM     13  C   UNL     1      -6.855  -2.056   4.635  0.00  0.00    +0.002 A 
ATOM     14  C   UNL     1      -6.181  -2.985   5.425  0.00  0.00    +0.011 A 
ATOM     15  C   UNL     1      -6.775  -3.473   6.571  0.00  0.00    +0.020 A 
ATOM     16  C   UNL     1      -8.039  -3.042   6.935  0.00  0.00    +0.041 A 
ATOM     17  C   UNL     1      -8.713  -2.120   6.154  0.00  0.00    +0.020 A 
ATOM     18  C   UNL     1      -8.125  -1.621   5.009  0.00  0.00    +0.011 A 
ATOM     19 CL   UNL     1      -8.781  -3.661   8.377  0.00  0.00    -0.084 Cl
ENDBRANCH  10  13
ENDBRANCH   4   8
BRANCH   5  20
ATOM     20  N   UNL     1      -5.554  -0.951  -1.531  0.00  0.00    -0.264 NA
ATOM     21  H   UNL     1      -5.333  -0.445  -2.376  0.00  0.00    +0.137 HD
ATOM     22  H   UNL     1      -6.037  -1.812  -1.741  0.00  0.00    +0.137 HD
ENDBRANCH   5  20
BRANCH   1  23
ATOM     23  S   UNL     1      -1.828  -1.075  -1.697  0.00  0.00    -0.119 S 
BRANCH  23  24
ATOM     24  C   UNL     1      -1.293  -0.775   0.010  0.00  0.00    +0.107 C 
BRANCH  24  30
ATOM     25  C   UNL     1      -0.017   1.378   0.010  0.00  0.00    +0.006 A 
ATOM     26  C   UNL     1       1.171   2.086   0.002  0.00  0.00    +0.033 A 
ATOM     27  C   UNL     1       2.377   1.411  -0.013  0.00  0.00    +0.126 A 
ATOM     28  C   UNL     1       2.396   0.029  -0.020  0.00  0.00    +0.033 A 
ATOM     29  C   UNL     1       1.208  -0.679  -0.012  0.00  0.00    +0.006 A 
ATOM     30  C   UNL     1       0.002  -0.004   0.002  0.00  0.00    -0.037 A 
BRANCH  27  31
ATOM     31  N   UNL     1       3.649   2.168  -0.022  0.00  0.00    +0.056 N 
ATOM     32  O   UNL     1       3.633   3.377  -0.016  0.00  0.00    -0.126 OA
ATOM     33  O   UNL     1       4.704   1.578  -0.035  0.00  0.00    -0.126 OA
ENDBRANCH  27  31
ENDBRANCH  24  30
ENDBRANCH  23  24
ENDBRANCH   1  23
TORSDOF 7
