REMARK  Name = ZINC21964351
REMARK  4 active torsions:
REMARK  status: ('A' for Active; 'I' for Inactive)
REMARK    1  A    between atoms: C_3  and  N_31
REMARK    2  A    between atoms: C_6  and  N_7
REMARK    3  A    between atoms: N_20  and  N_21
REMARK    4  A    between atoms: C_22  and  C_23
REMARK                            x       y       z     vdW  Elec       q    Type
REMARK                         _______ _______ _______ _____ _____    ______ ____
ROOT
ATOM      1  N   UNL     1      -1.173  -0.730  -0.494  0.00  0.00    -0.283 N 
ATOM      2  C   UNL     1      -1.163  -2.099  -0.313  0.00  0.00    +0.225 A 
ATOM      3  N   UNL     1      -0.011  -2.762  -0.316  0.00  0.00    -0.179 NA
ATOM      4  C   UNL     1      -0.001  -4.080  -0.142  0.00  0.00    +0.241 A 
ATOM      5  N   UNL     1      -1.145  -4.736   0.036  0.00  0.00    -0.180 NA
ATOM      6  C   UNL     1      -2.297  -4.073   0.039  0.00  0.00    +0.224 A 
ATOM      7  N   UNL     1      -2.306  -2.754  -0.130  0.00  0.00    -0.181 NA
ATOM      8  N   UNL     1      -3.484  -4.753   0.223  0.00  0.00    -0.299 N 
ATOM      9  C   UNL     1      -4.766  -4.035   0.223  0.00  0.00    +0.108 C 
ATOM     10  C   UNL     1      -5.700  -4.694  -0.797  0.00  0.00    +0.019 C 
ATOM     11  C   UNL     1      -5.816  -6.188  -0.486  0.00  0.00    +0.003 C 
ATOM     12  C   UNL     1      -4.437  -6.843  -0.600  0.00  0.00    +0.019 C 
ATOM     13  C   UNL     1      -3.490  -6.210   0.416  0.00  0.00    +0.108 C 
ATOM     14  N   UNL     1       1.196  -4.769  -0.145  0.00  0.00    -0.205 N 
ATOM     15  H   UNL     1      -2.003  -0.235  -0.405  0.00  0.00    +0.155 HD
ATOM     16  H   UNL     1       2.017  -4.315   0.102  0.00  0.00    +0.177 HD
ENDROOT
BRANCH   1  22
ATOM     17  C   UNL     1      -0.021   1.076  -1.609  0.00  0.00    +0.025 A 
ATOM     18  C   UNL     1       1.152   1.738  -1.914  0.00  0.00    +0.034 A 
ATOM     19  C   UNL     1       2.358   1.274  -1.422  0.00  0.00    +0.126 A 
ATOM     20  C   UNL     1       2.395   0.146  -0.623  0.00  0.00    +0.034 A 
ATOM     21  C   UNL     1       1.225  -0.521  -0.313  0.00  0.00    +0.025 A 
ATOM     22  C   UNL     1       0.012  -0.057  -0.806  0.00  0.00    +0.034 A 
BRANCH  19  23
ATOM     23  N   UNL     1       3.613   1.986  -1.752  0.00  0.00    +0.056 N 
ATOM     24  O   UNL     1       3.583   2.972  -2.451  0.00  0.00    -0.126 OA
ATOM     25  O   UNL     1       4.669   1.581  -1.323  0.00  0.00    -0.126 OA
ENDBRANCH  19  23
ENDBRANCH   1  22
BRANCH  14  26
ATOM     26  N   UNL     1       1.224  -6.122  -0.507  0.00  0.00    -0.187 NA
ATOM     27  C   UNL     1       2.355  -6.757  -0.555  0.00  0.00    +0.139 C 
BRANCH  27  28
ATOM     28  C   UNL     1       2.381  -8.191  -0.894  0.00  0.00    +0.013 A 
ATOM     29  C   UNL     1       3.592  -8.889  -0.902  0.00  0.00    +0.012 A 
ATOM     30  C   UNL     1       3.610 -10.230  -1.220  0.00  0.00    +0.021 A 
ATOM     31  C   UNL     1       2.431 -10.887  -1.532  0.00  0.00    +0.042 A 
ATOM     32  C   UNL     1       1.227 -10.204  -1.526  0.00  0.00    +0.040 A 
ATOM     33  C   UNL     1       1.194  -8.861  -1.203  0.00  0.00    +0.051 A 
ATOM     34 CL   UNL     1      -0.317  -8.007  -1.190  0.00  0.00    -0.083 Cl
ATOM     35 CL   UNL     1       2.463 -12.576  -1.932  0.00  0.00    -0.083 Cl
ENDBRANCH  27  28
ENDBRANCH  14  26
TORSDOF 4
