REMARK  Name = ZINC08800928
REMARK  9 active torsions:
REMARK  status: ('A' for Active; 'I' for Inactive)
REMARK    1  A    between atoms: C_1  and  C_2
REMARK    2  A    between atoms: N_4  and  C_5
REMARK    3  A    between atoms: C_8  and  S_11
REMARK    4  A    between atoms: S_11  and  N_14
REMARK    5  A    between atoms: N_14  and  C_15
REMARK    6  A    between atoms: C_15  and  C_16
REMARK    7  A    between atoms: C_16  and  C_18
REMARK    8  A    between atoms: C_16  and  N_61
REMARK    9  A    between atoms: N_26  and  C_27
REMARK                            x       y       z     vdW  Elec       q    Type
REMARK                         _______ _______ _______ _____ _____    ______ ____
ROOT
ATOM      1  C   UNL     1      -4.635   4.708   1.714  0.00  0.00    +0.095 C 
ENDROOT
BRANCH   1   2
ATOM      2  N   UNL     1      -3.505   3.938   2.239  0.00  0.00    -0.191 NA
ATOM      3  H   UNL     1      -3.268   4.002   3.177  0.00  0.00    +0.148 HD
BRANCH   2   4
ATOM      4  S   UNL     1      -2.631   2.958   1.229  0.00  0.00    +0.058 S 
ATOM      5  O   UNL     1      -3.572   2.175   0.508  0.00  0.00    -0.153 OA
ATOM      6  O   UNL     1      -1.601   2.377   2.018  0.00  0.00    -0.153 OA
BRANCH   4  10
ATOM      7  C   UNL     1      -0.587   5.636  -1.797  0.00  0.00    +0.033 A 
ATOM      8  C   UNL     1      -1.854   5.132  -2.058  0.00  0.00    +0.025 A 
ATOM      9  C   UNL     1      -2.472   4.311  -1.136  0.00  0.00    +0.030 A 
ATOM     10  C   UNL     1      -1.836   4.000   0.052  0.00  0.00    +0.105 A 
ATOM     11  C   UNL     1      -0.576   4.505   0.317  0.00  0.00    +0.030 A 
ATOM     12  C   UNL     1       0.050   5.322  -0.604  0.00  0.00    +0.025 A 
BRANCH   7  16
ATOM     13  C   UNL     1       0.429   7.229  -5.053  0.00  0.00    +0.109 C 
ATOM     14  C   UNL     1      -0.162   6.272  -4.050  0.00  0.00    +0.214 C 
ATOM     15  O   UNL     1      -0.822   5.328  -4.429  0.00  0.00    -0.276 OA
ATOM     16  N   UNL     1       0.044   6.464  -2.732  0.00  0.00    -0.286 N 
ATOM     17  H   UNL     1       0.633   7.174  -2.432  0.00  0.00    +0.155 HD
ENDBRANCH   7  16
ENDBRANCH   4  10
ENDBRANCH   2   4
ENDBRANCH   1   2
BRANCH   1  18
ATOM     18  C   UNL     1      -5.497   5.204   2.877  0.00  0.00    -0.022 C 
BRANCH  18  19
ATOM     19  C   UNL     1      -4.709   6.188   3.703  0.00  0.00    -0.059 A 
ATOM     20  C   UNL     1      -4.583   7.500   3.284  0.00  0.00    +0.004 A 
ATOM     21  C   UNL     1      -3.861   8.403   4.036  0.00  0.00    +0.023 A 
ATOM     22  C   UNL     1      -3.254   8.000   5.224  0.00  0.00    +0.033 A 
ATOM     23  C   UNL     1      -3.391   6.680   5.639  0.00  0.00    -0.025 A 
ATOM     24  C   UNL     1      -4.117   5.782   4.885  0.00  0.00    +0.007 A 
ATOM     25  C   UNL     1      -2.648   6.523   6.951  0.00  0.00    +0.056 C 
ATOM     26  C   UNL     1      -2.444   7.986   7.407  0.00  0.00    +0.109 C 
ATOM     27  N   UNL     1      -2.475   8.731   6.129  0.00  0.00    -0.332 N 
ATOM     28  C   UNL     1      -3.018  10.082   6.320  0.00  0.00    +0.129 C 
ENDBRANCH  18  19
BRANCH  18  33
ATOM     29  C   UNL     1      -7.493   4.926   1.510  0.00  0.00    -0.078 C 
ATOM     30  C   UNL     1      -8.902   5.571   1.494  0.00  0.00    -0.020 C 
ATOM     31  C   UNL     1      -9.043   6.128   2.929  0.00  0.00    -0.020 C 
ATOM     32  C   UNL     1      -7.600   6.280   3.446  0.00  0.00    -0.078 C 
ATOM     33  N   UNL     1      -6.728   5.864   2.346  0.00  0.00    +0.385 N 
ATOM     34  H   UNL     1      -6.457   6.683   1.790  0.00  0.00    -0.081 HD
ENDBRANCH  18  33
ENDBRANCH   1  18
TORSDOF 7
