REMARK  Name = ZINC02128571
REMARK  3 active torsions:
REMARK  status: ('A' for Active; 'I' for Inactive)
REMARK    1  A    between atoms: C_1  and  C_2
REMARK    2  A    between atoms: C_2  and  C_4
REMARK    3  A    between atoms: C_7  and  N_10
REMARK                            x       y       z     vdW  Elec       q    Type
REMARK                         _______ _______ _______ _____ _____    ______ ____
ROOT
ATOM      1  N   UNL     1      -4.842  -2.889   0.034  0.00  0.00    -0.210 N 
ATOM      2  C   UNL     1      -6.037  -2.296   0.136  0.00  0.00    +0.228 C 
ATOM      3  O   UNL     1      -6.220  -1.101   0.231  0.00  0.00    -0.275 OA
ATOM      4  C   UNL     1      -7.123  -3.347   0.116  0.00  0.00    +0.074 C 
ATOM      5  C   UNL     1      -7.942  -3.211  -1.181  0.00  0.00    -0.054 C 
ATOM      6  C   UNL     1      -7.833  -1.765  -1.700  0.00  0.00    -0.016 C 
ATOM      7  C   UNL     1      -6.622  -1.761  -2.654  0.00  0.00    -0.020 C 
ATOM      8  C   UNL     1      -6.075  -3.202  -2.617  0.00  0.00    -0.076 C 
ATOM      9  N   UNL     1      -7.234  -4.062  -2.184  0.00  0.00    +0.395 N 
ATOM     10  C   UNL     1      -6.747  -5.217  -1.412  0.00  0.00    +0.053 C 
ATOM     11  C   UNL     1      -6.332  -4.677  -0.023  0.00  0.00    +0.089 C 
ATOM     12  C   UNL     1      -4.890  -4.223  -0.065  0.00  0.00    +0.229 C 
ATOM     13  O   UNL     1      -3.928  -4.953  -0.169  0.00  0.00    -0.275 OA
ATOM     14  C   UNL     1      -7.799  -6.283  -1.290  0.00  0.00    -0.026 A 
ATOM     15  C   UNL     1      -9.070  -6.303  -0.759  0.00  0.00    +0.004 A 
ATOM     16  C   UNL     1      -9.818  -7.466  -0.795  0.00  0.00    +0.002 A 
ATOM     17  C   UNL     1      -9.287  -8.608  -1.366  0.00  0.00    +0.022 A 
ATOM     18  C   UNL     1      -8.014  -8.594  -1.899  0.00  0.00    +0.062 A 
ATOM     19  C   UNL     1      -7.254  -7.425  -1.866  0.00  0.00    +0.054 A 
ATOM     20  N   UNL     1      -5.963  -7.162  -2.332  0.00  0.00    -0.285 N 
ATOM     21  C   UNL     1      -5.591  -5.889  -2.105  0.00  0.00    +0.212 C 
ATOM     22  O   UNL     1      -4.530  -5.381  -2.400  0.00  0.00    -0.277 OA
ATOM     23 CL   UNL     1      -7.357 -10.034  -2.612  0.00  0.00    -0.082 Cl
ATOM     24  H   UNL     1      -5.401  -7.821  -2.768  0.00  0.00    +0.155 HD
ATOM     25  H   UNL     1      -7.830  -4.328  -2.954  0.00  0.00    -0.079 HD
ENDROOT
BRANCH   1  29
ATOM     26  C   UNL     1      -1.259  -0.757   0.009  0.00  0.00    +0.017 A 
ATOM     27  C   UNL     1      -2.045  -0.797   1.168  0.00  0.00    +0.013 A 
ATOM     28  C   UNL     1      -3.227  -1.502   1.171  0.00  0.00    +0.024 A 
ATOM     29  C   UNL     1      -3.641  -2.174   0.026  0.00  0.00    +0.044 A 
ATOM     30  C   UNL     1      -2.864  -2.137  -1.128  0.00  0.00    +0.024 A 
ATOM     31  C   UNL     1      -1.684  -1.430  -1.143  0.00  0.00    +0.013 A 
BRANCH  26  33
ATOM     32  C   UNL     1       0.458   0.718   1.242  0.00  0.00    +0.091 C 
ATOM     33  C   UNL     1       0.003  -0.006   0.000  0.00  0.00    +0.160 C 
ATOM     34  O   UNL     1       0.680   0.032  -1.006  0.00  0.00    -0.292 OA
ENDBRANCH  26  33
ENDBRANCH   1  29
TORSDOF 2
