REMARK  Name = ZINC63795976
REMARK  5 active torsions:
REMARK  status: ('A' for Active; 'I' for Inactive)
REMARK    1  A    between atoms: C_4  and  C_7
REMARK    2  A    between atoms: C_9  and  C_14
REMARK    3  A    between atoms: N_16  and  C_17
REMARK    4  A    between atoms: C_17  and  C_18
REMARK    5  A    between atoms: C_18  and  C_19
REMARK                            x       y       z     vdW  Elec       q    Type
REMARK                         _______ _______ _______ _____ _____    ______ ____
ROOT
ATOM      1  C   UNL     1       5.318  -0.443   1.881  0.00  0.00    +0.229 C 
ATOM      2  O   UNL     1       6.179  -0.133   1.085  0.00  0.00    -0.274 OA
ATOM      3  N   UNL     1       5.482  -0.170   3.191  0.00  0.00    -0.314 N 
ATOM      4  H   UNL     1       4.793  -0.418   3.828  0.00  0.00    +0.149 HD
ENDROOT
BRANCH   1   6
ATOM      5  C   UNL     1       3.711  -0.707  -0.038  0.00  0.00    +0.123 C 
ATOM      6  C   UNL     1       4.065  -1.133   1.406  0.00  0.00    +0.171 C 
ATOM      7  S   UNL     1       4.345  -2.942   1.196  0.00  0.00    -0.051 S 
ATOM      8  N   UNL     1       4.522  -2.947  -0.593  0.00  0.00    -0.199 NA
ATOM      9  N   UNL     1       3.603  -1.851  -0.948  0.00  0.00    -0.238 NA
ATOM     10  H   UNL     1       4.208  -3.823  -0.985  0.00  0.00    +0.154 HD
ATOM     11  H   UNL     1       2.650  -2.180  -1.003  0.00  0.00    +0.142 HD
BRANCH   5  15
ATOM     12  C   UNL     1      -0.017   1.378   0.010  0.00  0.00    +0.000 A 
ATOM     13  C   UNL     1       1.171   2.086   0.002  0.00  0.00    +0.000 A 
ATOM     14  C   UNL     1       2.377   1.411  -0.013  0.00  0.00    +0.005 A 
ATOM     15  C   UNL     1       2.396   0.029  -0.020  0.00  0.00    -0.028 A 
ATOM     16  C   UNL     1       1.208  -0.679  -0.012  0.00  0.00    +0.005 A 
ATOM     17  C   UNL     1       0.002  -0.004   0.002  0.00  0.00    +0.000 A 
ENDBRANCH   5  15
ENDBRANCH   1   6
BRANCH   3  18
ATOM     18  C   UNL     1       6.700   0.501   3.653  0.00  0.00    +0.108 C 
BRANCH  18  19
ATOM     19  C   UNL     1       6.634   0.690   5.170  0.00  0.00    +0.052 C 
BRANCH  19  20
ATOM     20  C   UNL     1       7.886   1.380   5.645  0.00  0.00    -0.040 C 
ATOM     21  C   UNL     1       8.055   2.705   5.855  0.00  0.00    +0.000 A 
ATOM     22  C   UNL     1       7.157   3.857   5.709  0.00  0.00    +0.030 A 
ATOM     23  C   UNL     1       7.622   5.094   6.001  0.00  0.00    +0.042 A 
ATOM     24  C   UNL     1       8.939   5.301   6.439  0.00  0.00    +0.022 A 
ATOM     25  C   UNL     1       9.822   4.293   6.597  0.00  0.00    +0.027 A 
ATOM     26  C   UNL     1       9.439   2.951   6.319  0.00  0.00    +0.043 A 
ATOM     27  N   UNL     1      10.100   1.822   6.393  0.00  0.00    -0.380 N 
ATOM     28  C   UNL     1       9.207   0.730   5.990  0.00  0.00    +0.144 C 
ATOM     29 CL   UNL     1       6.563   6.459   5.830  0.00  0.00    -0.084 Cl
ATOM     30  H   UNL     1      11.024   1.724   6.671  0.00  0.00    +0.160 HD
ENDBRANCH  19  20
ENDBRANCH  18  19
ENDBRANCH   3  18
TORSDOF 5
