REMARK  Name = ZINC09631506
REMARK  7 active torsions:
REMARK  status: ('A' for Active; 'I' for Inactive)
REMARK    1  A    between atoms: C_1  and  N_2
REMARK    2  A    between atoms: C_10  and  C_11
REMARK    3  A    between atoms: C_11  and  C_12
REMARK    4  A    between atoms: N_14  and  N_15
REMARK    5  A    between atoms: C_16  and  C_18
REMARK    6  A    between atoms: C_18  and  C_19
REMARK    7  A    between atoms: C_19  and  N_20
REMARK                            x       y       z     vdW  Elec       q    Type
REMARK                         _______ _______ _______ _____ _____    ______ ____
ROOT
ATOM      1  N   UNL     1       6.394   1.082   0.082  0.00  0.00    -0.234 N 
ATOM      2  C   UNL     1       5.515   1.922   0.662  0.00  0.00    +0.231 C 
ATOM      3  O   UNL     1       5.668   2.256   1.818  0.00  0.00    -0.274 OA
ATOM      4  H   UNL     1       6.271   0.815  -0.843  0.00  0.00    +0.173 HD
ENDROOT
BRANCH   1   7
ATOM      5  C   UNL     1       8.364  -0.247   0.232  0.00  0.00    +0.236 C 
ATOM      6  O   UNL     1       8.211  -0.581  -0.924  0.00  0.00    -0.274 OA
ATOM      7  N   UNL     1       7.485   0.594   0.813  0.00  0.00    -0.234 N 
ATOM      8  H   UNL     1       7.607   0.861   1.738  0.00  0.00    +0.173 HD
BRANCH   5   9
ATOM      9  C   UNL     1       9.537  -0.771   1.019  0.00  0.00    +0.171 C 
BRANCH   9  19
ATOM     10  C   UNL     1      11.902   0.082  -0.781  0.00  0.00    +0.150 C 
ATOM     11  N   UNL     1      11.397  -1.285  -0.638  0.00  0.00    -0.330 N 
ATOM     12  C   UNL     1      11.886  -2.409  -1.275  0.00  0.00    +0.069 A 
ATOM     13  C   UNL     1      12.914  -2.637  -2.179  0.00  0.00    +0.028 A 
ATOM     14  C   UNL     1      13.150  -3.916  -2.636  0.00  0.00    +0.002 A 
ATOM     15  C   UNL     1      12.367  -4.975  -2.199  0.00  0.00    +0.002 A 
ATOM     16  C   UNL     1      11.351  -4.769  -1.310  0.00  0.00    +0.030 A 
ATOM     17  C   UNL     1      11.093  -3.481  -0.832  0.00  0.00    +0.089 A 
ATOM     18  N   UNL     1      10.184  -2.969   0.037  0.00  0.00    -0.232 NA
ATOM     19  C   UNL     1      10.360  -1.684   0.146  0.00  0.00    +0.119 A 
ENDBRANCH   9  19
ENDBRANCH   5   9
ENDBRANCH   1   7
BRANCH   2  20
ATOM     20  C   UNL     1       4.342   2.447  -0.124  0.00  0.00    +0.116 C 
BRANCH  20  21
ATOM     21  C   UNL     1       3.507   3.373   0.762  0.00  0.00    +0.120 C 
BRANCH  21  22
ATOM     22  N   UNL     1       2.366   3.883  -0.003  0.00  0.00    -0.298 N 
ATOM     23  C   UNL     1       1.165   3.166   0.007  0.00  0.00    +0.048 A 
ATOM     24  C   UNL     1       1.179   1.780   0.000  0.00  0.00    +0.024 A 
ATOM     25  C   UNL     1      -0.013   1.076   0.008  0.00  0.00    +0.002 A 
ATOM     26  C   UNL     1      -1.221   1.746   0.017  0.00  0.00    +0.001 A 
ATOM     27  C   UNL     1      -1.247   3.131   0.031  0.00  0.00    +0.017 A 
ATOM     28  C   UNL     1      -0.059   3.838   0.023  0.00  0.00    +0.034 A 
ATOM     29  S   UNL     1      -0.060   5.604   0.034  0.00  0.00    -0.086 S 
ATOM     30  C   UNL     1       1.451   5.986  -0.796  0.00  0.00    +0.034 A 
ATOM     31  C   UNL     1       2.508   5.075  -0.722  0.00  0.00    +0.048 A 
ATOM     32  C   UNL     1       3.700   5.363  -1.369  0.00  0.00    +0.024 A 
ATOM     33  C   UNL     1       3.833   6.543  -2.080  0.00  0.00    +0.002 A 
ATOM     34  C   UNL     1       2.784   7.440  -2.150  0.00  0.00    +0.001 A 
ATOM     35  C   UNL     1       1.589   7.162  -1.507  0.00  0.00    +0.017 A 
ENDBRANCH  21  22
ENDBRANCH  20  21
ENDBRANCH   2  20
TORSDOF 6
