REMARK  Name = ZINC17113038
REMARK  6 active torsions:
REMARK  status: ('A' for Active; 'I' for Inactive)
REMARK    1  A    between atoms: C_1  and  C_2
REMARK    2  A    between atoms: C_3  and  C_22
REMARK    3  A    between atoms: C_8  and  C_10
REMARK    4  A    between atoms: C_10  and  C_11
REMARK    5  A    between atoms: C_11  and  N_12
REMARK    6  A    between atoms: C_22  and  C_24
REMARK                            x       y       z     vdW  Elec       q    Type
REMARK                         _______ _______ _______ _____ _____    ______ ____
ROOT
ATOM      1  C   UNL     1      -0.018   1.503   0.010  0.00  0.00    +0.067 C 
ATOM      2  C   UNL     1       0.002  -0.004   0.002  0.00  0.00    +0.058 A 
ATOM      3  C   UNL     1       0.006  -0.734  -1.186  0.00  0.00    +0.078 A 
ATOM      4  S   UNL     1       0.032  -2.401  -0.546  0.00  0.00    -0.049 S 
ATOM      5  C   UNL     1       0.035  -2.022   1.094  0.00  0.00    +0.165 A 
ATOM      6  N   UNL     1       0.022  -0.700   1.108  0.00  0.00    -0.229 NA
ATOM      7  N   UNL     1       0.052  -2.888   2.171  0.00  0.00    -0.265 N 
ATOM      8  C   UNL     1       0.051  -2.401   3.428  0.00  0.00    +0.220 C 
ATOM      9  O   UNL     1       0.036  -1.202   3.613  0.00  0.00    -0.275 OA
ATOM     10  H   UNL     1       0.064  -3.846   2.023  0.00  0.00    +0.157 HD
ENDROOT
BRANCH   3  11
ATOM     11  C   UNL     1      -0.007  -0.281  -2.520  0.00  0.00    +0.168 C 
ATOM     12  O   UNL     1      -0.025   0.910  -2.757  0.00  0.00    -0.292 OA
ATOM     13  C   UNL     1       0.001  -1.275  -3.653  0.00  0.00    +0.092 C 
ENDBRANCH   3  11
BRANCH   8  14
ATOM     14  C   UNL     1       0.070  -3.345   4.602  0.00  0.00    +0.118 C 
BRANCH  14  15
ATOM     15  C   UNL     1       0.066  -2.540   5.903  0.00  0.00    +0.135 C 
BRANCH  15  16
ATOM     16  N   UNL     1       0.084  -3.458   7.045  0.00  0.00    -0.301 N 
ATOM     17  C   UNL     1      -1.111  -3.908   7.582  0.00  0.00    +0.059 A 
ATOM     18  C   UNL     1      -2.414  -3.590   7.164  0.00  0.00    +0.027 A 
ATOM     19  C   UNL     1      -3.509  -4.120   7.803  0.00  0.00    +0.002 A 
ATOM     20  C   UNL     1      -3.366  -4.982   8.878  0.00  0.00    +0.001 A 
ATOM     21  C   UNL     1      -2.094  -5.312   9.312  0.00  0.00    +0.017 A 
ATOM     22  C   UNL     1      -1.000  -4.783   8.672  0.00  0.00    +0.041 A 
ATOM     23  S   UNL     1       0.756  -4.933   8.893  0.00  0.00    -0.027 S 
ATOM     24  C   UNL     1       1.263  -3.860   7.559  0.00  0.00    +0.292 A 
ATOM     25  O   UNL     1       2.389  -3.565   7.203  0.00  0.00    -0.259 OA
ENDBRANCH  15  16
ENDBRANCH  14  15
ENDBRANCH   8  14
TORSDOF 4
