REMARK  Name = ZINC14001992
REMARK  6 active torsions:
REMARK  status: ('A' for Active; 'I' for Inactive)
REMARK    1  A    between atoms: C_6  and  C_7
REMARK    2  A    between atoms: C_7  and  C_8
REMARK    3  A    between atoms: N_10  and  C_11
REMARK    4  A    between atoms: C_11  and  N_13
REMARK    5  A    between atoms: N_13  and  C_14
REMARK    6  A    between atoms: C_15  and  C_23
REMARK                            x       y       z     vdW  Elec       q    Type
REMARK                         _______ _______ _______ _____ _____    ______ ____
ROOT
ATOM      1  N   UNL     1      -0.487   1.406  -4.765  0.00  0.00    -0.291 N 
ATOM      2  H   UNL     1       0.308   0.860  -4.865  0.00  0.00    +0.154 HD
ENDROOT
BRANCH   1   3
ATOM      3  C   UNL     1      -1.157   1.865  -5.888  0.00  0.00    +0.084 A 
ATOM      4  C   UNL     1      -0.845   1.656  -7.224  0.00  0.00    +0.068 A 
ATOM      5  C   UNL     1      -1.722   2.251  -8.219  0.00  0.00    -0.023 A 
ATOM      6  C   UNL     1      -2.756   2.963  -7.722  0.00  0.00    -0.004 A 
ATOM      7  S   UNL     1      -2.584   2.845  -5.964  0.00  0.00    -0.077 S 
ATOM      8  C   UNL     1      -3.810   3.688  -8.501  0.00  0.00    +0.043 C 
ATOM      9  C   UNL     1      -3.334   3.818  -9.955  0.00  0.00    +0.005 C 
ATOM     10  C   UNL     1      -2.827   2.454 -10.432  0.00  0.00    +0.005 C 
ATOM     11  C   UNL     1      -1.517   2.108  -9.722  0.00  0.00    +0.037 C 
BRANCH   4  12
ATOM     12  C   UNL     1       0.322   0.862  -7.617  0.00  0.00    +0.244 C 
ATOM     13  O   UNL     1       0.214  -0.339  -7.783  0.00  0.00    -0.270 OA
ATOM     14  N   UNL     1       1.516   1.462  -7.795  0.00  0.00    -0.325 N 
ATOM     15  H   UNL     1       1.603   2.419  -7.662  0.00  0.00    +0.145 HD
ATOM     16  H   UNL     1       2.289   0.936  -8.055  0.00  0.00    +0.145 HD
ENDBRANCH   4  12
ENDBRANCH   1   3
BRANCH   1  17
ATOM     17  C   UNL     1      -0.940   1.719  -3.535  0.00  0.00    +0.141 C 
ATOM     18  S   UNL     1      -2.344   2.683  -3.359  0.00  0.00    -0.018 S 
BRANCH  17  21
ATOM     19  C   UNL     1      -0.742   1.585  -1.213  0.00  0.00    +0.223 C 
ATOM     20  O   UNL     1      -1.736   2.268  -1.089  0.00  0.00    -0.275 OA
ATOM     21  N   UNL     1      -0.288   1.272  -2.443  0.00  0.00    -0.267 N 
ATOM     22  H   UNL     1       0.507   0.726  -2.543  0.00  0.00    +0.157 HD
BRANCH  19  23
ATOM     23  C   UNL     1      -0.013   1.086   0.008  0.00  0.00    +0.131 C 
BRANCH  23  29
ATOM     24  C   UNL     1      -0.360   2.779   1.818  0.00  0.00    +0.005 A 
ATOM     25  C   UNL     1      -1.010   3.228   2.952  0.00  0.00    +0.020 A 
ATOM     26  C   UNL     1      -2.012   2.464   3.523  0.00  0.00    +0.041 A 
ATOM     27  C   UNL     1      -2.367   1.253   2.955  0.00  0.00    +0.020 A 
ATOM     28  C   UNL     1      -1.719   0.808   1.817  0.00  0.00    +0.005 A 
ATOM     29  C   UNL     1      -0.718   1.572   1.248  0.00  0.00    -0.039 A 
ATOM     30 CL   UNL     1      -2.825   3.024   4.951  0.00  0.00    -0.084 Cl
ENDBRANCH  23  29
ENDBRANCH  19  23
ENDBRANCH  17  21
ENDBRANCH   1  17
TORSDOF 6
