REMARK  Name = ZINC02129800
REMARK  7 active torsions:
REMARK  status: ('A' for Active; 'I' for Inactive)
REMARK    1  A    between atoms: C_1  and  C_2
REMARK    2  A    between atoms: C_17  and  C_19
REMARK    3  A    between atoms: C_19  and  C_20
REMARK    4  A    between atoms: C_20  and  C_21
REMARK    5  A    between atoms: N_25  and  C_28
REMARK    6  A    between atoms: C_28  and  C_30
REMARK    7  A    between atoms: C_28  and  C_31
REMARK                            x       y       z     vdW  Elec       q    Type
REMARK                         _______ _______ _______ _____ _____    ______ ____
ROOT
ATOM      1  C   UNL     1      -1.982  -3.701  -0.504  0.00  0.00    +0.044 C 
ATOM      2  C   UNL     1      -2.422  -2.365  -1.044  0.00  0.00    -0.049 A 
ATOM      3  C   UNL     1      -1.819  -1.203  -0.595  0.00  0.00    +0.008 A 
ATOM      4  C   UNL     1      -2.220   0.018  -1.090  0.00  0.00    -0.026 A 
ATOM      5  C   UNL     1      -3.231   0.099  -2.043  0.00  0.00    +0.054 A 
ATOM      6  C   UNL     1      -3.833  -1.075  -2.490  0.00  0.00    +0.063 A 
ATOM      7  C   UNL     1      -3.427  -2.297  -1.991  0.00  0.00    +0.025 A 
ATOM      8 CL   UNL     1      -5.097  -1.003  -3.678  0.00  0.00    -0.082 Cl
ATOM      9  N   UNL     1      -3.461   1.433  -2.391  0.00  0.00    -0.285 N 
ATOM     10  C   UNL     1      -2.655   2.279  -1.720  0.00  0.00    +0.211 C 
ATOM     11  O   UNL     1      -2.632   3.487  -1.817  0.00  0.00    -0.277 OA
ATOM     12  C   UNL     1      -1.791   1.433  -0.826  0.00  0.00    +0.050 C 
ATOM     13  C   UNL     1      -1.972   1.808   0.650  0.00  0.00    +0.088 C 
ATOM     14  C   UNL     1      -0.561   1.627   1.276  0.00  0.00    +0.073 C 
ATOM     15  C   UNL     1       0.331   1.150   0.110  0.00  0.00    -0.057 C 
ATOM     16  C   UNL     1      -0.167   3.034   1.663  0.00  0.00    +0.225 C 
ATOM     17  O   UNL     1       0.881   3.349   2.185  0.00  0.00    -0.275 OA
ATOM     18  N   UNL     1      -1.155   3.877   1.341  0.00  0.00    -0.235 N 
ATOM     19  C   UNL     1      -2.216   3.296   0.769  0.00  0.00    +0.226 C 
ATOM     20  O   UNL     1      -3.217   3.873   0.403  0.00  0.00    -0.275 OA
ATOM     21  H   UNL     1      -4.124   1.717  -3.040  0.00  0.00    +0.155 HD
ATOM     22  N   UNL     1      -0.371   1.613  -1.088  0.00  0.00    +0.394 N 
ATOM     23  H   UNL     1      -0.165   2.603  -1.261  0.00  0.00    -0.083 HD
ATOM     24  H   UNL     1      -0.088   1.056  -1.903  0.00  0.00    -0.083 HD
ENDROOT
BRANCH  18  25
ATOM     25  C   UNL     1      -1.081   5.318   1.594  0.00  0.00    +0.111 C 
ATOM     26  C   UNL     1       0.108   5.909   0.832  0.00  0.00    +0.033 C 
BRANCH  25  27
ATOM     27  C   UNL     1      -0.901   5.560   3.070  0.00  0.00    -0.027 A 
ATOM     28  C   UNL     1      -1.500   4.716   3.987  0.00  0.00    +0.005 A 
ATOM     29  C   UNL     1      -1.332   4.936   5.341  0.00  0.00    +0.000 A 
ATOM     30  C   UNL     1      -0.574   6.005   5.779  0.00  0.00    +0.000 A 
ATOM     31  C   UNL     1       0.021   6.853   4.863  0.00  0.00    +0.000 A 
ATOM     32  C   UNL     1      -0.144   6.630   3.508  0.00  0.00    +0.005 A 
ENDBRANCH  25  27
ENDBRANCH  18  25
BRANCH  15  33
ATOM     33  C   UNL     1       1.724   1.773   0.217  0.00  0.00    -0.004 C 
BRANCH  33  34
ATOM     34  C   UNL     1       2.617   1.221  -0.896  0.00  0.00    +0.123 C 
BRANCH  34  35
ATOM     35  C   UNL     1       3.989   1.835  -0.791  0.00  0.00    +0.356 C 
ATOM     36  O   UNL     1       4.229   2.632   0.084  0.00  0.00    -0.246 OA
ATOM     37  O   UNL     1       4.945   1.495  -1.670  0.00  0.00    -0.246 OA
ENDBRANCH  34  35
ENDBRANCH  33  34
ENDBRANCH  15  33
TORSDOF 5
