REMARK  Name = ZINC42608727
REMARK  5 active torsions:
REMARK  status: ('A' for Active; 'I' for Inactive)
REMARK    1  A    between atoms: C_1  and  C_2
REMARK    2  A    between atoms: C_8  and  N_10
REMARK    3  A    between atoms: N_10  and  C_11
REMARK    4  A    between atoms: N_10  and  C_12
REMARK    5  A    between atoms: C_13  and  C_20
REMARK                            x       y       z     vdW  Elec       q    Type
REMARK                         _______ _______ _______ _____ _____    ______ ____
ROOT
ATOM      1  C   UNL     1       0.742   1.022   3.187  0.00  0.00    +0.145 A 
ATOM      2  C   UNL     1       0.349   1.468   4.398  0.00  0.00    +0.080 A 
ATOM      3  N   UNL     1       1.452   2.081   5.000  0.00  0.00    -0.294 N 
ATOM      4  C   UNL     1       1.752   2.723   6.182  0.00  0.00    +0.101 A 
ATOM      5  C   UNL     1       2.976   3.198   6.408  0.00  0.00    +0.067 A 
ATOM      6  S   UNL     1       3.828   2.753   4.902  0.00  0.00    -0.058 S 
ATOM      7  C   UNL     1       2.463   1.960   4.085  0.00  0.00    +0.179 A 
ATOM      8  N   UNL     1       2.040   1.332   3.024  0.00  0.00    -0.206 NA
ENDROOT
BRANCH   1   9
ATOM      9  N   UNL     1      -0.064   0.345   2.259  0.00  0.00    -0.313 N 
ATOM     10  C   UNL     1      -1.439  -0.018   2.610  0.00  0.00    +0.131 C 
BRANCH   9  17
ATOM     11  C   UNL     1      -0.254   2.229   0.067  0.00  0.00    +0.009 C 
ATOM     12  C   UNL     1      -0.345   0.717  -0.142  0.00  0.00    +0.006 C 
ATOM     13  C   UNL     1      -1.808   0.276  -0.053  0.00  0.00    +0.005 C 
ATOM     14  C   UNL     1      -1.899  -1.236  -0.262  0.00  0.00    +0.000 C 
ATOM     15  C   UNL     1      -1.084  -1.951   0.818  0.00  0.00    +0.002 C 
ATOM     16  C   UNL     1       0.379  -1.511   0.729  0.00  0.00    +0.023 C 
ATOM     17  C   UNL     1       0.469   0.002   0.938  0.00  0.00    +0.077 C 
ENDBRANCH   9  17
ENDBRANCH   1   9
BRANCH   2  18
ATOM     18  C   UNL     1      -1.028   1.330   4.994  0.00  0.00    +0.165 C 
ATOM     19 CL   UNL     1      -2.073   2.678   4.409  0.00  0.00    -0.119 Cl
ENDBRANCH   2  18
TORSDOF 3
