REMARK  Name = ZINC66954989
REMARK  11 active torsions:
REMARK  status: ('A' for Active; 'I' for Inactive)
REMARK    1  A    between atoms: C_1  and  C_2
REMARK    2  A    between atoms: C_2  and  C_4
REMARK    3  A    between atoms: C_2  and  S_7
REMARK    4  A    between atoms: C_4  and  C_5
REMARK    5  A    between atoms: S_7  and  C_8
REMARK    6  A    between atoms: C_13  and  N_14
REMARK    7  A    between atoms: N_17  and  C_18
REMARK    8  A    between atoms: N_21  and  C_24
REMARK    9  A    between atoms: C_24  and  C_25
REMARK   10  A    between atoms: C_26  and  C_27
REMARK   11  A    between atoms: C_26  and  C_28
REMARK                            x       y       z     vdW  Elec       q    Type
REMARK                         _______ _______ _______ _____ _____    ______ ____
ROOT
ATOM      1  N   UNL     1       3.374  -2.497   2.920  0.00  0.00    -0.268 N 
ATOM      2  C   UNL     1       3.496  -2.462   4.261  0.00  0.00    +0.304 C 
ATOM      3  O   UNL     1       2.507  -2.346   4.959  0.00  0.00    -0.253 OA
ATOM      4  N   UNL     1       4.715  -2.555   4.830  0.00  0.00    -0.296 N 
ATOM      5  H   UNL     1       4.154  -2.657   2.365  0.00  0.00    +0.156 HD
ATOM      6  H   UNL     1       5.504  -2.648   4.273  0.00  0.00    +0.151 HD
ENDROOT
BRANCH   4   7
ATOM      7  C   UNL     1       4.848  -2.517   6.288  0.00  0.00    +0.071 C 
ATOM      8  C   UNL     1       4.912  -1.062   6.759  0.00  0.00    +0.004 C 
ATOM      9  C   UNL     1       5.130  -1.030   8.273  0.00  0.00    -0.077 C 
ATOM     10  N   UNL     1       6.389  -1.708   8.604  0.00  0.00    +0.382 N 
ATOM     11  C   UNL     1       6.308  -3.123   8.220  0.00  0.00    -0.077 C 
ATOM     12  C   UNL     1       6.135  -3.235   6.704  0.00  0.00    +0.004 C 
ATOM     13  H   UNL     1       7.148  -1.269   8.105  0.00  0.00    -0.081 HD
BRANCH  10  14
ATOM     14  C   UNL     1       6.633  -1.607  10.049  0.00  0.00    -0.051 C 
BRANCH  14  15
ATOM     15  C   UNL     1       7.982  -2.195  10.373  0.00  0.00    -0.047 C 
ATOM     16  C   UNL     1       8.088  -3.128  11.286  0.00  0.00    -0.081 C 
ATOM     17  C   UNL     1       6.887  -3.515  12.110  0.00  0.00    +0.038 C 
ATOM     18  C   UNL     1       9.411  -3.814  11.513  0.00  0.00    +0.038 C 
ENDBRANCH  14  15
ENDBRANCH  10  14
ENDBRANCH   4   7
BRANCH   1  24
ATOM     19  C   UNL     1       2.029  -1.731   1.055  0.00  0.00    +0.029 A 
ATOM     20  C   UNL     1       0.784  -1.546   0.470  0.00  0.00    +0.016 A 
ATOM     21  C   UNL     1      -0.361  -1.923   1.147  0.00  0.00    +0.001 A 
ATOM     22  C   UNL     1      -0.270  -2.484   2.407  0.00  0.00    +0.002 A 
ATOM     23  C   UNL     1       0.966  -2.672   2.998  0.00  0.00    +0.024 A 
ATOM     24  C   UNL     1       2.120  -2.302   2.325  0.00  0.00    +0.048 A 
BRANCH  19  25
ATOM     25  S   UNL     1       3.490  -1.252   0.195  0.00  0.00    -0.119 S 
BRANCH  25  27
ATOM     26  C   UNL     1       2.241   0.920  -0.903  0.00  0.00    +0.020 C 
ATOM     27  C   UNL     1       2.870  -0.419  -1.293  0.00  0.00    +0.062 C 
BRANCH  27  28
ATOM     28  C   UNL     1       4.029  -0.175  -2.261  0.00  0.00    +0.132 C 
BRANCH  28  29
ATOM     29  C   UNL     1       4.558  -1.467  -2.729  0.00  0.00    +0.064 C 
ATOM     30  N   UNL     1       4.965  -2.464  -3.090  0.00  0.00    -0.197 NA
ENDBRANCH  28  29
ENDBRANCH  27  28
ENDBRANCH  25  27
ENDBRANCH  19  25
ENDBRANCH   1  24
TORSDOF 8
