REMARK  Name = ZINC39672954
REMARK  10 active torsions:
REMARK  status: ('A' for Active; 'I' for Inactive)
REMARK    1  A    between atoms: C_1  and  C_2
REMARK    2  A    between atoms: C_2  and  C_3
REMARK    3  A    between atoms: C_2  and  C_4
REMARK    4  A    between atoms: C_4  and  C_6
REMARK    5  A    between atoms: C_4  and  O_35
REMARK    6  A    between atoms: C_10  and  C_19
REMARK    7  A    between atoms: N_21  and  C_22
REMARK    8  A    between atoms: C_22  and  C_23
REMARK    9  A    between atoms: C_23  and  N_29
REMARK   10  A    between atoms: O_35  and  C_36
REMARK                            x       y       z     vdW  Elec       q    Type
REMARK                         _______ _______ _______ _____ _____    ______ ____
ROOT
ATOM      1  C   UNL     1      -2.716   0.382  -2.975  0.00  0.00    +0.257 C 
ATOM      2  O   UNL     1      -3.175   0.037  -4.043  0.00  0.00    -0.272 OA
ATOM      3  N   UNL     1      -2.845   1.660  -2.567  0.00  0.00    -0.297 N 
ATOM      4  C   UNL     1      -2.271   2.289  -1.354  0.00  0.00    +0.121 C 
ATOM      5  C   UNL     1      -1.832   3.696  -1.815  0.00  0.00    +0.100 C 
ATOM      6  C   UNL     1      -2.705   3.997  -3.045  0.00  0.00    -0.004 C 
ATOM      7  C   UNL     1      -3.589   2.756  -3.234  0.00  0.00    +0.115 C 
ATOM      8  C   UNL     1      -1.829   4.205  -4.277  0.00  0.00    -0.010 C 
ATOM      9  C   UNL     1      -2.715   4.558  -5.474  0.00  0.00    -0.082 C 
ATOM     10  N   UNL     1      -3.477   5.778  -5.179  0.00  0.00    +0.379 N 
ATOM     11  C   UNL     1      -4.385   5.541  -4.050  0.00  0.00    -0.082 C 
ATOM     12  C   UNL     1      -3.569   5.229  -2.793  0.00  0.00    -0.010 C 
ATOM     13  H   UNL     1      -2.838   6.523  -4.944  0.00  0.00    -0.086 HD
ATOM     14  H   UNL     1      -4.013   6.043  -5.991  0.00  0.00    -0.086 HD
ENDROOT
BRANCH   5  15
ATOM     15  C   UNL     1      -0.373   3.694  -2.192  0.00  0.00    +0.218 C 
ATOM     16  O   UNL     1      -0.006   3.116  -3.194  0.00  0.00    -0.275 OA
ATOM     17  N   UNL     1       0.525   4.333  -1.417  0.00  0.00    -0.313 N 
ATOM     18  H   UNL     1       0.245   4.730  -0.577  0.00  0.00    +0.149 HD
BRANCH  17  19
ATOM     19  C   UNL     1       1.924   4.428  -1.842  0.00  0.00    +0.126 C 
BRANCH  19  20
ATOM     20  C   UNL     1       2.756   5.051  -0.720  0.00  0.00    +0.038 C 
ATOM     21  C   UNL     1       2.107   6.362  -0.270  0.00  0.00    +0.024 C 
ATOM     22  C   UNL     1       2.039   7.330  -1.452  0.00  0.00    +0.002 C 
ATOM     23  C   UNL     1       3.454   7.611  -1.962  0.00  0.00    +0.000 C 
ATOM     24  C   UNL     1       4.103   6.301  -2.413  0.00  0.00    +0.002 C 
ATOM     25  C   UNL     1       4.171   5.333  -1.230  0.00  0.00    +0.024 C 
BRANCH  20  26
ATOM     26  N   UNL     1       2.821   4.122   0.416  0.00  0.00    -0.291 NA
ATOM     27  C   UNL     1       3.466   2.859   0.027  0.00  0.00    +0.113 C 
ATOM     28  C   UNL     1       3.567   1.945   1.251  0.00  0.00    +0.175 C 
ATOM     29  O   UNL     1       2.260   1.741   1.795  0.00  0.00    -0.377 OA
ATOM     30  C   UNL     1       1.603   2.950   2.186  0.00  0.00    +0.175 C 
ATOM     31  C   UNL     1       1.483   3.874   0.971  0.00  0.00    +0.113 C 
ENDBRANCH  20  26
ENDBRANCH  19  20
ENDBRANCH  17  19
ENDBRANCH   5  15
BRANCH   1  32
ATOM     32  C   UNL     1      -2.001  -0.619  -2.104  0.00  0.00    +0.261 C 
BRANCH  32  34
ATOM     33  C   UNL     1      -0.019   0.888  -1.891  0.00  0.00    +0.011 C 
ATOM     34  C   UNL     1      -0.491  -0.501  -2.326  0.00  0.00    +0.033 C 
ATOM     35  C   UNL     1       0.230  -1.567  -1.499  0.00  0.00    +0.011 C 
ENDBRANCH  32  34
BRANCH  32  36
ATOM     36  O   UNL     1      -2.430  -1.938  -2.443  0.00  0.00    -0.479 OA
BRANCH  36  37
ATOM     37  C   UNL     1      -2.667  -2.794  -1.413  0.00  0.00    +0.122 A 
ATOM     38  C   UNL     1      -2.418  -2.395  -0.108  0.00  0.00    +0.045 A 
ATOM     39  C   UNL     1      -2.659  -3.267   0.937  0.00  0.00    +0.004 A 
ATOM     40  C   UNL     1      -3.148  -4.535   0.682  0.00  0.00    +0.000 A 
ATOM     41  C   UNL     1      -3.397  -4.934  -0.618  0.00  0.00    +0.004 A 
ATOM     42  C   UNL     1      -3.163  -4.065  -1.666  0.00  0.00    +0.045 A 
ENDBRANCH  36  37
ENDBRANCH  32  36
ENDBRANCH   1  32
TORSDOF 8
