REMARK  Name = ZINC08264040
REMARK  6 active torsions:
REMARK  status: ('A' for Active; 'I' for Inactive)
REMARK    1  A    between atoms: C_1  and  C_2
REMARK    2  A    between atoms: C_8  and  N_10
REMARK    3  A    between atoms: C_11  and  C_13
REMARK    4  A    between atoms: C_13  and  N_55
REMARK    5  A    between atoms: N_16  and  S_19
REMARK    6  A    between atoms: S_19  and  C_22
REMARK                            x       y       z     vdW  Elec       q    Type
REMARK                         _______ _______ _______ _____ _____    ______ ____
ROOT
ATOM      1  C   UNL     1      -4.772   0.655   2.073  0.00  0.00    -0.061 C 
ATOM      2  C   UNL     1      -5.826  -0.435   2.293  0.00  0.00    +0.091 C 
ATOM      3  N   UNL     1      -6.147  -0.493   3.727  0.00  0.00    -0.180 NA
ATOM      4  C   UNL     1      -5.036  -0.602   4.685  0.00  0.00    +0.091 C 
ATOM      5  C   UNL     1      -4.013   0.494   4.371  0.00  0.00    -0.061 C 
ATOM      6  N   UNL     1      -3.614   0.380   2.951  0.00  0.00    +0.387 N 
ATOM      7  H   UNL     1      -3.282  -0.576   2.775  0.00  0.00    -0.081 HD
ENDROOT
BRANCH   3   8
ATOM      8  S   UNL     1      -7.717  -0.437   4.250  0.00  0.00    +0.062 S 
ATOM      9  O   UNL     1      -8.504  -1.052   3.239  0.00  0.00    -0.153 OA
ATOM     10  O   UNL     1      -7.714  -0.893   5.595  0.00  0.00    -0.153 OA
BRANCH   8  11
ATOM     11  C   UNL     1      -8.191   1.260   4.294  0.00  0.00    +0.124 A 
ATOM     12  C   UNL     1      -9.147   1.734   3.415  0.00  0.00    +0.030 A 
ATOM     13  C   UNL     1      -9.518   3.065   3.450  0.00  0.00    +0.002 A 
ATOM     14  C   UNL     1      -8.935   3.922   4.364  0.00  0.00    +0.002 A 
ATOM     15  C   UNL     1      -7.979   3.450   5.243  0.00  0.00    +0.022 A 
ATOM     16  C   UNL     1      -7.610   2.116   5.212  0.00  0.00    +0.067 A 
ATOM     17 CL   UNL     1      -6.415   1.520   6.321  0.00  0.00    -0.082 Cl
ENDBRANCH   8  11
ENDBRANCH   3   8
BRANCH   6  18
ATOM     18  C   UNL     1      -2.521   1.329   2.656  0.00  0.00    +0.019 C 
BRANCH  18  20
ATOM     19  N   UNL     1      -0.965   1.768   0.784  0.00  0.00    -0.314 N 
ATOM     20  C   UNL     1      -1.988   1.041   1.276  0.00  0.00    +0.197 C 
ATOM     21  O   UNL     1      -2.480   0.156   0.609  0.00  0.00    -0.278 OA
ATOM     22  H   UNL     1      -0.572   2.475   1.318  0.00  0.00    +0.149 HD
BRANCH  19  29
ATOM     23  C   UNL     1       1.847   1.201   0.388  0.00  0.00    +0.009 C 
ATOM     24  C   UNL     1       1.008   1.950  -0.649  0.00  0.00    +0.006 C 
ATOM     25  C   UNL     1       1.549   1.658  -2.050  0.00  0.00    +0.005 C 
ATOM     26  C   UNL     1       0.710   2.408  -3.087  0.00  0.00    +0.000 C 
ATOM     27  C   UNL     1      -0.746   1.946  -2.996  0.00  0.00    +0.002 C 
ATOM     28  C   UNL     1      -1.286   2.238  -1.595  0.00  0.00    +0.022 C 
ATOM     29  C   UNL     1      -0.447   1.488  -0.558  0.00  0.00    +0.076 C 
ENDBRANCH  19  29
ENDBRANCH  18  20
ENDBRANCH   6  18
TORSDOF 5
