REMARK  Name = ZINC19581647
REMARK  6 active torsions:
REMARK  status: ('A' for Active; 'I' for Inactive)
REMARK    1  A    between atoms: C_1  and  C_2
REMARK    2  A    between atoms: C_3  and  C_12
REMARK    3  A    between atoms: C_12  and  C_14
REMARK    4  A    between atoms: C_12  and  O_33
REMARK    5  A    between atoms: C_14  and  N_15
REMARK    6  A    between atoms: C_22  and  O_32
REMARK                            x       y       z     vdW  Elec       q    Type
REMARK                         _______ _______ _______ _____ _____    ______ ____
ROOT
ATOM      1  N   UNL     1       5.676   4.045  -1.422  0.00  0.00    +0.382 N 
ATOM      2  C   UNL     1       6.011   2.727  -0.870  0.00  0.00    -0.075 C 
ATOM      3  C   UNL     1       7.532   2.589  -0.763  0.00  0.00    +0.029 C 
ATOM      4  C   UNL     1       8.155   2.760  -2.149  0.00  0.00    +0.110 C 
ATOM      5  C   UNL     1       7.747   4.116  -2.728  0.00  0.00    +0.029 C 
ATOM      6  C   UNL     1       6.220   4.208  -2.776  0.00  0.00    -0.075 C 
ATOM      7  C   UNL     1       9.682   2.693  -2.036  0.00  0.00    +0.084 C 
ATOM      8  C   UNL     1      10.059   1.373  -1.360  0.00  0.00    +0.152 C 
ATOM      9  C   UNL     1       9.317   0.236  -2.016  0.00  0.00    +0.024 A 
ATOM     10  C   UNL     1       9.775  -1.057  -1.825  0.00  0.00    +0.029 A 
ATOM     11  C   UNL     1       9.113  -2.124  -2.401  0.00  0.00    +0.042 A 
ATOM     12  C   UNL     1       7.986  -1.902  -3.174  0.00  0.00    +0.023 A 
ATOM     13  C   UNL     1       7.527  -0.616  -3.369  0.00  0.00    +0.047 A 
ATOM     14  C   UNL     1       8.194   0.461  -2.792  0.00  0.00    +0.127 A 
ATOM     15  O   UNL     1       7.715   1.713  -3.012  0.00  0.00    -0.485 OA
ATOM     16 CL   UNL     1       9.695  -3.741  -2.158  0.00  0.00    -0.084 Cl
ATOM     17  H   UNL     1       6.142   4.807  -0.779  0.00  0.00    -0.082 HD
ENDROOT
BRANCH   8  18
ATOM     18  O   UNL     1      11.466   1.158  -1.487  0.00  0.00    -0.387 OA
ATOM     19  H   UNL     1      11.926   0.255  -1.060  0.00  0.00    +0.210 HD
ENDBRANCH   8  18
BRANCH   1  20
ATOM     20  C   UNL     1       4.224   4.268  -1.408  0.00  0.00    -0.042 C 
BRANCH  20  21
ATOM     21  C   UNL     1       3.680   3.997  -0.004  0.00  0.00    +0.130 C 
BRANCH  21  24
ATOM     22  C   UNL     1       2.307   6.781  -0.000  0.00  0.00    +0.063 C 
ATOM     23  C   UNL     1       1.593   5.454   0.020  0.00  0.00    +0.019 A 
ATOM     24  C   UNL     1       2.195   4.255   0.018  0.00  0.00    +0.007 A 
ATOM     25  C   UNL     1       1.135   3.243   0.042  0.00  0.00    +0.005 A 
ATOM     26  C   UNL     1       1.127   1.847   0.052  0.00  0.00    +0.010 A 
ATOM     27  C   UNL     1      -0.064   1.177   0.076  0.00  0.00    +0.001 A 
ATOM     28  C   UNL     1      -1.265   1.873   0.086  0.00  0.00    +0.002 A 
ATOM     29  C   UNL     1      -1.279   3.250   0.082  0.00  0.00    +0.026 A 
ATOM     30  C   UNL     1      -0.079   3.953   0.058  0.00  0.00    +0.047 A 
ATOM     31  N   UNL     1       0.234   5.294   0.043  0.00  0.00    -0.358 N 
ATOM     32  H   UNL     1      -0.424   6.176   0.048  0.00  0.00    +0.166 HD
ENDBRANCH  21  24
BRANCH  21  33
ATOM     33  O   UNL     1       4.327   4.861   0.933  0.00  0.00    -0.389 OA
ATOM     34  H   UNL     1       5.419   4.817   1.058  0.00  0.00    +0.210 HD
ENDBRANCH  21  33
ENDBRANCH  20  21
ENDBRANCH   1  20
TORSDOF 5
