REMARK  Name = ZINC05860743
REMARK  6 active torsions:
REMARK  status: ('A' for Active; 'I' for Inactive)
REMARK    1  A    between atoms: C_4  and  O_9
REMARK    2  A    between atoms: C_5  and  C_7
REMARK    3  A    between atoms: O_9  and  C_10
REMARK    4  A    between atoms: C_10  and  C_11
REMARK    5  A    between atoms: N_13  and  N_14
REMARK    6  A    between atoms: C_15  and  C_17
REMARK                            x       y       z     vdW  Elec       q    Type
REMARK                         _______ _______ _______ _____ _____    ______ ____
ROOT
ATOM      1  C   UNL     1       1.030   3.510   0.011  0.00  0.00    +0.267 C 
ATOM      2  O   UNL     1      -0.097   3.958   0.024  0.00  0.00    -0.271 OA
ATOM      3  N   UNL     1       2.088   4.346   0.005  0.00  0.00    -0.232 N 
ATOM      4  H   UNL     1       2.989   3.987  -0.005  0.00  0.00    +0.173 HD
ENDROOT
BRANCH   3   5
ATOM      5  N   UNL     1       1.885   5.732   0.015  0.00  0.00    -0.234 N 
ATOM      6  C   UNL     1       2.943   6.567   0.009  0.00  0.00    +0.235 C 
ATOM      7  O   UNL     1       4.070   6.119  -0.004  0.00  0.00    -0.274 OA
ATOM      8  H   UNL     1       0.984   6.090   0.025  0.00  0.00    +0.173 HD
BRANCH   6   9
ATOM      9  C   UNL     1       2.725   8.058   0.019  0.00  0.00    +0.049 C 
ATOM     10  C   UNL     1       1.926   8.466  -1.220  0.00  0.00    +0.019 C 
ATOM     11  C   UNL     1       1.705   9.979  -1.210  0.00  0.00    -0.009 C 
ATOM     12  C   UNL     1       3.059  10.693  -1.219  0.00  0.00    +0.007 C 
ATOM     13  C   UNL     1       3.858  10.285   0.021  0.00  0.00    -0.009 C 
ATOM     14  C   UNL     1       4.079   8.771   0.010  0.00  0.00    +0.019 C 
ATOM     15  C   UNL     1       3.083  10.679   1.279  0.00  0.00    +0.007 C 
ATOM     16  C   UNL     1       1.729   9.966   1.288  0.00  0.00    -0.009 C 
ATOM     17  C   UNL     1       0.930  10.373   0.049  0.00  0.00    +0.007 C 
ATOM     18  C   UNL     1       1.950   8.452   1.278  0.00  0.00    +0.019 C 
ENDBRANCH   6   9
ENDBRANCH   3   5
BRANCH   1  19
ATOM     19  C   UNL     1       1.248   2.019   0.001  0.00  0.00    +0.326 C 
BRANCH  19  20
ATOM     20  O   UNL     1      -0.016   1.353   0.009  0.00  0.00    -0.481 OA
BRANCH  20  24
ATOM     21  C   UNL     1       0.042  -2.781  -0.013  0.00  0.00    +0.001 A 
ATOM     22  C   UNL     1       1.228  -2.065  -0.021  0.00  0.00    +0.004 A 
ATOM     23  C   UNL     1       1.210  -0.684  -0.019  0.00  0.00    +0.047 A 
ATOM     24  C   UNL     1       0.002  -0.004   0.002  0.00  0.00    +0.138 A 
ATOM     25  C   UNL     1      -1.200  -0.725   0.010  0.00  0.00    +0.093 A 
ATOM     26  C   UNL     1      -1.168  -2.121   0.002  0.00  0.00    +0.022 A 
BRANCH  25  27
ATOM     27  C   UNL     1      -2.454  -0.033   0.025  0.00  0.00    +0.103 C 
ATOM     28  N   UNL     1      -3.449   0.516   0.037  0.00  0.00    -0.191 NA
ENDBRANCH  25  27
ENDBRANCH  20  24
ENDBRANCH  19  20
ENDBRANCH   1  19
TORSDOF 6
