REMARK  Name = ZINC19300451
REMARK  5 active torsions:
REMARK  status: ('A' for Active; 'I' for Inactive)
REMARK    1  A    between atoms: C_1  and  C_2
REMARK    2  A    between atoms: C_2  and  C_3
REMARK    3  A    between atoms: C_3  and  N_4
REMARK    4  A    between atoms: C_7  and  C_8
REMARK    5  A    between atoms: C_21  and  C_27
REMARK                            x       y       z     vdW  Elec       q    Type
REMARK                         _______ _______ _______ _____ _____    ______ ____
ROOT
ATOM      1  N   UNL     1      -3.309   1.884  -1.085  0.00  0.00    -0.297 NA
ATOM      2  C   UNL     1      -2.414   1.290  -0.080  0.00  0.00    +0.121 C 
ATOM      3  C   UNL     1      -1.138   2.106  -0.085  0.00  0.00    -0.015 C 
ATOM      4  C   UNL     1       0.069   1.515   0.016  0.00  0.00    +0.015 C 
ATOM      5  C   UNL     1      -1.265   3.571  -0.211  0.00  0.00    +0.020 C 
ATOM      6  C   UNL     1      -2.448   4.114  -0.512  0.00  0.00    +0.072 C 
ATOM      7  C   UNL     1      -3.670   3.254  -0.718  0.00  0.00    +0.096 C 
ATOM      8  C   UNL     1      -2.599   5.607  -0.655  0.00  0.00    +0.113 C 
ATOM      9  N   UNL     1      -1.353   6.315  -0.423  0.00  0.00    -0.319 N 
ATOM     10  C   UNL     1      -0.203   5.700  -0.118  0.00  0.00    +0.135 C 
ATOM     11  S   UNL     1       1.206   6.638   0.138  0.00  0.00    -0.019 S 
ATOM     12  N   UNL     1      -0.133   4.364  -0.010  0.00  0.00    -0.300 N 
ATOM     13  H   UNL     1      -1.322   7.412  -0.494  0.00  0.00    +0.148 HD
ATOM     14  H   UNL     1       0.830   3.895   0.241  0.00  0.00    +0.154 HD
ENDROOT
BRANCH   4  15
ATOM     15  C   UNL     1       0.162   0.077   0.300  0.00  0.00    -0.017 A 
ATOM     16  C   UNL     1      -0.699  -0.524   1.212  0.00  0.00    +0.008 A 
ATOM     17  C   UNL     1      -0.611  -1.884   1.475  0.00  0.00    +0.001 A 
ATOM     18  C   UNL     1       0.314  -2.675   0.866  0.00  0.00    +0.008 A 
ATOM     19  C   UNL     1       1.219  -2.135  -0.064  0.00  0.00    -0.017 A 
ATOM     20  C   UNL     1       1.164  -0.753  -0.367  0.00  0.00    -0.011 A 
ATOM     21  C   UNL     1       2.065  -0.211  -1.291  0.00  0.00    +0.009 A 
ATOM     22  C   UNL     1       2.985  -1.020  -1.890  0.00  0.00    +0.001 A 
ATOM     23  C   UNL     1       3.041  -2.380  -1.594  0.00  0.00    +0.001 A 
ATOM     24  C   UNL     1       2.181  -2.939  -0.700  0.00  0.00    +0.008 A 
ENDBRANCH   4  15
BRANCH   8  25
ATOM     25  C   UNL     1      -3.625   6.090   0.338  0.00  0.00    -0.019 A 
ATOM     26  C   UNL     1      -3.958   5.318   1.408  0.00  0.00    +0.006 A 
ATOM     27  C   UNL     1      -4.901   5.751   2.339  0.00  0.00    +0.001 A 
ATOM     28  C   UNL     1      -5.523   6.954   2.199  0.00  0.00    +0.008 A 
ATOM     29  C   UNL     1      -5.208   7.776   1.104  0.00  0.00    -0.018 A 
ATOM     30  C   UNL     1      -4.246   7.338   0.160  0.00  0.00    -0.013 A 
ATOM     31  C   UNL     1      -3.931   8.161  -0.935  0.00  0.00    +0.009 A 
ATOM     32  C   UNL     1      -4.552   9.364  -1.074  0.00  0.00    +0.001 A 
ATOM     33  C   UNL     1      -5.499   9.794  -0.145  0.00  0.00    +0.001 A 
ATOM     34  C   UNL     1      -5.829   9.024   0.927  0.00  0.00    +0.008 A 
ENDBRANCH   8  25
BRANCH   1  35
ATOM     35  C   UNL     1      -4.508   1.057  -1.276  0.00  0.00    +0.084 C 
BRANCH  35  37
ATOM     36  C   UNL     1      -5.359  -1.145  -2.094  0.00  0.00    +0.005 C 
ATOM     37  C   UNL     1      -4.110  -0.284  -1.895  0.00  0.00    +0.012 C 
ENDBRANCH  35  37
ENDBRANCH   1  35
TORSDOF 4
