REMARK  Name = ZINC20613866
REMARK  11 active torsions:
REMARK  status: ('A' for Active; 'I' for Inactive)
REMARK    1  A    between atoms: C_1  and  C_2
REMARK    2  A    between atoms: C_2  and  C_3
REMARK    3  A    between atoms: C_2  and  C_4
REMARK    4  A    between atoms: C_7  and  C_10
REMARK    5  A    between atoms: C_13  and  C_35
REMARK    6  A    between atoms: C_18  and  C_20
REMARK    7  A    between atoms: N_22  and  N_23
REMARK    8  A    between atoms: N_23  and  C_24
REMARK    9  A    between atoms: C_24  and  N_26
REMARK   10  A    between atoms: N_26  and  C_27
REMARK   11  A    between atoms: C_27  and  C_28
REMARK                            x       y       z     vdW  Elec       q    Type
REMARK                         _______ _______ _______ _____ _____    ______ ____
ROOT
ATOM      1  C   UNL     1      -8.725   3.222   7.549  0.00  0.00    +0.104 C 
ATOM      2  C   UNL     1      -8.681   3.548   6.052  0.00  0.00    +0.063 C 
ATOM      3  C   UNL     1      -7.481   2.849   5.402  0.00  0.00    +0.215 C 
ATOM      4  N   UNL     1      -6.281   3.134   6.193  0.00  0.00    -0.238 N 
ATOM      5  C   UNL     1      -6.311   3.563   7.490  0.00  0.00    +0.119 A 
ATOM      6  C   UNL     1      -5.041   3.731   7.907  0.00  0.00    +0.078 A 
ATOM      7  C   UNL     1      -4.190   3.392   6.830  0.00  0.00    +0.150 A 
ATOM      8  N   UNL     1      -4.945   3.039   5.804  0.00  0.00    -0.164 NA
ATOM      9  N   UNL     1      -7.508   3.764   8.184  0.00  0.00    -0.322 N 
ATOM     10  H   UNL     1      -7.577   4.289   9.148  0.00  0.00    +0.148 HD
ENDROOT
BRANCH   1  14
ATOM     11  C   UNL     1     -12.180   5.018   9.307  0.00  0.00    -0.045 A 
ATOM     12  C   UNL     1     -12.184   3.671   8.995  0.00  0.00    +0.004 A 
ATOM     13  C   UNL     1     -11.066   3.090   8.426  0.00  0.00    +0.006 A 
ATOM     14  C   UNL     1      -9.944   3.856   8.169  0.00  0.00    -0.027 A 
ATOM     15  C   UNL     1      -9.938   5.201   8.486  0.00  0.00    +0.006 A 
ATOM     16  C   UNL     1     -11.057   5.784   9.050  0.00  0.00    +0.004 A 
BRANCH  11  18
ATOM     17  C   UNL     1     -13.030   6.238  11.291  0.00  0.00    +0.012 C 
ATOM     18  C   UNL     1     -13.398   5.652   9.927  0.00  0.00    +0.013 C 
ATOM     19  C   UNL     1     -13.913   6.768   9.014  0.00  0.00    +0.012 C 
ENDBRANCH  11  18
ENDBRANCH   1  14
BRANCH   7  20
ATOM     20  C   UNL     1      -2.714   3.432   6.846  0.00  0.00    +0.280 C 
ATOM     21  O   UNL     1      -2.126   3.780   7.852  0.00  0.00    -0.267 OA
ATOM     22  N   UNL     1      -2.018   3.082   5.747  0.00  0.00    -0.230 N 
ATOM     23  H   UNL     1      -2.549   2.767   4.837  0.00  0.00    +0.173 HD
BRANCH  22  24
ATOM     24  N   UNL     1      -0.617   3.119   5.762  0.00  0.00    -0.246 N 
ATOM     25  H   UNL     1      -0.086   3.434   6.672  0.00  0.00    +0.172 HD
BRANCH  24  26
ATOM     26  C   UNL     1       0.079   2.770   4.662  0.00  0.00    +0.147 C 
ATOM     27  S   UNL     1       1.790   2.816   4.681  0.00  0.00    -0.017 S 
BRANCH  26  28
ATOM     28  N   UNL     1      -0.573   2.384   3.547  0.00  0.00    -0.323 N 
ATOM     29  H   UNL     1      -1.672   2.354   3.535  0.00  0.00    +0.148 HD
BRANCH  28  30
ATOM     30  C   UNL     1       0.184   2.003   2.352  0.00  0.00    +0.134 C 
BRANCH  30  31
ATOM     31  C   UNL     1      -0.788   1.610   1.237  0.00  0.00    +0.135 C 
ATOM     32  C   UNL     1      -0.013   1.086   0.008  0.00  0.00    +0.035 C 
ATOM     33  C   UNL     1      -0.811   1.623  -1.201  0.00  0.00    +0.031 C 
ATOM     34  C   UNL     1      -1.978   2.408  -0.561  0.00  0.00    +0.160 C 
ATOM     35  O   UNL     1      -1.501   2.772   0.753  0.00  0.00    -0.375 OA
ENDBRANCH  30  31
ENDBRANCH  28  30
ENDBRANCH  26  28
ENDBRANCH  24  26
ENDBRANCH  22  24
ENDBRANCH   7  20
BRANCH   3  36
ATOM     36  C   UNL     1      -7.295   3.373   3.976  0.00  0.00    +0.412 C 
ATOM     37  F   UNL     1      -7.067   4.753   4.012  0.00  0.00    -0.168 F 
ATOM     38  F   UNL     1      -6.200   2.734   3.385  0.00  0.00    -0.168 F 
ATOM     39  F   UNL     1      -8.448   3.110   3.229  0.00  0.00    -0.168 F 
ENDBRANCH   3  36
TORSDOF 9
