REMARK  Name = ZINC65287564
REMARK  6 active torsions:
REMARK  status: ('A' for Active; 'I' for Inactive)
REMARK    1  A    between atoms: C_1  and  C_2
REMARK    2  A    between atoms: C_2  and  N_3
REMARK    3  A    between atoms: C_7  and  C_9
REMARK    4  A    between atoms: C_15  and  C_17
REMARK    5  A    between atoms: C_17  and  C_18
REMARK    6  A    between atoms: C_18  and  C_19
REMARK                            x       y       z     vdW  Elec       q    Type
REMARK                         _______ _______ _______ _____ _____    ______ ____
ROOT
ATOM      1  C   UNL     1      -0.128  -2.266   2.681  0.00  0.00    +0.025 C 
ATOM      2  C   UNL     1      -0.288  -3.781   2.827  0.00  0.00    +0.025 C 
ATOM      3  C   UNL     1      -0.935  -4.094   4.180  0.00  0.00    +0.108 C 
ATOM      4  N   UNL     1      -2.192  -3.340   4.289  0.00  0.00    -0.301 N 
ATOM      5  C   UNL     1      -2.165  -1.887   4.076  0.00  0.00    +0.108 C 
ATOM      6  C   UNL     1      -1.504  -1.599   2.724  0.00  0.00    +0.025 C 
ATOM      7  C   UNL     1      -3.347  -3.971   4.578  0.00  0.00    +0.216 C 
ATOM      8  O   UNL     1      -3.356  -5.171   4.752  0.00  0.00    -0.276 OA
ENDROOT
BRANCH   1  13
ATOM      9  N   UNL     1       0.713  -0.491   1.192  0.00  0.00    -0.272 NA
ATOM     10  C   UNL     1       2.169  -0.244   1.079  0.00  0.00    +0.185 C 
ATOM     11  N   UNL     1       2.791  -1.427   1.728  0.00  0.00    -0.241 NA
ATOM     12  N   UNL     1       1.911  -2.532   1.318  0.00  0.00    -0.238 NA
ATOM     13  C   UNL     1       0.550  -1.951   1.346  0.00  0.00    +0.143 C 
ATOM     14  H   UNL     1       3.732  -1.570   1.393  0.00  0.00    +0.142 HD
ATOM     15  H   UNL     1       1.986  -3.310   1.957  0.00  0.00    +0.142 HD
BRANCH   9  17
ATOM     16  C   UNL     1      -0.019   1.526   0.010  0.00  0.00    +0.020 C 
ATOM     17  C   UNL     1       0.002  -0.004   0.002  0.00  0.00    +0.084 C 
ENDBRANCH   9  17
ENDBRANCH   1  13
BRANCH   7  18
ATOM     18  C   UNL     1      -4.628  -3.184   4.687  0.00  0.00    +0.100 C 
BRANCH  18  19
ATOM     19  C   UNL     1      -5.782  -4.132   5.021  0.00  0.00    +0.042 C 
BRANCH  19  20
ATOM     20  C   UNL     1      -7.063  -3.345   5.129  0.00  0.00    -0.041 C 
ATOM     21  C   UNL     1      -7.985  -3.155   4.158  0.00  0.00    -0.001 A 
ATOM     22  C   UNL     1      -8.067  -3.605   2.763  0.00  0.00    +0.010 A 
ATOM     23  C   UNL     1      -9.138  -3.245   2.020  0.00  0.00    +0.001 A 
ATOM     24  C   UNL     1     -10.169  -2.455   2.547  0.00  0.00    +0.002 A 
ATOM     25  C   UNL     1     -10.164  -2.003   3.819  0.00  0.00    +0.026 A 
ATOM     26  C   UNL     1      -9.086  -2.322   4.691  0.00  0.00    +0.043 A 
ATOM     27  N   UNL     1      -8.854  -2.009   5.942  0.00  0.00    -0.380 N 
ATOM     28  C   UNL     1      -7.581  -2.615   6.348  0.00  0.00    +0.144 C 
ATOM     29  H   UNL     1      -9.430  -1.471   6.508  0.00  0.00    +0.160 HD
ENDBRANCH  19  20
ENDBRANCH  18  19
ENDBRANCH   7  18
TORSDOF 5
