REMARK  Name = ZINC65976917
REMARK  8 active torsions:
REMARK  status: ('A' for Active; 'I' for Inactive)
REMARK    1  A    between atoms: C_1  and  C_2
REMARK    2  A    between atoms: C_5  and  C_10
REMARK    3  A    between atoms: C_7  and  O_8
REMARK    4  A    between atoms: O_8  and  C_9
REMARK    5  A    between atoms: C_10  and  N_11
REMARK    6  A    between atoms: N_11  and  C_12
REMARK    7  A    between atoms: C_12  and  C_13
REMARK    8  A    between atoms: C_18  and  C_19
REMARK                            x       y       z     vdW  Elec       q    Type
REMARK                         _______ _______ _______ _____ _____    ______ ____
ROOT
ATOM      1  C   UNL     1       2.896  -6.703  -0.062  0.00  0.00    -0.016 A 
ATOM      2  C   UNL     1       3.584  -7.124  -1.145  0.00  0.00    +0.107 A 
ATOM      3  N   UNL     1       4.825  -7.473  -0.742  0.00  0.00    -0.284 N 
ATOM      4  H   UNL     1       5.534  -7.811  -1.311  0.00  0.00    +0.188 HD
ATOM      5  N   UNL     1       4.911  -7.262   0.641  0.00  0.00    -0.171 NA
ATOM      6  C   UNL     1       3.752  -6.792   1.056  0.00  0.00    +0.129 A 
ENDROOT
BRANCH   6   7
ATOM      7  C   UNL     1       3.408  -6.427   2.446  0.00  0.00    +0.156 A 
ATOM      8  C   UNL     1       3.866  -7.059   3.553  0.00  0.00    +0.060 A 
ATOM      9  C   UNL     1       3.270  -6.361   4.695  0.00  0.00    +0.021 A 
ATOM     10  C   UNL     1       3.343  -6.522   6.080  0.00  0.00    +0.011 A 
ATOM     11  C   UNL     1       2.643  -5.678   6.897  0.00  0.00    +0.001 A 
ATOM     12  C   UNL     1       1.861  -4.666   6.359  0.00  0.00    +0.004 A 
ATOM     13  C   UNL     1       1.776  -4.492   4.994  0.00  0.00    +0.047 A 
ATOM     14  C   UNL     1       2.479  -5.337   4.144  0.00  0.00    +0.136 A 
ATOM     15  O   UNL     1       2.597  -5.411   2.803  0.00  0.00    -0.453 OA
ENDBRANCH   6   7
BRANCH   1  16
ATOM     16  C   UNL     1       1.468  -6.219  -0.050  0.00  0.00    -0.042 C 
BRANCH  16  17
ATOM     17  N   UNL     1       1.450  -4.751  -0.038  0.00  0.00    +0.384 N 
ATOM     18  H   UNL     1       1.917  -4.401  -0.861  0.00  0.00    -0.085 HD
ATOM     19  H   UNL     1       1.925  -4.415   0.786  0.00  0.00    -0.085 HD
BRANCH  17  20
ATOM     20  C   UNL     1       0.058  -4.279  -0.027  0.00  0.00    -0.046 C 
BRANCH  20  25
ATOM     21  C   UNL     1      -0.018   1.503   0.010  0.00  0.00    +0.047 C 
ATOM     22  C   UNL     1       0.002  -0.004   0.002  0.00  0.00    -0.009 A 
ATOM     23  C   UNL     1       0.006  -0.689  -1.198  0.00  0.00    +0.007 A 
ATOM     24  C   UNL     1       0.024  -2.071  -1.206  0.00  0.00    +0.002 A 
ATOM     25  C   UNL     1       0.039  -2.772  -0.014  0.00  0.00    -0.061 A 
ATOM     26  C   UNL     1       0.036  -2.092   1.188  0.00  0.00    +0.047 A 
ATOM     27  C   UNL     1       0.023  -0.705   1.199  0.00  0.00    +0.123 A 
BRANCH  27  28
ATOM     28  O   UNL     1       0.025  -0.033   2.381  0.00  0.00    -0.495 OA
ATOM     29  C   UNL     1       0.048  -0.820   3.574  0.00  0.00    +0.277 C 
ENDBRANCH  27  28
ENDBRANCH  20  25
ENDBRANCH  17  20
ENDBRANCH  16  17
ENDBRANCH   1  16
TORSDOF 6
