REMARK  Name = ZINC40170942
REMARK  10 active torsions:
REMARK  status: ('A' for Active; 'I' for Inactive)
REMARK    1  A    between atoms: C_1  and  C_2
REMARK    2  A    between atoms: C_2  and  C_3
REMARK    3  A    between atoms: C_3  and  C_5
REMARK    4  A    between atoms: C_3  and  N_23
REMARK    5  A    between atoms: N_7  and  C_8
REMARK    6  A    between atoms: C_9  and  C_20
REMARK    7  A    between atoms: C_10  and  C_13
REMARK    8  A    between atoms: C_16  and  C_19
REMARK    9  A    between atoms: C_24  and  C_31
REMARK   10  A    between atoms: C_26  and  C_30
REMARK                            x       y       z     vdW  Elec       q    Type
REMARK                         _______ _______ _______ _____ _____    ______ ____
ROOT
ATOM      1  C   UNL     1       0.023  -4.360   2.434  0.00  0.00    +0.085 A 
ATOM      2  C   UNL     1      -0.994  -5.260   2.705  0.00  0.00    +0.073 A 
ATOM      3  C   UNL     1      -0.592  -6.618   3.023  0.00  0.00    +0.003 A 
ATOM      4  C   UNL     1       0.747  -6.846   3.018  0.00  0.00    +0.056 A 
ATOM      5  S   UNL     1       1.430  -5.261   2.586  0.00  0.00    -0.081 S 
ENDROOT
BRANCH   3   6
ATOM      6  C   UNL     1      -1.575  -7.683   3.333  0.00  0.00    -0.017 A 
ATOM      7  C   UNL     1      -2.580  -7.455   4.272  0.00  0.00    +0.009 A 
ATOM      8  C   UNL     1      -3.494  -8.450   4.557  0.00  0.00    +0.004 A 
ATOM      9  C   UNL     1      -3.413  -9.672   3.912  0.00  0.00    -0.050 A 
ATOM     10  C   UNL     1      -2.418  -9.903   2.979  0.00  0.00    +0.004 A 
ATOM     11  C   UNL     1      -1.503  -8.914   2.683  0.00  0.00    +0.009 A 
ATOM     12  C   UNL     1      -4.412 -10.755   4.228  0.00  0.00    +0.044 C 
ENDBRANCH   3   6
BRANCH   2  13
ATOM     13  C   UNL     1      -2.403  -4.862   2.671  0.00  0.00    +0.244 C 
ATOM     14  O   UNL     1      -3.036  -4.950   1.636  0.00  0.00    -0.270 OA
ATOM     15  N   UNL     1      -2.999  -4.397   3.788  0.00  0.00    -0.325 N 
ATOM     16  H   UNL     1      -2.494  -4.327   4.613  0.00  0.00    +0.145 HD
ATOM     17  H   UNL     1      -3.932  -4.134   3.766  0.00  0.00    +0.145 HD
ENDBRANCH   2  13
BRANCH   1  20
ATOM     18  C   UNL     1       1.010  -2.283   1.867  0.00  0.00    +0.241 C 
ATOM     19  O   UNL     1       2.106  -2.796   1.939  0.00  0.00    -0.273 OA
ATOM     20  N   UNL     1      -0.095  -3.018   2.107  0.00  0.00    -0.278 N 
ATOM     21  H   UNL     1      -0.972  -2.608   2.050  0.00  0.00    +0.155 HD
BRANCH  18  22
ATOM     22  C   UNL     1       0.881  -0.825   1.511  0.00  0.00    +0.177 C 
BRANCH  22  23
ATOM     23  N   UNL     1       2.214  -0.254   1.301  0.00  0.00    -0.285 N 
ATOM     24  C   UNL     1       2.649   0.762   2.090  0.00  0.00    +0.023 A 
ATOM     25  C   UNL     1       3.889   1.281   1.882  0.00  0.00    +0.044 A 
ATOM     26  C   UNL     1       4.684   0.752   0.860  0.00  0.00    +0.045 A 
ATOM     27  N   UNL     1       4.224  -0.234   0.116  0.00  0.00    -0.198 NA
ATOM     28  C   UNL     1       3.008  -0.742   0.329  0.00  0.00    +0.349 A 
ATOM     29  O   UNL     1       2.609  -1.658  -0.370  0.00  0.00    -0.244 OA
ATOM     30  C   UNL     1       6.061   1.310   0.609  0.00  0.00    +0.066 C 
ATOM     31  C   UNL     1       1.768   1.310   3.183  0.00  0.00    +0.064 C 
ENDBRANCH  22  23
BRANCH  22  33
ATOM     32  C   UNL     1      -0.178   0.800  -0.065  0.00  0.00    +0.006 C 
ATOM     33  C   UNL     1       0.058  -0.683   0.229  0.00  0.00    +0.031 C 
ENDBRANCH  22  33
ENDBRANCH  18  22
ENDBRANCH   1  20
TORSDOF 6
