REMARK  Name = ZINC13737558
REMARK  10 active torsions:
REMARK  status: ('A' for Active; 'I' for Inactive)
REMARK    1  A    between atoms: C_1  and  C_2
REMARK    2  A    between atoms: C_8  and  C_19
REMARK    3  A    between atoms: C_9  and  C_18
REMARK    4  A    between atoms: C_11  and  O_13
REMARK    5  A    between atoms: O_13  and  C_14
REMARK    6  A    between atoms: C_14  and  C_15
REMARK    7  A    between atoms: C_14  and  C_16
REMARK    8  A    between atoms: C_14  and  C_17
REMARK    9  A    between atoms: C_19  and  C_21
REMARK   10  A    between atoms: C_25  and  C_28
REMARK                            x       y       z     vdW  Elec       q    Type
REMARK                         _______ _______ _______ _____ _____    ______ ____
ROOT
ATOM      1  C   UNL     1       0.325   0.748  -0.731  0.00  0.00    +0.044 C 
ATOM      2  C   UNL     1       0.237  -0.732  -0.464  0.00  0.00    -0.050 A 
ATOM      3  C   UNL     1       0.200  -1.625  -1.525  0.00  0.00    +0.005 A 
ATOM      4  C   UNL     1       0.119  -2.982  -1.297  0.00  0.00    +0.027 A 
ATOM      5  C   UNL     1       0.075  -3.466   0.005  0.00  0.00    +0.061 A 
ATOM      6  C   UNL     1       0.113  -2.562   1.077  0.00  0.00    +0.011 A 
ATOM      7  C   UNL     1       0.199  -1.194   0.834  0.00  0.00    +0.014 A 
ATOM      8  C   UNL     1       0.050  -3.383   2.303  0.00  0.00    +0.048 A 
ATOM      9  C   UNL     1      -0.019  -4.685   1.897  0.00  0.00    +0.038 A 
ATOM     10  N   UNL     1      -0.005  -4.742   0.538  0.00  0.00    -0.249 N 
ATOM     11  C   UNL     1      -0.061  -5.877  -0.185  0.00  0.00    +0.421 C 
ATOM     12  O   UNL     1       0.963  -6.449  -0.498  0.00  0.00    -0.223 OA
ATOM     13  C   UNL     1      -0.099  -5.877   2.815  0.00  0.00    +0.065 C 
ENDROOT
BRANCH   8  14
ATOM     14  C   UNL     1       0.061  -2.897   3.681  0.00  0.00    +0.183 C 
ATOM     15  O   UNL     1       1.116  -2.664   4.235  0.00  0.00    -0.290 OA
BRANCH  14  16
ATOM     16  C   UNL     1      -1.238  -2.684   4.415  0.00  0.00    +0.137 C 
ATOM     17  C   UNL     1      -1.843  -1.303   4.023  0.00  0.00    +0.097 C 
ATOM     18  S   UNL     1      -2.975  -1.054   5.459  0.00  0.00    -0.135 S 
ATOM     19  C   UNL     1      -2.177  -2.224   6.636  0.00  0.00    +0.145 C 
ATOM     20  N   UNL     1      -0.993  -2.692   5.870  0.00  0.00    -0.291 NA
ATOM     21  H   UNL     1      -0.700  -3.605   6.182  0.00  0.00    +0.124 HD
BRANCH  19  22
ATOM     22  C   UNL     1      -1.755  -1.512   7.896  0.00  0.00    -0.002 A 
ATOM     23  C   UNL     1      -2.611  -1.445   8.985  0.00  0.00    +0.009 A 
ATOM     24  C   UNL     1      -2.181  -0.779  10.122  0.00  0.00    +0.020 A 
ATOM     25  C   UNL     1      -0.922  -0.208  10.133  0.00  0.00    +0.111 A 
ATOM     26  N   UNL     1      -0.135  -0.291   9.078  0.00  0.00    -0.263 NA
ATOM     27  C   UNL     1      -0.509  -0.921   7.981  0.00  0.00    +0.116 A 
ENDBRANCH  19  22
ENDBRANCH  14  16
ENDBRANCH   8  14
BRANCH  11  28
ATOM     28  O   UNL     1      -1.253  -6.377  -0.562  0.00  0.00    -0.442 OA
BRANCH  28  29
ATOM     29  C   UNL     1      -1.237  -7.584  -1.327  0.00  0.00    +0.107 C 
ATOM     30  C   UNL     1      -0.563  -8.693  -0.517  0.00  0.00    +0.055 C 
ATOM     31  C   UNL     1      -2.673  -7.995  -1.659  0.00  0.00    +0.055 C 
ATOM     32  C   UNL     1      -0.459  -7.355  -2.625  0.00  0.00    +0.055 C 
ENDBRANCH  28  29
ENDBRANCH  11  28
TORSDOF 5
