REMARK  Name = ZINC48417008
REMARK  6 active torsions:
REMARK  status: ('A' for Active; 'I' for Inactive)
REMARK    1  A    between atoms: C_1  and  C_2
REMARK    2  A    between atoms: C_2  and  C_3
REMARK    3  A    between atoms: C_3  and  C_5
REMARK    4  A    between atoms: C_3  and  N_10
REMARK    5  A    between atoms: N_10  and  C_11
REMARK    6  A    between atoms: C_11  and  C_12
REMARK                            x       y       z     vdW  Elec       q    Type
REMARK                         _______ _______ _______ _____ _____    ______ ____
ROOT
ATOM      1  C   UNL     1      -1.999   1.427  -1.136  0.00  0.00    -0.046 C 
ENDROOT
BRANCH   1   2
ATOM      2  C   UNL     1      -2.638   1.917  -2.410  0.00  0.00    -0.059 A 
ATOM      3  C   UNL     1      -1.873   2.070  -3.551  0.00  0.00    +0.051 A 
ATOM      4  C   UNL     1      -2.459   2.519  -4.725  0.00  0.00    +0.164 A 
ATOM      5  C   UNL     1      -3.816   2.814  -4.752  0.00  0.00    +0.180 A 
ATOM      6  C   UNL     1      -4.579   2.660  -3.603  0.00  0.00    +0.086 A 
ATOM      7  C   UNL     1      -3.989   2.207  -2.436  0.00  0.00    +0.025 A 
ATOM      8 CL   UNL     1      -6.274   3.032  -3.631  0.00  0.00    -0.080 Cl
ATOM      9  O   UNL     1      -4.412   3.249  -5.896  0.00  0.00    -0.483 OA
ATOM     10  C   UNL     1      -3.547   3.746  -6.923  0.00  0.00    +0.270 C 
ATOM     11  C   UNL     1      -2.383   2.760  -7.090  0.00  0.00    +0.270 C 
ATOM     12  O   UNL     1      -1.691   2.668  -5.840  0.00  0.00    -0.485 OA
ENDBRANCH   1   2
BRANCH   1  13
ATOM     13  N   UNL     1      -2.065  -0.040  -1.087  0.00  0.00    +0.387 N 
ATOM     14  H   UNL     1      -1.646  -0.423  -1.921  0.00  0.00    -0.085 HD
ATOM     15  H   UNL     1      -3.029  -0.331  -1.031  0.00  0.00    -0.085 HD
BRANCH  13  16
ATOM     16  C   UNL     1      -1.336  -0.523   0.093  0.00  0.00    -0.034 C 
BRANCH  16  17
ATOM     17  C   UNL     1      -2.040  -0.060   1.342  0.00  0.00    -0.024 A 
ATOM     18  C   UNL     1      -1.508   0.402   2.500  0.00  0.00    +0.009 A 
ATOM     19  C   UNL     1      -2.357   0.775   3.526  0.00  0.00    +0.008 A 
ATOM     20  C   UNL     1      -3.696   0.668   3.343  0.00  0.00    +0.045 A 
ATOM     21  S   UNL     1      -3.791   0.029   1.679  0.00  0.00    -0.103 S 
ENDBRANCH  16  17
BRANCH  16  23
ATOM     22  C   UNL     1      -0.462  -2.520  -1.128  0.00  0.00    +0.002 C 
ATOM     23  C   UNL     1      -1.289  -2.053   0.071  0.00  0.00    -0.014 C 
ENDBRANCH  16  23
ENDBRANCH  13  16
ENDBRANCH   1  13
TORSDOF 5
