REMARK  Name = ZINC49155324
REMARK  7 active torsions:
REMARK  status: ('A' for Active; 'I' for Inactive)
REMARK    1  A    between atoms: C_1  and  N_2
REMARK    2  A    between atoms: N_2  and  C_3
REMARK    3  A    between atoms: C_7  and  C_10
REMARK    4  A    between atoms: C_10  and  N_11
REMARK    5  A    between atoms: N_14  and  C_15
REMARK    6  A    between atoms: C_15  and  C_16
REMARK    7  A    between atoms: N_19  and  C_21
REMARK                            x       y       z     vdW  Elec       q    Type
REMARK                         _______ _______ _______ _____ _____    ______ ____
ROOT
ATOM      1  N   UNL     1      -1.389  -2.939  -5.351  0.00  0.00    -0.295 N 
ATOM      2  C   UNL     1      -1.637  -3.548  -6.528  0.00  0.00    +0.300 C 
ATOM      3  O   UNL     1      -0.715  -3.901  -7.236  0.00  0.00    -0.253 OA
ATOM      4  N   UNL     1      -2.909  -3.766  -6.918  0.00  0.00    -0.299 N 
ATOM      5  H   UNL     1      -2.125  -2.658  -4.786  0.00  0.00    +0.151 HD
ATOM      6  H   UNL     1      -3.645  -3.485  -6.353  0.00  0.00    +0.150 HD
ENDROOT
BRANCH   1   7
ATOM      7  C   UNL     1      -0.007  -2.702  -4.927  0.00  0.00    +0.142 C 
BRANCH   7  14
ATOM      8  C   UNL     1      -0.018   1.461   0.010  0.00  0.00    +0.130 C 
ATOM      9  N   UNL     1       0.002  -0.004   0.002  0.00  0.00    -0.323 N 
ATOM     10  C   UNL     1       0.024  -0.743   1.267  0.00  0.00    +0.130 C 
ATOM     11  C   UNL     1       0.000  -0.693  -1.206  0.00  0.00    +0.098 A 
ATOM     12  C   UNL     1       0.013  -2.084  -1.206  0.00  0.00    +0.042 A 
ATOM     13  C   UNL     1       0.011  -2.756  -2.415  0.00  0.00    +0.010 A 
ATOM     14  C   UNL     1      -0.004  -2.012  -3.587  0.00  0.00    -0.014 A 
ATOM     15  C   UNL     1      -0.017  -0.633  -3.513  0.00  0.00    +0.089 A 
ATOM     16  N   UNL     1      -0.020  -0.019  -2.345  0.00  0.00    -0.349 N 
ATOM     17  H   UNL     1      -0.033   0.951  -2.321  0.00  0.00    +0.167 HD
ENDBRANCH   7  14
ENDBRANCH   1   7
BRANCH   4  18
ATOM     18  C   UNL     1      -3.179  -4.428  -8.197  0.00  0.00    +0.110 C 
BRANCH  18  19
ATOM     19  C   UNL     1      -4.690  -4.552  -8.398  0.00  0.00    +0.025 C 
ATOM     20  C   UNL     1      -5.320  -3.165  -8.694  0.00  0.00    +0.025 C 
ATOM     21  C   UNL     1      -6.581  -3.563  -9.501  0.00  0.00    +0.105 C 
ATOM     22  N   UNL     1      -6.157  -4.709 -10.325  0.00  0.00    -0.330 N 
ATOM     23  C   UNL     1      -5.007  -5.356  -9.676  0.00  0.00    +0.110 C 
BRANCH  22  24
ATOM     24  C   UNL     1      -6.748  -5.113 -11.524  0.00  0.00    +0.030 A 
ATOM     25  C   UNL     1      -6.256  -6.219 -12.206  0.00  0.00    +0.023 A 
ATOM     26  C   UNL     1      -6.844  -6.617 -13.390  0.00  0.00    +0.002 A 
ATOM     27  C   UNL     1      -7.921  -5.915 -13.899  0.00  0.00    +0.000 A 
ATOM     28  C   UNL     1      -8.414  -4.814 -13.223  0.00  0.00    +0.002 A 
ATOM     29  C   UNL     1      -7.835  -4.414 -12.035  0.00  0.00    +0.023 A 
ENDBRANCH  22  24
ENDBRANCH  18  19
ENDBRANCH   4  18
TORSDOF 5
