REMARK  Name = ZINC03667628
REMARK  9 active torsions:
REMARK  status: ('A' for Active; 'I' for Inactive)
REMARK    1  A    between atoms: C_1  and  C_2
REMARK    2  A    between atoms: C_4  and  O_26
REMARK    3  A    between atoms: C_5  and  C_23
REMARK    4  A    between atoms: C_7  and  C_8
REMARK    5  A    between atoms: N_12  and  C_17
REMARK    6  A    between atoms: N_15  and  C_16
REMARK    7  A    between atoms: C_23  and  C_24
REMARK    8  A    between atoms: C_23  and  C_25
REMARK    9  A    between atoms: O_26  and  C_27
REMARK                            x       y       z     vdW  Elec       q    Type
REMARK                         _______ _______ _______ _____ _____    ______ ____
ROOT
ATOM      1  C   UNL     1      -2.746   1.518   0.739  0.00  0.00    +0.037 C 
ATOM      2  C   UNL     1      -3.918   2.125   0.426  0.00  0.00    +0.099 C 
ATOM      3  C   UNL     1      -5.264   1.533   0.444  0.00  0.00    +0.267 C 
ATOM      4  O   UNL     1      -5.556   0.390   0.744  0.00  0.00    -0.268 OA
ATOM      5  N   UNL     1      -6.110   2.511   0.061  0.00  0.00    -0.245 N 
ATOM      6  C   UNL     1      -5.422   3.635  -0.188  0.00  0.00    +0.147 C 
ATOM      7  S   UNL     1      -6.127   5.109  -0.700  0.00  0.00    -0.018 S 
ATOM      8  N   UNL     1      -4.106   3.453   0.022  0.00  0.00    -0.281 N 
ATOM      9  C   UNL     1      -3.058   4.463  -0.144  0.00  0.00    +0.137 C 
ENDROOT
BRANCH   1  16
ATOM     10  C   UNL     1      -0.784   1.772   2.849  0.00  0.00    +0.044 C 
ATOM     11  C   UNL     1      -0.512   2.325   1.474  0.00  0.00    -0.040 A 
ATOM     12  C   UNL     1       0.683   2.955   1.207  0.00  0.00    +0.049 A 
ATOM     13  C   UNL     1       0.936   3.465  -0.061  0.00  0.00    +0.124 A 
ATOM     14  C   UNL     1      -0.016   3.342  -1.067  0.00  0.00    -0.003 A 
ATOM     15  C   UNL     1      -1.214   2.714  -0.812  0.00  0.00    +0.015 A 
ATOM     16  C   UNL     1      -1.471   2.194   0.462  0.00  0.00    -0.020 A 
BRANCH  14  17
ATOM     17  C   UNL     1       0.265   3.897  -2.439  0.00  0.00    +0.016 C 
ATOM     18  C   UNL     1       0.339   2.750  -3.449  0.00  0.00    +0.012 C 
ATOM     19  C   UNL     1      -0.856   4.858  -2.840  0.00  0.00    +0.012 C 
ENDBRANCH  14  17
BRANCH  13  20
ATOM     20  O   UNL     1       2.116   4.085  -0.318  0.00  0.00    -0.495 OA
ATOM     21  C   UNL     1       3.049   4.176   0.761  0.00  0.00    +0.277 C 
ENDBRANCH  13  20
ENDBRANCH   1  16
BRANCH   5  22
ATOM     22  C   UNL     1      -7.562   2.366  -0.065  0.00  0.00    +0.084 C 
ATOM     23  C   UNL     1      -7.981   2.658  -1.508  0.00  0.00    +0.023 C 
ATOM     24  C   UNL     1      -9.498   2.507  -1.639  0.00  0.00    +0.002 C 
ATOM     25  C   UNL     1     -10.192   3.494  -0.698  0.00  0.00    +0.000 C 
ATOM     26  C   UNL     1      -9.773   3.202   0.745  0.00  0.00    +0.002 C 
ATOM     27  C   UNL     1      -8.256   3.353   0.876  0.00  0.00    +0.023 C 
ENDBRANCH   5  22
TORSDOF 4
