REMARK  Name = ZINC02263710
REMARK  9 active torsions:
REMARK  status: ('A' for Active; 'I' for Inactive)
REMARK    1  A    between atoms: C_4  and  C_7
REMARK    2  A    between atoms: C_7  and  O_8
REMARK    3  A    between atoms: O_8  and  C_9
REMARK    4  A    between atoms: N_11  and  C_12
REMARK    5  A    between atoms: C_12  and  C_13
REMARK    6  A    between atoms: C_13  and  C_14
REMARK    7  A    between atoms: C_14  and  C_15
REMARK    8  A    between atoms: C_15  and  O_17
REMARK    9  A    between atoms: O_17  and  C_18
REMARK                            x       y       z     vdW  Elec       q    Type
REMARK                         _______ _______ _______ _____ _____    ______ ____
ROOT
ATOM      1  C   UNL     1       0.058  -5.970   6.131  0.00  0.00    +0.312 C 
ATOM      2  O   UNL     1      -0.018  -5.083   6.948  0.00  0.00    -0.250 OA
ENDROOT
BRANCH   1   3
ATOM      3  C   UNL     1       0.035  -5.642   4.660  0.00  0.00    +0.122 C 
BRANCH   3   4
ATOM      4  C   UNL     1      -0.090  -4.128   4.476  0.00  0.00    +0.030 C 
BRANCH   4   5
ATOM      5  C   UNL     1      -0.113  -3.796   2.983  0.00  0.00    +0.108 C 
BRANCH   5   8
ATOM      6  C   UNL     1      -0.273  -1.819   1.568  0.00  0.00    +0.401 C 
ATOM      7  O   UNL     1      -0.210  -2.546   0.596  0.00  0.00    -0.226 OA
ATOM      8  N   UNL     1      -0.233  -2.346   2.808  0.00  0.00    -0.281 N 
ATOM      9  H   UNL     1      -0.283  -1.766   3.583  0.00  0.00    +0.152 HD
BRANCH   6  10
ATOM     10  O   UNL     1      -0.383  -0.487   1.407  0.00  0.00    -0.446 OA
BRANCH  10  11
ATOM     11  C   UNL     1      -0.420   0.011   0.043  0.00  0.00    +0.269 C 
BRANCH  11  15
ATOM     12  C   UNL     1      -0.774   4.268   0.091  0.00  0.00    +0.000 A 
ATOM     13  C   UNL     1       0.476   3.678   0.086  0.00  0.00    +0.000 A 
ATOM     14  C   UNL     1       0.591   2.301   0.071  0.00  0.00    +0.007 A 
ATOM     15  C   UNL     1      -0.545   1.513   0.060  0.00  0.00    -0.010 A 
ATOM     16  C   UNL     1      -1.795   2.103   0.059  0.00  0.00    +0.007 A 
ATOM     17  C   UNL     1      -1.910   3.480   0.079  0.00  0.00    +0.000 A 
ENDBRANCH  11  15
ENDBRANCH  10  11
ENDBRANCH   6  10
ENDBRANCH   5   8
ENDBRANCH   4   5
ENDBRANCH   3   4
ENDBRANCH   1   3
BRANCH   1  18
ATOM     18  O   UNL     1       0.163  -7.247   6.533  0.00  0.00    -0.424 OA
BRANCH  18  19
ATOM     19  C   UNL     1       0.284  -7.465   7.868  0.00  0.00    +0.153 A 
ATOM     20  C   UNL     1       1.543  -7.591   8.432  0.00  0.00    +0.094 A 
ATOM     21  C   UNL     1       1.666  -7.814   9.795  0.00  0.00    +0.143 A 
ATOM     22  C   UNL     1       0.510  -7.908  10.589  0.00  0.00    +0.023 A 
ATOM     23  C   UNL     1      -0.755  -7.779  10.004  0.00  0.00    +0.035 A 
ATOM     24  C   UNL     1      -0.860  -7.555   8.660  0.00  0.00    +0.084 A 
ATOM     25 CL   UNL     1      -2.428  -7.387   7.934  0.00  0.00    -0.080 Cl
ATOM     26  C   UNL     1       0.648  -8.143  12.033  0.00  0.00    -0.027 A 
ATOM     27  C   UNL     1       1.891  -8.267  12.545  0.00  0.00    +0.041 A 
ATOM     28  C   UNL     1       3.012  -8.156  11.684  0.00  0.00    +0.341 A 
ATOM     29  O   UNL     1       4.130  -8.262  12.156  0.00  0.00    -0.245 OA
ATOM     30  O   UNL     1       2.882  -7.939  10.369  0.00  0.00    -0.422 OA
ATOM     31  C   UNL     1       2.146  -8.528  14.006  0.00  0.00    +0.042 C 
ATOM     32  C   UNL     1       0.911  -8.187  14.837  0.00  0.00    +0.005 C 
ATOM     33  C   UNL     1      -0.300  -8.892  14.213  0.00  0.00    +0.005 C 
ATOM     34  C   UNL     1      -0.599  -8.232  12.868  0.00  0.00    +0.036 C 
ENDBRANCH  18  19
ENDBRANCH   1  18
TORSDOF 9
