REMARK  Name = ZINC67263385
REMARK  3 active torsions:
REMARK  status: ('A' for Active; 'I' for Inactive)
REMARK    1  A    between atoms: C_6  and  S_7
REMARK    2  A    between atoms: S_7  and  C_10
REMARK    3  A    between atoms: N_22  and  C_23
REMARK                            x       y       z     vdW  Elec       q    Type
REMARK                         _______ _______ _______ _____ _____    ______ ____
ROOT
ATOM      1  C   UNL     1      -1.976  -1.163  -1.668  0.00  0.00    +0.249 A 
ATOM      2  C   UNL     1      -2.760  -0.313  -2.431  0.00  0.00    +0.204 A 
ATOM      3  N   UNL     1      -3.354   0.861  -2.156  0.00  0.00    -0.209 NA
ATOM      4  C   UNL     1      -4.063   1.486  -3.080  0.00  0.00    +0.137 A 
ATOM      5  C   UNL     1      -4.197   0.923  -4.353  0.00  0.00    +0.077 A 
ATOM      6  C   UNL     1      -3.597  -0.296  -4.685  0.00  0.00    +0.087 A 
ATOM      7  N   UNL     1      -2.863  -0.900  -3.660  0.00  0.00    -0.192 N 
ATOM      8  N   UNL     1      -2.134  -2.093  -3.599  0.00  0.00    -0.057 NA
ATOM      9  N   UNL     1      -1.630  -2.201  -2.419  0.00  0.00    -0.108 NA
ATOM     10  C   UNL     1      -3.810  -0.743  -5.990  0.00  0.00    +0.036 A 
ATOM     11  C   UNL     1      -4.558  -0.011  -6.847  0.00  0.00    +0.048 A 
ATOM     12  S   UNL     1      -5.025   1.394  -5.850  0.00  0.00    -0.092 S 
ATOM     13  N   UNL     1      -4.672   2.694  -2.788  0.00  0.00    -0.325 N 
ATOM     14  H   UNL     1      -5.192   3.152  -3.468  0.00  0.00    +0.148 HD
ENDROOT
BRANCH   1  15
ATOM     15  S   UNL     1      -1.512  -0.905   0.012  0.00  0.00    +0.047 S 
ATOM     16  O   UNL     1      -1.218  -2.186   0.553  0.00  0.00    -0.163 OA
ATOM     17  O   UNL     1      -2.492  -0.046   0.577  0.00  0.00    -0.163 OA
BRANCH  15  23
ATOM     18  C   UNL     1      -0.017   1.378   0.010  0.00  0.00    +0.029 A 
ATOM     19  C   UNL     1       1.171   2.086   0.002  0.00  0.00    +0.022 A 
ATOM     20  C   UNL     1       2.378   1.410  -0.013  0.00  0.00    +0.041 A 
ATOM     21  C   UNL     1       2.396   0.027  -0.021  0.00  0.00    +0.022 A 
ATOM     22  C   UNL     1       1.208  -0.679  -0.013  0.00  0.00    +0.029 A 
ATOM     23  C   UNL     1       0.002  -0.004   0.002  0.00  0.00    +0.096 A 
ATOM     24 CL   UNL     1       3.870   2.298  -0.023  0.00  0.00    -0.084 Cl
ENDBRANCH  15  23
ENDBRANCH   1  15
BRANCH  13  25
ATOM     25  C   UNL     1      -4.531   3.282  -1.454  0.00  0.00    +0.072 C 
ATOM     26  C   UNL     1      -5.784   3.873  -0.806  0.00  0.00    +0.024 C 
ATOM     27  C   UNL     1      -4.685   4.799  -1.331  0.00  0.00    +0.024 C 
ENDBRANCH  13  25
TORSDOF 3
