REMARK  Name = ZINC16091711
REMARK  4 active torsions:
REMARK  status: ('A' for Active; 'I' for Inactive)
REMARK    1  A    between atoms: C_1  and  C_2
REMARK    2  A    between atoms: C_5  and  C_20
REMARK    3  A    between atoms: N_8  and  S_10
REMARK    4  A    between atoms: S_10  and  C_13
REMARK                            x       y       z     vdW  Elec       q    Type
REMARK                         _______ _______ _______ _____ _____    ______ ____
ROOT
ATOM      1  S   UNL     1      -0.621   0.347   3.688  0.00  0.00    +0.062 S 
ATOM      2  O   UNL     1      -1.744  -0.332   3.144  0.00  0.00    -0.153 OA
ATOM      3  O   UNL     1       0.435  -0.336   4.349  0.00  0.00    -0.153 OA
ENDROOT
BRANCH   1   9
ATOM      4  C   UNL     1       3.619   1.586   1.189  0.00  0.00    +0.009 C 
ATOM      5  C   UNL     1       2.175   1.082   1.218  0.00  0.00    +0.002 C 
ATOM      6  C   UNL     1       1.423   1.616  -0.003  0.00  0.00    +0.009 C 
ATOM      7  C   UNL     1      -0.013   1.086   0.008  0.00  0.00    +0.002 C 
ATOM      8  C   UNL     1      -0.726   1.581   1.270  0.00  0.00    +0.112 C 
ATOM      9  N   UNL     1       0.069   1.195   2.444  0.00  0.00    -0.176 NA
ATOM     10  C   UNL     1       1.486   1.577   2.494  0.00  0.00    +0.112 C 
ATOM     11  C   UNL     1      -0.754   1.593  -1.230  0.00  0.00    +0.009 C 
ENDBRANCH   1   9
BRANCH   1  12
ATOM     12  C   UNL     1      -1.253   1.526   4.835  0.00  0.00    +0.119 A 
ATOM     13  C   UNL     1      -2.616   1.619   5.051  0.00  0.00    +0.029 A 
ATOM     14  C   UNL     1      -3.111   2.539   5.955  0.00  0.00    +0.002 A 
ATOM     15  C   UNL     1      -2.246   3.377   6.634  0.00  0.00    +0.001 A 
ATOM     16  C   UNL     1      -0.884   3.289   6.414  0.00  0.00    +0.017 A 
ATOM     17  C   UNL     1      -0.387   2.364   5.514  0.00  0.00    +0.044 A 
ATOM     18 BR   UNL     1       1.476   2.243   5.213  0.00  0.00    -0.048 Br
ENDBRANCH   1  12
TORSDOF 2
