REMARK  Name = ZINC24441839
REMARK  6 active torsions:
REMARK  status: ('A' for Active; 'I' for Inactive)
REMARK    1  A    between atoms: C_5  and  C_7
REMARK    2  A    between atoms: C_7  and  C_9
REMARK    3  A    between atoms: C_7  and  N_29
REMARK    4  A    between atoms: C_9  and  C_10
REMARK    5  A    between atoms: N_12  and  C_13
REMARK    6  A    between atoms: C_16  and  N_23
REMARK                            x       y       z     vdW  Elec       q    Type
REMARK                         _______ _______ _______ _____ _____    ______ ____
ROOT
ATOM      1  C   UNL     1       1.163  -4.200   1.321  0.00  0.00    +0.219 C 
ATOM      2  O   UNL     1       0.696  -4.842   0.404  0.00  0.00    -0.275 OA
ATOM      3  N   UNL     1       1.996  -4.790   2.201  0.00  0.00    -0.285 N 
ATOM      4  H   UNL     1       2.308  -4.299   2.977  0.00  0.00    +0.155 HD
ENDROOT
BRANCH   3   5
ATOM      5  C   UNL     1       2.409  -6.109   1.996  0.00  0.00    +0.043 A 
ATOM      6  C   UNL     1       2.401  -6.650   0.727  0.00  0.00    +0.026 A 
ATOM      7  C   UNL     1       2.810  -7.960   0.506  0.00  0.00    +0.025 A 
ATOM      8  C   UNL     1       3.235  -8.755   1.550  0.00  0.00    +0.038 A 
ATOM      9  C   UNL     1       3.255  -8.232   2.856  0.00  0.00    +0.008 A 
ATOM     10  C   UNL     1       2.844  -6.894   3.082  0.00  0.00    +0.023 A 
ATOM     11  C   UNL     1       2.878  -6.393   4.393  0.00  0.00    +0.121 A 
ATOM     12  N   UNL     1       3.290  -7.160   5.375  0.00  0.00    -0.263 NA
ATOM     13  C   UNL     1       3.685  -8.413   5.191  0.00  0.00    +0.111 A 
ATOM     14  C   UNL     1       3.678  -8.994   3.959  0.00  0.00    +0.030 A 
BRANCH   8  15
ATOM     15  N   UNL     1       3.642 -10.070   1.312  0.00  0.00    -0.329 N 
ATOM     16  C   UNL     1       2.673 -11.174   1.358  0.00  0.00    +0.105 C 
ATOM     17  C   UNL     1       2.762 -11.963   0.048  0.00  0.00    +0.019 C 
ATOM     18  C   UNL     1       4.210 -12.406  -0.178  0.00  0.00    +0.003 C 
ATOM     19  C   UNL     1       5.110 -11.174  -0.294  0.00  0.00    +0.019 C 
ATOM     20  C   UNL     1       5.046 -10.375   1.006  0.00  0.00    +0.105 C 
ENDBRANCH   8  15
ENDBRANCH   3   5
BRANCH   1  21
ATOM     21  C   UNL     1       0.812  -2.743   1.476  0.00  0.00    +0.123 C 
BRANCH  21  22
ATOM     22  C   UNL     1      -0.142  -2.326   0.354  0.00  0.00    +0.115 C 
BRANCH  22  27
ATOM     23  C   UNL     1      -0.280   1.217   1.652  0.00  0.00    +0.000 A 
ATOM     24  C   UNL     1      -0.863   1.879   0.587  0.00  0.00    +0.001 A 
ATOM     25  C   UNL     1      -1.214   1.181  -0.553  0.00  0.00    +0.020 A 
ATOM     26  C   UNL     1      -0.981  -0.181  -0.629  0.00  0.00    +0.046 A 
ATOM     27  C   UNL     1      -0.396  -0.843   0.436  0.00  0.00    -0.008 A 
ATOM     28  C   UNL     1      -0.046  -0.143   1.576  0.00  0.00    +0.007 A 
ATOM     29 CL   UNL     1      -1.422  -1.059  -2.060  0.00  0.00    -0.083 Cl
ENDBRANCH  22  27
BRANCH  22  30
ATOM     30  N   UNL     1      -1.409  -3.047   0.498  0.00  0.00    -0.292 N 
ATOM     31  C   UNL     1      -2.171  -2.859   1.594  0.00  0.00    +0.298 C 
ATOM     32  O   UNL     1      -1.855  -2.023   2.418  0.00  0.00    -0.253 OA
ATOM     33  N   UNL     1      -3.283  -3.599   1.777  0.00  0.00    -0.313 N 
ATOM     34  H   UNL     1      -1.700  -3.659  -0.195  0.00  0.00    +0.151 HD
ATOM     35  H   UNL     1      -3.535  -4.266   1.120  0.00  0.00    +0.146 HD
ATOM     36  H   UNL     1      -3.831  -3.464   2.566  0.00  0.00    +0.146 HD
ENDBRANCH  22  30
ENDBRANCH  21  22
ENDBRANCH   1  21
TORSDOF 6
