REMARK  Name = ZINC13512906
REMARK  15 active torsions:
REMARK  status: ('A' for Active; 'I' for Inactive)
REMARK    1  A    between atoms: C_1  and  C_2
REMARK    2  A    between atoms: C_2  and  O_3
REMARK    3  A    between atoms: O_3  and  C_4
REMARK    4  A    between atoms: C_4  and  C_6
REMARK    5  A    between atoms: C_10  and  N_11
REMARK    6  A    between atoms: N_11  and  C_12
REMARK    7  A    between atoms: C_13  and  C_14
REMARK    8  A    between atoms: C_13  and  C_16
REMARK    9  A    between atoms: C_18  and  C_21
REMARK   10  A    between atoms: C_24  and  C_28
REMARK   11  A    between atoms: C_26  and  C_27
REMARK   12  A    between atoms: C_30  and  C_34
REMARK   13  A    between atoms: C_34  and  C_35
REMARK   14  A    between atoms: C_34  and  C_36
REMARK   15  A    between atoms: C_34  and  C_37
REMARK                            x       y       z     vdW  Elec       q    Type
REMARK                         _______ _______ _______ _____ _____    ______ ____
ROOT
ATOM      1  N   UNL     1      -0.737  -3.421  -3.608  0.00  0.00    -0.313 N 
ATOM      2  H   UNL     1      -1.194  -2.823  -2.996  0.00  0.00    +0.152 HD
ENDROOT
BRANCH   1   7
ATOM      3  C   UNL     1       0.948  -4.136  -1.921  0.00  0.00    +0.091 A 
ATOM      4  C   UNL     1       2.103  -4.996  -1.724  0.00  0.00    -0.021 A 
ATOM      5  C   UNL     1       2.462  -5.699  -2.819  0.00  0.00    -0.004 A 
ATOM      6  S   UNL     1       1.297  -5.222  -4.062  0.00  0.00    -0.077 S 
ATOM      7  C   UNL     1       0.362  -4.141  -3.179  0.00  0.00    +0.084 A 
ATOM      8  C   UNL     1       3.600  -6.666  -2.934  0.00  0.00    +0.046 C 
ATOM      9  C   UNL     1       4.071  -7.027  -1.518  0.00  0.00    -0.000 C 
ATOM     10  C   UNL     1       4.239  -5.739  -0.708  0.00  0.00    +0.009 C 
ATOM     11  C   UNL     1       2.869  -5.124  -0.415  0.00  0.00    +0.037 C 
BRANCH   9  12
ATOM     12  C   UNL     1       5.409  -7.766  -1.596  0.00  0.00    -0.035 C 
ATOM     13  C   UNL     1       6.450  -6.866  -2.264  0.00  0.00    +0.011 C 
ATOM     14  C   UNL     1       5.875  -8.125  -0.183  0.00  0.00    +0.011 C 
ATOM     15  C   UNL     1       5.238  -9.045  -2.417  0.00  0.00    +0.011 C 
ENDBRANCH   9  12
BRANCH   3  16
ATOM     16  C   UNL     1       0.423  -3.304  -0.838  0.00  0.00    +0.342 C 
ATOM     17  O   UNL     1      -0.429  -3.746  -0.090  0.00  0.00    -0.245 OA
BRANCH  16  18
ATOM     18  O   UNL     1       0.882  -2.047  -0.669  0.00  0.00    -0.461 OA
BRANCH  18  20
ATOM     19  C   UNL     1       0.964   0.098   0.442  0.00  0.00    +0.048 C 
ATOM     20  C   UNL     1       0.325  -1.292   0.408  0.00  0.00    +0.229 C 
ENDBRANCH  18  20
ENDBRANCH  16  18
ENDBRANCH   3  16
ENDBRANCH   1   7
BRANCH   1  21
ATOM     21  C   UNL     1      -1.181  -3.551  -4.895  0.00  0.00    +0.094 C 
ATOM     22  C   UNL     1      -2.356  -2.975  -5.273  0.00  0.00    +0.098 C 
BRANCH  22  23
ATOM     23  C   UNL     1      -3.195  -2.286  -4.273  0.00  0.00    +0.120 A 
ATOM     24  N   UNL     1      -3.068  -2.250  -2.954  0.00  0.00    -0.238 NA
ATOM     25  C   UNL     1      -3.920  -1.574  -2.203  0.00  0.00    +0.079 A 
ATOM     26  C   UNL     1      -4.952  -0.898  -2.797  0.00  0.00    +0.075 A 
ATOM     27  S   UNL     1      -4.646  -1.271  -4.519  0.00  0.00    -0.074 S 
BRANCH  25  28
ATOM     28  C   UNL     1      -3.760  -1.548  -0.729  0.00  0.00    +0.004 A 
ATOM     29  C   UNL     1      -3.943  -0.358  -0.026  0.00  0.00    +0.010 A 
ATOM     30  C   UNL     1      -3.792  -0.340   1.346  0.00  0.00    +0.004 A 
ATOM     31  C   UNL     1      -3.460  -1.500   2.023  0.00  0.00    -0.050 A 
ATOM     32  C   UNL     1      -3.277  -2.683   1.331  0.00  0.00    +0.007 A 
ATOM     33  C   UNL     1      -3.431  -2.714  -0.040  0.00  0.00    -0.041 A 
ATOM     34  C   UNL     1      -3.238  -4.006  -0.792  0.00  0.00    +0.044 C 
ATOM     35  C   UNL     1      -3.297  -1.473   3.521  0.00  0.00    +0.044 C 
ENDBRANCH  25  28
ENDBRANCH  22  23
BRANCH  22  36
ATOM     36  C   UNL     1      -2.778  -3.038  -6.640  0.00  0.00    +0.103 C 
ATOM     37  N   UNL     1      -3.113  -3.087  -7.724  0.00  0.00    -0.191 NA
ENDBRANCH  22  36
ENDBRANCH   1  21
TORSDOF 9
