REMARK  Name = ZINC48024955
REMARK  8 active torsions:
REMARK  status: ('A' for Active; 'I' for Inactive)
REMARK    1  A    between atoms: C_1  and  C_2
REMARK    2  A    between atoms: C_2  and  O_3
REMARK    3  A    between atoms: O_3  and  C_4
REMARK    4  A    between atoms: C_4  and  C_6
REMARK    5  A    between atoms: C_7  and  C_16
REMARK    6  A    between atoms: C_16  and  N_17
REMARK    7  A    between atoms: C_20  and  C_23
REMARK    8  A    between atoms: C_23  and  C_24
REMARK                            x       y       z     vdW  Elec       q    Type
REMARK                         _______ _______ _______ _____ _____    ______ ____
ROOT
ATOM      1  C   UNL     1       1.450  -2.345  -2.519  0.00  0.00    +0.099 A 
ATOM      2  C   UNL     1       1.649  -3.648  -2.857  0.00  0.00    -0.032 A 
ATOM      3  C   UNL     1       2.325  -3.969  -4.046  0.00  0.00    +0.027 A 
ATOM      4  C   UNL     1       2.627  -5.256  -4.566  0.00  0.00    +0.132 A 
ATOM      5  C   UNL     1       3.301  -5.390  -5.752  0.00  0.00    +0.039 A 
ATOM      6  C   UNL     1       3.710  -4.280  -6.481  0.00  0.00    +0.004 A 
ATOM      7  C   UNL     1       3.434  -3.014  -6.008  0.00  0.00    +0.016 A 
ATOM      8  C   UNL     1       2.757  -2.863  -4.816  0.00  0.00    +0.023 A 
ATOM      9  S   UNL     1       2.206  -1.463  -3.874  0.00  0.00    -0.082 S 
ATOM     10  F   UNL     1       2.246  -6.359  -3.885  0.00  0.00    -0.205 F 
ENDROOT
BRANCH   1  11
ATOM     11  C   UNL     1       0.776  -1.800  -1.335  0.00  0.00    +0.346 C 
ATOM     12  O   UNL     1       0.312  -2.551  -0.499  0.00  0.00    -0.244 OA
BRANCH  11  13
ATOM     13  O   UNL     1       0.671  -0.465  -1.174  0.00  0.00    -0.461 OA
BRANCH  13  15
ATOM     14  C   UNL     1      -0.019   1.526   0.010  0.00  0.00    +0.048 C 
ATOM     15  C   UNL     1       0.002  -0.004   0.002  0.00  0.00    +0.229 C 
ENDBRANCH  13  15
ENDBRANCH  11  13
ENDBRANCH   1  11
BRANCH   2  16
ATOM     16  C   UNL     1       1.144  -4.746  -1.957  0.00  0.00    -0.041 C 
BRANCH  16  17
ATOM     17  N   UNL     1      -0.225  -5.109  -2.348  0.00  0.00    +0.382 N 
ATOM     18  C   UNL     1      -1.117  -3.967  -2.118  0.00  0.00    -0.078 C 
ATOM     19  C   UNL     1      -2.528  -4.312  -2.599  0.00  0.00    -0.015 C 
ATOM     20  C   UNL     1      -3.043  -5.528  -1.823  0.00  0.00    -0.006 C 
ATOM     21  C   UNL     1      -2.065  -6.691  -2.009  0.00  0.00    -0.015 C 
ATOM     22  C   UNL     1      -0.671  -6.258  -1.550  0.00  0.00    -0.078 C 
ATOM     23  H   UNL     1      -0.240  -5.354  -3.326  0.00  0.00    -0.081 HD
BRANCH  20  24
ATOM     24  C   UNL     1      -4.421  -5.927  -2.353  0.00  0.00    +0.099 C 
BRANCH  24  25
ATOM     25  C   UNL     1      -4.980  -7.044  -1.510  0.00  0.00    +0.211 C 
ATOM     26  O   UNL     1      -4.338  -7.478  -0.576  0.00  0.00    -0.276 OA
ATOM     27  N   UNL     1      -6.192  -7.561  -1.792  0.00  0.00    -0.329 N 
ATOM     28  H   UNL     1      -6.705  -7.215  -2.539  0.00  0.00    +0.145 HD
ATOM     29  H   UNL     1      -6.551  -8.280  -1.249  0.00  0.00    +0.145 HD
ENDBRANCH  24  25
ENDBRANCH  20  24
ENDBRANCH  16  17
ENDBRANCH   2  16
TORSDOF 7
