REMARK  Name = ZINC63697462
REMARK  4 active torsions:
REMARK  status: ('A' for Active; 'I' for Inactive)
REMARK    1  A    between atoms: C_1  and  S_2
REMARK    2  A    between atoms: S_2  and  C_3
REMARK    3  A    between atoms: C_6  and  C_9
REMARK    4  A    between atoms: C_24  and  C_26
REMARK                            x       y       z     vdW  Elec       q    Type
REMARK                         _______ _______ _______ _____ _____    ______ ____
ROOT
ATOM      1  C   UNL     1       3.075  -1.330   4.788  0.00  0.00    +0.133 C 
ATOM      2  C   UNL     1       1.874  -1.679   5.673  0.00  0.00    +0.131 C 
ATOM      3  C   UNL     1       1.219  -2.906   5.052  0.00  0.00    -0.035 C 
ATOM      4  C   UNL     1      -0.049  -2.582   4.828  0.00  0.00    -0.001 A 
ATOM      5  C   UNL     1      -1.184  -3.364   4.313  0.00  0.00    +0.010 A 
ATOM      6  C   UNL     1      -2.365  -2.701   4.197  0.00  0.00    +0.001 A 
ATOM      7  C   UNL     1      -2.528  -1.355   4.537  0.00  0.00    +0.002 A 
ATOM      8  C   UNL     1      -1.541  -0.561   5.022  0.00  0.00    +0.026 A 
ATOM      9  C   UNL     1      -0.253  -1.147   5.194  0.00  0.00    +0.043 A 
ATOM     10  N   UNL     1       0.864  -0.620   5.664  0.00  0.00    -0.375 N 
ATOM     11  C   UNL     1       1.992  -4.162   4.729  0.00  0.00    +0.052 C 
ATOM     12  C   UNL     1       3.227  -3.725   3.920  0.00  0.00    +0.113 C 
ATOM     13  N   UNL     1       3.847  -2.563   4.565  0.00  0.00    -0.288 N 
ATOM     14  C   UNL     1       5.135  -2.624   4.959  0.00  0.00    +0.248 C 
ATOM     15  O   UNL     1       5.623  -1.705   5.588  0.00  0.00    -0.270 OA
ATOM     16  H   UNL     1       1.002   0.298   5.947  0.00  0.00    +0.160 HD
ENDROOT
BRANCH  14  17
ATOM     17  C   UNL     1       5.953  -3.809   4.626  0.00  0.00    +0.051 A 
ATOM     18  C   UNL     1       6.021  -4.267   3.309  0.00  0.00    +0.014 A 
ATOM     19  C   UNL     1       6.787  -5.373   3.006  0.00  0.00    +0.001 A 
ATOM     20  C   UNL     1       7.487  -6.029   4.003  0.00  0.00    +0.001 A 
ATOM     21  C   UNL     1       7.425  -5.582   5.310  0.00  0.00    +0.016 A 
ATOM     22  C   UNL     1       6.667  -4.472   5.627  0.00  0.00    +0.030 A 
ATOM     23 BR   UNL     1       6.588  -3.857   7.414  0.00  0.00    -0.050 Br
ENDBRANCH  14  17
BRANCH   1  27
ATOM     24  C   UNL     1       1.712   0.219   1.045  0.00  0.00    +0.008 A 
ATOM     25  C   UNL     1       1.367  -1.070   1.433  0.00  0.00    +0.015 A 
ATOM     26  C   UNL     1       1.809  -1.567   2.643  0.00  0.00    +0.006 A 
ATOM     27  C   UNL     1       2.595  -0.784   3.469  0.00  0.00    -0.025 A 
ATOM     28  C   UNL     1       2.940   0.500   3.086  0.00  0.00    +0.006 A 
ATOM     29  C   UNL     1       2.507   1.001   1.875  0.00  0.00    +0.015 A 
BRANCH  24  31
ATOM     30  C   UNL     1       0.172  -0.497  -1.204  0.00  0.00    +0.090 C 
ATOM     31  S   UNL     1       1.150   0.858  -0.498  0.00  0.00    -0.129 S 
ENDBRANCH  24  31
ENDBRANCH   1  27
TORSDOF 3
