REMARK  Name = ZINC09636730
REMARK  9 active torsions:
REMARK  status: ('A' for Active; 'I' for Inactive)
REMARK    1  A    between atoms: N_12  and  C_25
REMARK    2  A    between atoms: C_13  and  S_15
REMARK    3  A    between atoms: S_15  and  C_16
REMARK    4  A    between atoms: C_16  and  C_17
REMARK    5  A    between atoms: N_19  and  C_20
REMARK    6  A    between atoms: C_25  and  C_26
REMARK    7  A    between atoms: C_26  and  C_27
REMARK    8  A    between atoms: C_27  and  C_28
REMARK    9  A    between atoms: N_30  and  C_31
REMARK                            x       y       z     vdW  Elec       q    Type
REMARK                         _______ _______ _______ _____ _____    ______ ____
ROOT
ATOM      1  C   UNL     1      -2.234   1.283  14.307  0.00  0.00    +0.001 A 
ATOM      2  C   UNL     1      -2.837   2.481  14.666  0.00  0.00    +0.001 A 
ATOM      3  C   UNL     1      -2.760   3.563  13.811  0.00  0.00    +0.016 A 
ATOM      4  C   UNL     1      -2.085   3.436  12.613  0.00  0.00    +0.022 A 
ATOM      5  C   UNL     1      -1.467   2.233  12.228  0.00  0.00    +0.015 A 
ATOM      6  C   UNL     1      -1.568   1.149  13.130  0.00  0.00    +0.011 A 
ATOM      7  C   UNL     1      -0.785   2.252  10.921  0.00  0.00    +0.094 A 
ATOM      8  C   UNL     1      -0.833   3.457  10.223  0.00  0.00    +0.103 A 
ATOM      9  S   UNL     1      -1.760   4.548  11.268  0.00  0.00    -0.081 S 
ATOM     10  C   UNL     1      -0.217   3.600   8.975  0.00  0.00    +0.269 A 
ATOM     11  O   UNL     1      -0.260   4.661   8.374  0.00  0.00    -0.266 OA
ATOM     12  N   UNL     1       0.424   2.529   8.450  0.00  0.00    -0.287 N 
ATOM     13  C   UNL     1       0.455   1.361   9.155  0.00  0.00    +0.173 A 
ATOM     14  N   UNL     1      -0.116   1.227  10.324  0.00  0.00    -0.222 NA
ENDROOT
BRANCH  13  15
ATOM     15  S   UNL     1       1.298  -0.022   8.463  0.00  0.00    -0.078 S 
BRANCH  15  16
ATOM     16  C   UNL     1       1.028  -1.242   9.772  0.00  0.00    +0.173 C 
BRANCH  16  17
ATOM     17  C   UNL     1       1.681  -2.545   9.386  0.00  0.00    +0.224 C 
ATOM     18  O   UNL     1       2.271  -2.639   8.331  0.00  0.00    -0.275 OA
ATOM     19  N   UNL     1       1.610  -3.605  10.215  0.00  0.00    -0.312 N 
ATOM     20  H   UNL     1       1.139  -3.530  11.059  0.00  0.00    +0.149 HD
BRANCH  19  21
ATOM     21  C   UNL     1       2.245  -4.872   9.841  0.00  0.00    +0.073 C 
ATOM     22  C   UNL     1       1.266  -5.729   9.012  0.00  0.00    +0.022 C 
ATOM     23  C   UNL     1       1.544  -7.180   9.477  0.00  0.00    +0.002 C 
ATOM     24  C   UNL     1       1.797  -7.009  10.996  0.00  0.00    +0.002 C 
ATOM     25  C   UNL     1       2.582  -5.685  11.102  0.00  0.00    +0.022 C 
ENDBRANCH  19  21
ENDBRANCH  16  17
ENDBRANCH  15  16
ENDBRANCH  13  15
BRANCH  12  26
ATOM     26  C   UNL     1       1.081   2.625   7.145  0.00  0.00    +0.128 C 
BRANCH  26  27
ATOM     27  C   UNL     1       0.090   2.237   6.045  0.00  0.00    +0.031 C 
BRANCH  27  28
ATOM     28  C   UNL     1       0.776   2.337   4.682  0.00  0.00    +0.097 C 
BRANCH  28  29
ATOM     29  C   UNL     1      -0.200   1.954   3.599  0.00  0.00    +0.213 C 
ATOM     30  O   UNL     1      -1.333   1.633   3.889  0.00  0.00    -0.276 OA
ATOM     31  N   UNL     1       0.186   1.969   2.308  0.00  0.00    -0.312 N 
ATOM     32  H   UNL     1       1.092   2.226   2.075  0.00  0.00    +0.149 HD
BRANCH  31  33
ATOM     33  C   UNL     1      -0.763   1.597   1.255  0.00  0.00    +0.073 C 
ATOM     34  C   UNL     1      -0.013   1.086   0.008  0.00  0.00    +0.022 C 
ATOM     35  C   UNL     1      -0.784   1.609  -1.216  0.00  0.00    +0.002 C 
ATOM     36  C   UNL     1      -1.978   2.421  -0.670  0.00  0.00    +0.002 C 
ATOM     37  C   UNL     1      -1.531   2.845   0.750  0.00  0.00    +0.022 C 
ENDBRANCH  31  33
ENDBRANCH  28  29
ENDBRANCH  27  28
ENDBRANCH  26  27
ENDBRANCH  12  26
TORSDOF 9
