REMARK  Name = ZINC20206505
REMARK  9 active torsions:
REMARK  status: ('A' for Active; 'I' for Inactive)
REMARK    1  A    between atoms: C_1  and  C_2
REMARK    2  A    between atoms: C_2  and  S_3
REMARK    3  A    between atoms: S_3  and  C_6
REMARK    4  A    between atoms: C_14  and  C_15
REMARK    5  A    between atoms: N_17  and  C_24
REMARK    6  A    between atoms: C_24  and  C_25
REMARK    7  A    between atoms: C_25  and  O_26
REMARK    8  A    between atoms: O_26  and  C_27
REMARK    9  A    between atoms: C_30  and  C_33
REMARK                            x       y       z     vdW  Elec       q    Type
REMARK                         _______ _______ _______ _____ _____    ______ ____
ROOT
ATOM      1  C   UNL     1      -2.460  -3.240   0.012  0.00  0.00    +0.257 C 
ATOM      2  N   UNL     1      -2.970  -4.093   0.846  0.00  0.00    -0.174 NA
ATOM      3  S   UNL     1      -3.419  -5.391  -0.115  0.00  0.00    +0.049 S 
ATOM      4  C   UNL     1      -2.889  -4.831  -1.592  0.00  0.00    +0.183 C 
ATOM      5  N   UNL     1      -2.897  -5.410  -2.772  0.00  0.00    -0.152 NA
ATOM      6  C   UNL     1      -2.346  -4.776  -3.825  0.00  0.00    +0.273 C 
ATOM      7  O   UNL     1      -2.456  -5.227  -4.953  0.00  0.00    -0.268 OA
ATOM      8  C   UNL     1      -1.603  -3.518  -3.579  0.00  0.00    +0.078 C 
ATOM      9  C   UNL     1      -0.606  -3.081  -4.431  0.00  0.00    +0.026 C 
ATOM     10  C   UNL     1      -1.992  -2.748  -2.365  0.00  0.00    +0.117 C 
ATOM     11  N   UNL     1      -1.941  -1.444  -2.293  0.00  0.00    -0.386 N 
ATOM     12  N   UNL     1      -2.425  -3.565  -1.302  0.00  0.00    -0.203 N 
ATOM     13  H   UNL     1      -1.550  -0.933  -3.020  0.00  0.00    +0.157 HD
ATOM     14  H   UNL     1      -2.293  -0.987  -1.514  0.00  0.00    +0.157 HD
ENDROOT
BRANCH   9  15
ATOM     15  C   UNL     1      -0.146  -3.922  -5.471  0.00  0.00    +0.001 A 
ATOM     16  C   UNL     1       0.019  -5.293  -5.418  0.00  0.00    +0.095 A 
ATOM     17  N   UNL     1       0.475  -5.739  -6.605  0.00  0.00    -0.343 N 
ATOM     18  C   UNL     1       0.632  -4.692  -7.492  0.00  0.00    +0.050 A 
ATOM     19  C   UNL     1       0.248  -3.514  -6.834  0.00  0.00    +0.007 A 
ATOM     20  C   UNL     1       0.300  -2.293  -7.499  0.00  0.00    +0.010 A 
ATOM     21  C   UNL     1       0.727  -2.247  -8.809  0.00  0.00    +0.001 A 
ATOM     22  C   UNL     1       1.103  -3.411  -9.463  0.00  0.00    +0.002 A 
ATOM     23  C   UNL     1       1.065  -4.625  -8.812  0.00  0.00    +0.026 A 
BRANCH  17  24
ATOM     24  C   UNL     1       0.766  -7.141  -6.912  0.00  0.00    +0.163 C 
BRANCH  24  25
ATOM     25  C   UNL     1       2.253  -7.416  -6.683  0.00  0.00    +0.250 C 
BRANCH  25  26
ATOM     26  O   UNL     1       2.536  -8.785  -6.982  0.00  0.00    -0.490 OA
BRANCH  26  27
ATOM     27  C   UNL     1       3.822  -9.196  -6.829  0.00  0.00    +0.121 A 
ATOM     28  C   UNL     1       4.791  -8.303  -6.394  0.00  0.00    +0.046 A 
ATOM     29  C   UNL     1       6.097  -8.724  -6.239  0.00  0.00    +0.007 A 
ATOM     30  C   UNL     1       6.440 -10.034  -6.518  0.00  0.00    -0.050 A 
ATOM     31  C   UNL     1       5.477 -10.927  -6.952  0.00  0.00    +0.007 A 
ATOM     32  C   UNL     1       4.168 -10.512  -7.102  0.00  0.00    +0.046 A 
ATOM     33  C   UNL     1       7.867 -10.491  -6.348  0.00  0.00    +0.044 C 
ENDBRANCH  26  27
ENDBRANCH  25  26
ENDBRANCH  24  25
ENDBRANCH  17  24
ENDBRANCH   9  15
BRANCH   1  34
ATOM     34  S   UNL     1      -1.833  -1.693   0.576  0.00  0.00    +0.029 S 
ATOM     35  O   UNL     1      -0.827  -1.345  -0.365  0.00  0.00    -0.167 OA
ATOM     36  O   UNL     1      -1.505  -1.910   1.941  0.00  0.00    -0.167 OA
BRANCH  34  38
ATOM     37  C   UNL     1      -2.765   0.871   0.772  0.00  0.00    +0.028 C 
ATOM     38  C   UNL     1      -3.234  -0.547   0.444  0.00  0.00    +0.172 C 
ENDBRANCH  34  38
ENDBRANCH   1  34
TORSDOF 7
