REMARK  Name = ZINC67297041
REMARK  4 active torsions:
REMARK  status: ('A' for Active; 'I' for Inactive)
REMARK    1  A    between atoms: C_7  and  C_11
REMARK    2  A    between atoms: C_11  and  C_12
REMARK    3  A    between atoms: N_14  and  N_15
REMARK    4  A    between atoms: C_22  and  C_24
REMARK                            x       y       z     vdW  Elec       q    Type
REMARK                         _______ _______ _______ _____ _____    ______ ____
ROOT
ATOM      1  N   UNL     1      -0.995  -4.895  -2.989  0.00  0.00    -0.218 N 
ATOM      2  C   UNL     1      -1.838  -5.918  -3.231  0.00  0.00    +0.322 C 
ATOM      3  O   UNL     1      -2.180  -6.167  -4.371  0.00  0.00    -0.251 OA
ATOM      4  N   UNL     1      -2.303  -6.665  -2.210  0.00  0.00    -0.246 N 
ATOM      5  C   UNL     1      -3.173  -7.720  -2.460  0.00  0.00    +0.189 A 
ATOM      6  N   UNL     1      -3.651  -8.149  -3.611  0.00  0.00    -0.126 NA
ATOM      7  N   UNL     1      -4.442  -9.132  -3.681  0.00  0.00    -0.144 NA
ATOM      8  C   UNL     1      -4.800  -9.747  -2.572  0.00  0.00    +0.107 A 
ATOM      9  S   UNL     1      -3.886  -8.791  -1.370  0.00  0.00    -0.035 S 
ATOM     10  H   UNL     1      -0.661  -4.357  -3.724  0.00  0.00    +0.174 HD
ATOM     11  H   UNL     1      -2.030  -6.466  -1.301  0.00  0.00    +0.158 HD
ENDROOT
BRANCH   8  12
ATOM     12  C   UNL     1      -5.716 -10.927  -2.374  0.00  0.00    +0.047 C 
ATOM     13  C   UNL     1      -5.164 -12.135  -3.134  0.00  0.00    +0.010 C 
ATOM     14  C   UNL     1      -6.094 -13.333  -2.933  0.00  0.00    +0.001 C 
ATOM     15  C   UNL     1      -7.488 -12.991  -3.462  0.00  0.00    +0.000 C 
ATOM     16  C   UNL     1      -8.040 -11.783  -2.702  0.00  0.00    +0.001 C 
ATOM     17  C   UNL     1      -7.110 -10.585  -2.903  0.00  0.00    +0.010 C 
ENDBRANCH   8  12
BRANCH   1  20
ATOM     18  C   UNL     1       0.242  -3.584  -1.434  0.00  0.00    +0.234 C 
ATOM     19  O   UNL     1       0.660  -2.913  -2.353  0.00  0.00    -0.274 OA
ATOM     20  N   UNL     1      -0.601  -4.607  -1.676  0.00  0.00    -0.233 N 
ATOM     21  H   UNL     1      -0.935  -5.145  -0.941  0.00  0.00    +0.173 HD
BRANCH  18  22
ATOM     22  C   UNL     1       0.666  -3.275  -0.021  0.00  0.00    +0.134 C 
BRANCH  22  29
ATOM     23  C   UNL     1      -0.017   1.362   0.009  0.00  0.00    +0.001 A 
ATOM     24  C   UNL     1       1.170   2.083   0.002  0.00  0.00    +0.002 A 
ATOM     25  C   UNL     1       2.386   1.436  -0.013  0.00  0.00    +0.026 A 
ATOM     26  C   UNL     1       2.428   0.046  -0.021  0.00  0.00    +0.047 A 
ATOM     27  C   UNL     1       1.223  -0.681  -0.013  0.00  0.00    +0.003 A 
ATOM     28  C   UNL     1       0.002  -0.004   0.002  0.00  0.00    +0.010 A 
ATOM     29  C   UNL     1       1.604  -2.095  -0.025  0.00  0.00    -0.014 A 
ATOM     30  C   UNL     1       2.945  -2.141  -0.038  0.00  0.00    +0.087 A 
ATOM     31  N   UNL     1       3.455  -0.871  -0.036  0.00  0.00    -0.360 N 
ATOM     32  H   UNL     1       4.399  -0.650  -0.044  0.00  0.00    +0.165 HD
ENDBRANCH  22  29
ENDBRANCH  18  22
ENDBRANCH   1  20
TORSDOF 4
