REMARK  Name = ZINC05564079
REMARK  9 active torsions:
REMARK  status: ('A' for Active; 'I' for Inactive)
REMARK    1  A    between atoms: C_1  and  C_2
REMARK    2  A    between atoms: C_2  and  C_3
REMARK    3  A    between atoms: C_3  and  C_4
REMARK    4  A    between atoms: C_4  and  C_6
REMARK    5  A    between atoms: C_4  and  N_7
REMARK    6  A    between atoms: C_10  and  O_12
REMARK    7  A    between atoms: C_13  and  C_20
REMARK    8  A    between atoms: C_25  and  O_26
REMARK    9  A    between atoms: O_26  and  C_27
REMARK                            x       y       z     vdW  Elec       q    Type
REMARK                         _______ _______ _______ _____ _____    ______ ____
ROOT
ATOM      1  N   UNL     1      -2.783  -2.570  -0.106  0.00  0.00    -0.244 N 
ATOM      2  C   UNL     1      -3.267  -3.369  -1.114  0.00  0.00    +0.132 A 
ATOM      3  C   UNL     1      -4.568  -3.610  -0.840  0.00  0.00    +0.072 A 
ATOM      4  C   UNL     1      -4.886  -2.940   0.365  0.00  0.00    +0.238 A 
ATOM      5  N   UNL     1      -3.817  -2.328   0.798  0.00  0.00    -0.131 NA
ATOM      6  C   UNL     1      -5.580  -4.416  -1.591  0.00  0.00    +0.119 C 
ATOM      7  S   UNL     1      -4.880  -5.851  -2.410  0.00  0.00    -0.138 S 
ATOM      8  C   UNL     1      -3.818  -5.210  -3.712  0.00  0.00    +0.166 C 
ATOM      9  C   UNL     1      -2.611  -4.533  -3.191  0.00  0.00    +0.228 C 
ATOM     10  O   UNL     1      -1.601  -4.724  -3.836  0.00  0.00    -0.275 OA
ATOM     11  N   UNL     1      -2.460  -3.768  -2.153  0.00  0.00    -0.270 N 
ATOM     12  H   UNL     1      -1.569  -3.388  -2.098  0.00  0.00    +0.156 HD
ENDROOT
BRANCH   6  13
ATOM     13  C   UNL     1      -6.639  -4.883  -0.625  0.00  0.00    +0.012 A 
ATOM     14  C   UNL     1      -7.807  -4.159  -0.477  0.00  0.00    +0.008 A 
ATOM     15  C   UNL     1      -8.778  -4.586   0.409  0.00  0.00    +0.001 A 
ATOM     16  C   UNL     1      -8.585  -5.739   1.148  0.00  0.00    +0.004 A 
ATOM     17  C   UNL     1      -7.419  -6.466   1.003  0.00  0.00    +0.046 A 
ATOM     18  C   UNL     1      -6.445  -6.042   0.111  0.00  0.00    +0.125 A 
BRANCH  18  19
ATOM     19  O   UNL     1      -5.300  -6.759  -0.038  0.00  0.00    -0.495 OA
ATOM     20  C   UNL     1      -5.168  -7.942   0.753  0.00  0.00    +0.277 C 
ENDBRANCH  18  19
ENDBRANCH   6  13
BRANCH   1  21
ATOM     21  C   UNL     1      -1.413  -2.063   0.004  0.00  0.00    +0.106 C 
ATOM     22  C   UNL     1      -0.784  -2.572   1.303  0.00  0.00    +0.032 C 
BRANCH  21  23
ATOM     23  C   UNL     1      -1.433  -0.534   0.013  0.00  0.00    +0.026 C 
BRANCH  23  25
ATOM     24  C   UNL     1      -0.019   1.526   0.010  0.00  0.00    +0.004 C 
ATOM     25  C   UNL     1       0.002  -0.004   0.002  0.00  0.00    -0.001 C 
ENDBRANCH  23  25
ENDBRANCH  21  23
ENDBRANCH   1  21
BRANCH   4  26
ATOM     26  O   UNL     1      -6.102  -2.937   0.973  0.00  0.00    -0.491 OA
ATOM     27  H   UNL     1      -6.225  -3.655   1.609  0.00  0.00    +0.294 HD
ENDBRANCH   4  26
TORSDOF 6
