REMARK  Name = ZINC08781938
REMARK  7 active torsions:
REMARK  status: ('A' for Active; 'I' for Inactive)
REMARK    1  A    between atoms: C_1  and  C_2
REMARK    2  A    between atoms: C_2  and  C_34
REMARK    3  A    between atoms: N_13  and  C_16
REMARK    4  A    between atoms: C_16  and  C_17
REMARK    5  A    between atoms: C_17  and  N_18
REMARK    6  A    between atoms: N_18  and  C_19
REMARK    7  A    between atoms: C_22  and  C_24
REMARK                            x       y       z     vdW  Elec       q    Type
REMARK                         _______ _______ _______ _____ _____    ______ ____
ROOT
ATOM      1  C   UNL     1       6.076  -0.681  -2.190  0.00  0.00    +0.012 C 
ATOM      2  C   UNL     1       4.589  -1.030  -2.276  0.00  0.00    -0.021 C 
ATOM      3  C   UNL     1       4.196  -1.884  -1.066  0.00  0.00    +0.083 C 
ATOM      4  C   UNL     1       2.717  -2.202  -1.151  0.00  0.00    +0.164 C 
ATOM      5  O   UNL     1       2.322  -3.341  -1.084  0.00  0.00    -0.295 OA
ATOM      6  C   UNL     1       1.756  -1.056  -1.319  0.00  0.00    +0.173 C 
ATOM      7  C   UNL     1       1.519  -0.339   0.017  0.00  0.00    +0.152 C 
ATOM      8  C   UNL     1       0.002  -0.004   0.002  0.00  0.00    +0.242 C 
ATOM      9  C   UNL     1      -0.018   1.509   0.010  0.00  0.00    +0.254 C 
ATOM     10  O   UNL     1      -1.017   2.196   0.019  0.00  0.00    -0.272 OA
ATOM     11  N   UNL     1       1.237   1.971   0.001  0.00  0.00    -0.238 N 
ATOM     12  C   UNL     1       2.179   1.020  -0.003  0.00  0.00    +0.231 C 
ATOM     13  O   UNL     1       3.375   1.218  -0.020  0.00  0.00    -0.275 OA
ATOM     14  O   UNL     1      -0.496  -0.471  -1.266  0.00  0.00    -0.285 OA
ATOM     15  N   UNL     1       0.418  -1.547  -1.707  0.00  0.00    -0.179 NA
ATOM     16  C   UNL     1       2.293  -0.101  -2.352  0.00  0.00    +0.164 C 
ATOM     17  O   UNL     1       1.574   0.364  -3.203  0.00  0.00    -0.295 OA
ATOM     18  C   UNL     1       3.764   0.259  -2.291  0.00  0.00    +0.083 C 
ATOM     19  C   UNL     1       4.325  -1.817  -3.561  0.00  0.00    +0.012 C 
ATOM     20  H   UNL     1       0.359  -1.685  -2.705  0.00  0.00    +0.155 HD
ENDROOT
BRANCH  11  21
ATOM     21  C   UNL     1       1.555   3.401  -0.005  0.00  0.00    +0.135 C 
BRANCH  21  22
ATOM     22  C   UNL     1       1.676   3.902   1.435  0.00  0.00    +0.122 C 
BRANCH  22  23
ATOM     23  N   UNL     1       1.994   5.332   1.429  0.00  0.00    -0.328 N 
ATOM     24  H   UNL     1       2.094   5.804   0.587  0.00  0.00    +0.147 HD
BRANCH  23  25
ATOM     25  C   UNL     1       2.154   6.014   2.631  0.00  0.00    +0.115 A 
ATOM     26  C   UNL     1       2.462   7.372   2.618  0.00  0.00    +0.079 A 
ATOM     27  C   UNL     1       2.612   8.039   3.821  0.00  0.00    +0.037 A 
ATOM     28  C   UNL     1       2.460   7.321   5.000  0.00  0.00    +0.072 A 
ATOM     29  C   UNL     1       2.160   5.975   4.939  0.00  0.00    +0.096 A 
ATOM     30 CL   UNL     1       2.648   8.218   1.114  0.00  0.00    -0.080 Cl
ATOM     31  N   UNL     1       2.000   5.288   3.775  0.00  0.00    -0.348 N 
ATOM     32  H   UNL     1       1.777   4.286   3.760  0.00  0.00    +0.167 HD
BRANCH  28  33
ATOM     33  C   UNL     1       2.620   8.004   6.334  0.00  0.00    +0.419 C 
ATOM     34  F   UNL     1       2.419   7.075   7.361  0.00  0.00    -0.166 F 
ATOM     35  F   UNL     1       3.909   8.537   6.433  0.00  0.00    -0.166 F 
ATOM     36  F   UNL     1       1.679   9.034   6.446  0.00  0.00    -0.166 F 
ENDBRANCH  28  33
ENDBRANCH  23  25
ENDBRANCH  22  23
ENDBRANCH  21  22
ENDBRANCH  11  21
TORSDOF 5
