REMARK  Name = ZINC37722438
REMARK  11 active torsions:
REMARK  status: ('A' for Active; 'I' for Inactive)
REMARK    1  A    between atoms: C_1  and  C_2
REMARK    2  A    between atoms: C_2  and  C_3
REMARK    3  A    between atoms: C_3  and  C_5
REMARK    4  A    between atoms: C_3  and  N_21
REMARK    5  A    between atoms: C_5  and  C_6
REMARK    6  A    between atoms: C_8  and  O_18
REMARK    7  A    between atoms: C_9  and  O_13
REMARK    8  A    between atoms: O_13  and  C_14
REMARK    9  A    between atoms: C_14  and  C_15
REMARK   10  A    between atoms: O_18  and  C_19
REMARK   11  A    between atoms: C_19  and  C_20
REMARK                            x       y       z     vdW  Elec       q    Type
REMARK                         _______ _______ _______ _____ _____    ______ ____
ROOT
ATOM      1  C   UNL     1       1.661  -2.496  -2.382  0.00  0.00    -0.044 A 
ATOM      2  C   UNL     1       1.031  -2.816  -3.571  0.00  0.00    +0.053 A 
ATOM      3  C   UNL     1       1.775  -3.252  -4.655  0.00  0.00    +0.163 A 
ATOM      4  C   UNL     1       3.158  -3.367  -4.544  0.00  0.00    +0.176 A 
ATOM      5  C   UNL     1       3.784  -3.045  -3.351  0.00  0.00    +0.063 A 
ATOM      6  C   UNL     1       3.035  -2.605  -2.274  0.00  0.00    +0.022 A 
ATOM      7 BR   UNL     1       5.662  -3.199  -3.196  0.00  0.00    -0.046 Br
ENDROOT
BRANCH   1   8
ATOM      8  C   UNL     1       0.849  -2.021  -1.205  0.00  0.00    +0.019 C 
BRANCH   8   9
ATOM      9  C   UNL     1       0.718  -0.497  -1.257  0.00  0.00    -0.071 C 
BRANCH   9  10
ATOM     10  N   UNL     1      -0.057  -0.113  -2.444  0.00  0.00    +0.380 N 
ATOM     11  H   UNL     1      -0.143   0.892  -2.478  0.00  0.00    -0.090 HD
ATOM     12  H   UNL     1       0.415  -0.438  -3.274  0.00  0.00    -0.090 HD
ATOM     13  H   UNL     1      -0.975  -0.528  -2.395  0.00  0.00    -0.090 HD
ENDBRANCH   9  10
BRANCH   9  15
ATOM     14  C   UNL     1      -0.019   1.526   0.010  0.00  0.00    +0.002 C 
ATOM     15  C   UNL     1       0.002  -0.004   0.002  0.00  0.00    -0.019 C 
ENDBRANCH   9  15
ENDBRANCH   8   9
ENDBRANCH   1   8
BRANCH   4  16
ATOM     16  O   UNL     1       3.893  -3.796  -5.605  0.00  0.00    -0.482 OA
BRANCH  16  17
ATOM     17  C   UNL     1       4.375  -2.797  -6.506  0.00  0.00    +0.276 C 
BRANCH  17  18
ATOM     18  C   UNL     1       5.162  -3.455  -7.611  0.00  0.00    +0.049 C 
ATOM     19  C   UNL     1       4.728  -3.400  -8.847  0.00  0.00    +0.028 C 
ATOM     20 CL   UNL     1       6.643  -4.284  -7.246  0.00  0.00    -0.085 Cl
ENDBRANCH  17  18
ENDBRANCH  16  17
ENDBRANCH   4  16
BRANCH   3  21
ATOM     21  O   UNL     1       1.156  -3.568  -5.824  0.00  0.00    -0.489 OA
BRANCH  21  22
ATOM     22  C   UNL     1      -0.265  -3.427  -5.864  0.00  0.00    +0.226 C 
ATOM     23  C   UNL     1      -0.778  -3.825  -7.249  0.00  0.00    +0.048 C 
ENDBRANCH  21  22
ENDBRANCH   3  21
TORSDOF 9
