REMARK  Name = ZINC39359163
REMARK  8 active torsions:
REMARK  status: ('A' for Active; 'I' for Inactive)
REMARK    1  A    between atoms: C_1  and  O_2
REMARK    2  A    between atoms: O_2  and  C_3
REMARK    3  A    between atoms: C_5  and  C_17
REMARK    4  A    between atoms: C_8  and  O_9
REMARK    5  A    between atoms: O_9  and  C_10
REMARK    6  A    between atoms: C_10  and  C_11
REMARK    7  A    between atoms: C_20  and  O_39
REMARK    8  A    between atoms: C_31  and  C_34
REMARK                            x       y       z     vdW  Elec       q    Type
REMARK                         _______ _______ _______ _____ _____    ______ ____
ROOT
ATOM      1  C   UNL     1       2.403   0.379  -4.230  0.00  0.00    +0.089 C 
ATOM      2  C   UNL     1       1.766   0.049  -5.546  0.00  0.00    +0.048 C 
ATOM      3  C   UNL     1       0.635  -0.515  -5.909  0.00  0.00    +0.235 C 
ATOM      4  N   UNL     1       0.609  -0.692  -7.258  0.00  0.00    -0.114 NA
ATOM      5  N   UNL     1       1.605  -0.257  -7.851  0.00  0.00    -0.157 NA
ATOM      6  C   UNL     1       2.483   0.370  -6.862  0.00  0.00    +0.245 C 
ATOM      7  N   UNL     1       3.774  -0.311  -6.735  0.00  0.00    -0.321 N 
ATOM      8  C   UNL     1       4.453  -0.257  -5.543  0.00  0.00    +0.014 C 
ATOM      9  C   UNL     1       3.884   0.057  -4.358  0.00  0.00    +0.023 C 
ATOM     10  C   UNL     1       4.637   0.102  -3.172  0.00  0.00    +0.162 C 
ATOM     11  O   UNL     1       4.082   0.376  -2.126  0.00  0.00    -0.292 OA
ATOM     12  C   UNL     1       6.114  -0.180  -3.168  0.00  0.00    +0.088 C 
ATOM     13  C   UNL     1       6.689   0.200  -4.537  0.00  0.00    +0.039 C 
ATOM     14  C   UNL     1       5.930  -0.587  -5.613  0.00  0.00    +0.060 C 
ATOM     15  H   UNL     1       4.146  -0.798  -7.487  0.00  0.00    +0.148 HD
ENDROOT
BRANCH   1  18
ATOM     16  C   UNL     1       0.606  -0.608  -1.056  0.00  0.00    +0.162 A 
ATOM     17  C   UNL     1       1.173   0.159  -2.062  0.00  0.00    +0.054 A 
ATOM     18  C   UNL     1       1.787  -0.456  -3.137  0.00  0.00    -0.032 A 
ATOM     19  C   UNL     1       1.837  -1.836  -3.212  0.00  0.00    +0.008 A 
ATOM     20  C   UNL     1       1.273  -2.606  -2.212  0.00  0.00    +0.050 A 
ATOM     21  C   UNL     1       0.662  -1.996  -1.129  0.00  0.00    +0.162 A 
BRANCH  16  23
ATOM     22  C   UNL     1      -0.017   1.425   0.010  0.00  0.00    +0.277 C 
ATOM     23  O   UNL     1       0.002  -0.004   0.002  0.00  0.00    -0.491 OA
ENDBRANCH  16  23
BRANCH  21  24
ATOM     24  O   UNL     1       0.112  -2.753  -0.142  0.00  0.00    -0.484 OA
BRANCH  24  25
ATOM     25  C   UNL     1       0.206  -4.171  -0.283  0.00  0.00    +0.264 C 
BRANCH  25  26
ATOM     26  C   UNL     1      -0.453  -4.838   0.897  0.00  0.00    -0.010 A 
ATOM     27  C   UNL     1       0.286  -5.128   2.029  0.00  0.00    +0.007 A 
ATOM     28  C   UNL     1      -0.319  -5.740   3.111  0.00  0.00    +0.000 A 
ATOM     29  C   UNL     1      -1.663  -6.062   3.061  0.00  0.00    +0.000 A 
ATOM     30  C   UNL     1      -2.401  -5.771   1.929  0.00  0.00    +0.000 A 
ATOM     31  C   UNL     1      -1.798  -5.155   0.849  0.00  0.00    +0.007 A 
ENDBRANCH  25  26
ENDBRANCH  24  25
ENDBRANCH  21  24
ENDBRANCH   1  18
BRANCH  13  32
ATOM     32  C   UNL     1       8.153  -0.152  -4.588  0.00  0.00    -0.006 A 
ATOM     33  C   UNL     1       9.220   0.661  -4.787  0.00  0.00    +0.011 A 
ATOM     34  C   UNL     1      10.489   0.113  -4.794  0.00  0.00    +0.008 A 
ATOM     35  C   UNL     1      10.629  -1.222  -4.602  0.00  0.00    +0.045 A 
ATOM     36  S   UNL     1       8.935  -1.745  -4.396  0.00  0.00    -0.101 S 
ENDBRANCH  13  32
BRANCH   3  37
ATOM     37  O   UNL     1      -0.364  -0.871  -5.058  0.00  0.00    -0.491 OA
ATOM     38  H   UNL     1      -1.126  -1.275  -5.494  0.00  0.00    +0.294 HD
ENDBRANCH   3  37
TORSDOF 7
