REMARK  Name = ZINC63062038
REMARK  7 active torsions:
REMARK  status: ('A' for Active; 'I' for Inactive)
REMARK    1  A    between atoms: C_1  and  C_2
REMARK    2  A    between atoms: C_7  and  O_8
REMARK    3  A    between atoms: O_8  and  C_9
REMARK    4  A    between atoms: C_9  and  C_11
REMARK    5  A    between atoms: C_9  and  C_16
REMARK    6  A    between atoms: C_11  and  C_12
REMARK    7  A    between atoms: N_13  and  O_14
REMARK                            x       y       z     vdW  Elec       q    Type
REMARK                         _______ _______ _______ _____ _____    ______ ____
ROOT
ATOM      1  C   UNL     1      -0.065  -0.816   3.572  0.00  0.00    +0.211 C 
ENDROOT
BRANCH   1   2
ATOM      2  C   UNL     1       1.320  -1.076   4.107  0.00  0.00    -0.007 A 
ATOM      3  C   UNL     1       2.271  -0.072   4.082  0.00  0.00    +0.007 A 
ATOM      4  C   UNL     1       3.541  -0.310   4.572  0.00  0.00    +0.000 A 
ATOM      5  C   UNL     1       3.860  -1.552   5.089  0.00  0.00    +0.000 A 
ATOM      6  C   UNL     1       2.910  -2.555   5.116  0.00  0.00    +0.000 A 
ATOM      7  C   UNL     1       1.638  -2.316   4.629  0.00  0.00    +0.007 A 
ENDBRANCH   1   2
BRANCH   1   8
ATOM      8  O   UNL     1       0.025  -0.033   2.381  0.00  0.00    -0.484 OA
BRANCH   8  15
ATOM      9  C   UNL     1      -0.039   1.464  -0.014  0.00  0.00    +0.047 C 
ATOM     10  C   UNL     1       0.228  -0.019   0.011  0.00  0.00    -0.008 A 
ATOM     11  C   UNL     1       0.460  -0.699  -1.170  0.00  0.00    +0.022 A 
ATOM     12  C   UNL     1       0.705  -2.060  -1.148  0.00  0.00    +0.018 A 
ATOM     13  C   UNL     1       0.718  -2.744   0.055  0.00  0.00    +0.019 A 
ATOM     14  C   UNL     1       0.488  -2.067   1.237  0.00  0.00    +0.047 A 
ATOM     15  C   UNL     1       0.247  -0.701   1.218  0.00  0.00    +0.124 A 
ATOM     16 BR   UNL     1       1.020  -2.989  -2.765  0.00  0.00    -0.050 Br
ENDBRANCH   8  15
ENDBRANCH   1   8
BRANCH   1  17
ATOM     17  C   UNL     1      -0.882  -0.059   4.620  0.00  0.00    +0.124 C 
BRANCH  17  18
ATOM     18  C   UNL     1      -2.301   0.093   4.136  0.00  0.00    +0.135 C 
ATOM     19  N   UNL     1      -2.648  -0.389   2.989  0.00  0.00    -0.077 NA
ATOM     20  N   UNL     1      -3.229   0.746   4.917  0.00  0.00    -0.344 N 
ATOM     21  H   UNL     1      -2.969   1.108   5.779  0.00  0.00    +0.144 HD
ATOM     22  H   UNL     1      -4.143   0.844   4.606  0.00  0.00    +0.144 HD
BRANCH  19  23
ATOM     23  O   UNL     1      -3.981  -0.246   2.534  0.00  0.00    -0.408 OA
ATOM     24  H   UNL     1      -4.144  -0.639   1.666  0.00  0.00    +0.328 HD
ENDBRANCH  19  23
ENDBRANCH  17  18
ENDBRANCH   1  17
TORSDOF 6
