REMARK  Name = ZINC20232704
REMARK  10 active torsions:
REMARK  status: ('A' for Active; 'I' for Inactive)
REMARK    1  A    between atoms: C_1  and  C_2
REMARK    2  A    between atoms: C_2  and  C_3
REMARK    3  A    between atoms: C_2  and  C_4
REMARK    4  A    between atoms: C_4  and  C_5
REMARK    5  A    between atoms: C_5  and  C_7
REMARK    6  A    between atoms: C_5  and  N_17
REMARK    7  A    between atoms: N_9  and  C_10
REMARK    8  A    between atoms: N_17  and  S_18
REMARK    9  A    between atoms: S_18  and  C_21
REMARK   10  A    between atoms: C_30  and  C_32
REMARK                            x       y       z     vdW  Elec       q    Type
REMARK                         _______ _______ _______ _____ _____    ______ ____
ROOT
ATOM      1  N   UNL     1      -2.253   5.556   0.028  0.00  0.00    -0.178 NA
ATOM      2  H   UNL     1      -2.229   6.197   0.922  0.00  0.00    +0.149 HD
ENDROOT
BRANCH   1   3
ATOM      3  S   UNL     1      -2.077   6.247  -1.467  0.00  0.00    +0.059 S 
ATOM      4  O   UNL     1      -1.748   7.612  -1.247  0.00  0.00    -0.153 OA
ATOM      5  O   UNL     1      -1.247   5.375  -2.222  0.00  0.00    -0.153 OA
BRANCH   3   6
ATOM      6  C   UNL     1      -3.661   6.228  -2.238  0.00  0.00    +0.106 A 
ATOM      7  C   UNL     1      -4.054   5.135  -2.988  0.00  0.00    +0.030 A 
ATOM      8  C   UNL     1      -5.295   5.114  -3.588  0.00  0.00    +0.026 A 
ATOM      9  C   UNL     1      -6.160   6.203  -3.454  0.00  0.00    +0.040 A 
ATOM     10  C   UNL     1      -5.754   7.296  -2.706  0.00  0.00    -0.023 A 
ATOM     11  C   UNL     1      -4.511   7.309  -2.101  0.00  0.00    +0.034 A 
ATOM     12  C   UNL     1      -6.861   8.326  -2.720  0.00  0.00    +0.056 C 
ATOM     13  C   UNL     1      -7.970   7.691  -3.574  0.00  0.00    +0.118 C 
ATOM     14  N   UNL     1      -7.442   6.386  -3.980  0.00  0.00    -0.271 N 
ATOM     15  C   UNL     1      -8.098   5.492  -4.747  0.00  0.00    +0.217 C 
ATOM     16  O   UNL     1      -7.574   4.435  -5.028  0.00  0.00    -0.276 OA
ATOM     17  C   UNL     1      -9.481   5.806  -5.255  0.00  0.00    +0.109 C 
ENDBRANCH   3   6
ENDBRANCH   1   3
BRANCH   1  18
ATOM     18  C   UNL     1      -2.653   4.152   0.144  0.00  0.00    +0.163 C 
BRANCH  18  19
ATOM     19  C   UNL     1      -1.424   3.287   0.259  0.00  0.00    +0.236 C 
ATOM     20  O   UNL     1      -0.323   3.794   0.246  0.00  0.00    -0.274 OA
ATOM     21  N   UNL     1      -1.550   1.950   0.377  0.00  0.00    -0.284 N 
ATOM     22  H   UNL     1      -2.542   1.482   0.300  0.00  0.00    +0.155 HD
BRANCH  21  23
ATOM     23  C   UNL     1      -0.417   1.158   0.596  0.00  0.00    +0.033 A 
ATOM     24  C   UNL     1      -0.348  -0.121   0.058  0.00  0.00    +0.024 A 
ATOM     25  C   UNL     1       0.769  -0.903   0.281  0.00  0.00    +0.017 A 
ATOM     26  C   UNL     1       1.818  -0.413   1.038  0.00  0.00    +0.018 A 
ATOM     27  C   UNL     1       1.752   0.861   1.575  0.00  0.00    +0.017 A 
ATOM     28  C   UNL     1       0.638   1.647   1.356  0.00  0.00    +0.024 A 
ATOM     29 BR   UNL     1       3.345  -1.486   1.340  0.00  0.00    -0.050 Br
ENDBRANCH  21  23
ENDBRANCH  18  19
BRANCH  18  30
ATOM     30  C   UNL     1      -3.523   3.970   1.389  0.00  0.00    +0.032 C 
BRANCH  30  32
ATOM     31  C   UNL     1      -5.651   4.128   0.089  0.00  0.00    +0.007 C 
ATOM     32  C   UNL     1      -4.828   4.751   1.218  0.00  0.00    -0.015 C 
ATOM     33  C   UNL     1      -5.628   4.698   2.521  0.00  0.00    +0.007 C 
ENDBRANCH  30  32
ENDBRANCH  18  30
ENDBRANCH   1  18
TORSDOF 7
