REMARK  Name = ZINC21720135
REMARK  8 active torsions:
REMARK  status: ('A' for Active; 'I' for Inactive)
REMARK    1  A    between atoms: C_1  and  C_2
REMARK    2  A    between atoms: C_2  and  C_3
REMARK    3  A    between atoms: C_2  and  C_4
REMARK    4  A    between atoms: C_6  and  C_9
REMARK    5  A    between atoms: N_14  and  C_15
REMARK    6  A    between atoms: C_15  and  C_16
REMARK    7  A    between atoms: C_21  and  O_22
REMARK    8  A    between atoms: O_22  and  C_23
REMARK                            x       y       z     vdW  Elec       q    Type
REMARK                         _______ _______ _______ _____ _____    ______ ____
ROOT
ATOM      1  C   UNL     1       2.549   1.586  -0.013  0.00  0.00    -0.015 C 
ATOM      2  C   UNL     1       3.045   1.409  -1.470  0.00  0.00    -0.011 C 
ATOM      3  C   UNL     1       4.568   1.667  -1.315  0.00  0.00    -0.020 C 
ATOM      4  C   UNL     1       4.628   2.761  -0.228  0.00  0.00    -0.077 C 
ATOM      5  N   UNL     1       3.369   2.687   0.536  0.00  0.00    +0.388 N 
ATOM      6  H   UNL     1       2.826   3.639   0.445  0.00  0.00    -0.080 HD
ENDROOT
BRANCH   1   9
ATOM      7  C   UNL     1      -1.091   1.895   0.017  0.00  0.00    +0.140 A 
ATOM      8  C   UNL     1      -0.013   1.076   0.008  0.00  0.00    +0.069 A 
ATOM      9  C   UNL     1       1.089   1.961   0.002  0.00  0.00    +0.070 A 
ATOM     10  N   UNL     1       0.594   3.165   0.013  0.00  0.00    -0.085 NA
ATOM     11  O   UNL     1      -0.615   3.148   0.024  0.00  0.00    -0.359 OA
BRANCH   7  13
ATOM     12  C   UNL     1      -3.224   2.026   1.275  0.00  0.00    +0.015 C 
ATOM     13  C   UNL     1      -2.540   1.480   0.020  0.00  0.00    +0.052 C 
ATOM     14  C   UNL     1      -3.234   2.039  -1.223  0.00  0.00    +0.015 C 
ENDBRANCH   7  13
ENDBRANCH   1   9
BRANCH   5  15
ATOM     15  C   UNL     1       3.633   2.483   1.967  0.00  0.00    -0.038 C 
BRANCH  15  16
ATOM     16  C   UNL     1       4.663   3.479   2.434  0.00  0.00    -0.021 A 
ATOM     17  C   UNL     1       5.981   3.092   2.580  0.00  0.00    +0.020 A 
ATOM     18  C   UNL     1       6.929   4.007   3.003  0.00  0.00    +0.018 A 
ATOM     19  C   UNL     1       6.556   5.308   3.293  0.00  0.00    +0.019 A 
ATOM     20  C   UNL     1       5.238   5.697   3.155  0.00  0.00    +0.047 A 
ATOM     21  C   UNL     1       4.287   4.782   2.725  0.00  0.00    +0.122 A 
ATOM     22 BR   UNL     1       8.734   3.477   3.193  0.00  0.00    -0.050 Br
BRANCH  21  23
ATOM     23  O   UNL     1       2.990   5.163   2.587  0.00  0.00    -0.495 OA
ATOM     24  C   UNL     1       2.675   6.521   2.904  0.00  0.00    +0.277 C 
ENDBRANCH  21  23
ENDBRANCH  15  16
ENDBRANCH   5  15
TORSDOF 5
