REMARK  Name = ZINC20927693
REMARK  11 active torsions:
REMARK  status: ('A' for Active; 'I' for Inactive)
REMARK    1  A    between atoms: C_1  and  C_2
REMARK    2  A    between atoms: C_2  and  C_26
REMARK    3  A    between atoms: N_3  and  N_4
REMARK    4  A    between atoms: N_4  and  C_5
REMARK    5  A    between atoms: C_8  and  S_14
REMARK    6  A    between atoms: C_10  and  N_11
REMARK    7  A    between atoms: S_14  and  N_17
REMARK    8  A    between atoms: N_17  and  C_18
REMARK    9  A    between atoms: C_23  and  O_24
REMARK   10  A    between atoms: O_24  and  C_25
REMARK   11  A    between atoms: C_29  and  O_32
REMARK                            x       y       z     vdW  Elec       q    Type
REMARK                         _______ _______ _______ _____ _____    ______ ____
ROOT
ATOM      1  C   UNL     1      -1.383   1.258  -0.415  0.00  0.00    +0.079 A 
ATOM      2  C   UNL     1      -1.260   2.641  -0.339  0.00  0.00    +0.029 A 
ATOM      3  C   UNL     1      -2.387   3.426  -0.203  0.00  0.00    +0.031 A 
ATOM      4  C   UNL     1      -3.638   2.839  -0.143  0.00  0.00    +0.111 A 
ATOM      5  C   UNL     1      -3.765   1.464  -0.219  0.00  0.00    +0.063 A 
ATOM      6  C   UNL     1      -2.642   0.672  -0.360  0.00  0.00    +0.150 A 
ENDROOT
BRANCH   6   7
ATOM      7  N   UNL     1      -2.779  -0.799  -0.447  0.00  0.00    +0.058 N 
ATOM      8  O   UNL     1      -3.885  -1.306  -0.504  0.00  0.00    -0.126 OA
ATOM      9  O   UNL     1      -1.785  -1.504  -0.461  0.00  0.00    -0.126 OA
ENDBRANCH   6   7
BRANCH   4  10
ATOM     10  S   UNL     1      -5.074   3.845   0.031  0.00  0.00    +0.073 S 
ATOM     11  O   UNL     1      -6.078   3.023   0.611  0.00  0.00    -0.150 OA
ATOM     12  O   UNL     1      -4.647   5.062   0.628  0.00  0.00    -0.150 OA
BRANCH  10  13
ATOM     13  N   UNL     1      -5.595   4.223  -1.494  0.00  0.00    -0.213 N 
ATOM     14  H   UNL     1      -5.651   5.275  -1.812  0.00  0.00    +0.174 HD
BRANCH  13  15
ATOM     15  C   UNL     1      -5.963   3.205  -2.381  0.00  0.00    +0.090 A 
ATOM     16  C   UNL     1      -6.598   2.066  -1.906  0.00  0.00    +0.028 A 
ATOM     17  C   UNL     1      -6.965   1.063  -2.784  0.00  0.00    +0.002 A 
ATOM     18  C   UNL     1      -6.693   1.188  -4.134  0.00  0.00    +0.004 A 
ATOM     19  C   UNL     1      -6.057   2.318  -4.613  0.00  0.00    +0.047 A 
ATOM     20  C   UNL     1      -5.690   3.329  -3.741  0.00  0.00    +0.142 A 
BRANCH  20  21
ATOM     21  O   UNL     1      -5.063   4.441  -4.211  0.00  0.00    -0.493 OA
ATOM     22  C   UNL     1      -4.814   4.500  -5.617  0.00  0.00    +0.277 C 
ENDBRANCH  20  21
ENDBRANCH  13  15
ENDBRANCH  10  13
ENDBRANCH   4  10
BRANCH   1  23
ATOM     23  N   UNL     1      -0.246   0.462  -0.553  0.00  0.00    -0.235 N 
ATOM     24  H   UNL     1      -0.336  -0.634  -0.526  0.00  0.00    +0.174 HD
BRANCH  23  27
ATOM     25  C   UNL     1       1.944  -1.186  -0.829  0.00  0.00    +0.068 C 
ATOM     26  C   UNL     1       2.067   0.316  -0.860  0.00  0.00    +0.063 C 
ATOM     27  N   UNL     1       1.010   1.058  -0.727  0.00  0.00    -0.187 NA
BRANCH  26  28
ATOM     28  C   UNL     1       3.389   0.943  -1.042  0.00  0.00    -0.002 A 
ATOM     29  C   UNL     1       4.529   0.147  -1.181  0.00  0.00    +0.013 A 
ATOM     30  C   UNL     1       5.762   0.738  -1.357  0.00  0.00    +0.046 A 
ATOM     31  C   UNL     1       5.874   2.122  -1.385  0.00  0.00    +0.117 A 
ATOM     32  C   UNL     1       4.744   2.917  -1.242  0.00  0.00    +0.046 A 
ATOM     33  C   UNL     1       3.507   2.335  -1.072  0.00  0.00    +0.013 A 
BRANCH  31  34
ATOM     34  O   UNL     1       7.092   2.699  -1.554  0.00  0.00    -0.507 OA
ATOM     35  H   UNL     1       7.183   3.795  -1.576  0.00  0.00    +0.292 HD
ENDBRANCH  31  34
ENDBRANCH  26  28
ENDBRANCH  23  27
ENDBRANCH   1  23
TORSDOF 9
