REMARK  Name = ZINC43366842
REMARK  7 active torsions:
REMARK  status: ('A' for Active; 'I' for Inactive)
REMARK    1  A    between atoms: C_1  and  C_2
REMARK    2  A    between atoms: C_5  and  C_7
REMARK    3  A    between atoms: C_7  and  C_9
REMARK    4  A    between atoms: C_7  and  O_13
REMARK    5  A    between atoms: C_9  and  C_11
REMARK    6  A    between atoms: C_9  and  N_12
REMARK    7  A    between atoms: O_13  and  C_14
REMARK                            x       y       z     vdW  Elec       q    Type
REMARK                         _______ _______ _______ _____ _____    ______ ____
ROOT
ATOM      1  C   UNL     1       1.654  -3.241  -0.067  0.00  0.00    +0.224 C 
ENDROOT
BRANCH   1   6
ATOM      2  C   UNL     1      -0.335   1.357  -0.658  0.00  0.00    +0.086 C 
ATOM      3  C   UNL     1      -0.221  -0.138  -0.502  0.00  0.00    +0.102 A 
ATOM      4  C   UNL     1      -1.248  -1.007  -0.483  0.00  0.00    +0.045 A 
ATOM      5  C   UNL     1      -0.690  -2.296  -0.317  0.00  0.00    +0.049 A 
ATOM      6  C   UNL     1       0.643  -2.137  -0.245  0.00  0.00    +0.144 A 
ATOM      7  O   UNL     1       0.922  -0.829  -0.363  0.00  0.00    -0.461 OA
ENDBRANCH   1   6
BRANCH   1   8
ATOM      8  C   UNL     1       1.994  -3.387   1.417  0.00  0.00    -0.029 C 
ATOM      9  C   UNL     1       3.021  -4.507   1.597  0.00  0.00    -0.010 C 
BRANCH   8  10
ATOM     10  N   UNL     1       0.776  -3.713   2.169  0.00  0.00    +0.382 N 
ATOM     11  H   UNL     1       0.391  -4.580   1.826  0.00  0.00    -0.089 HD
ATOM     12  H   UNL     1       1.000  -3.809   3.148  0.00  0.00    -0.089 HD
ATOM     13  H   UNL     1       0.099  -2.974   2.050  0.00  0.00    -0.089 HD
ENDBRANCH   8  10
ENDBRANCH   1   8
BRANCH   1  14
ATOM     14  O   UNL     1       2.840  -2.924  -0.799  0.00  0.00    -0.483 OA
BRANCH  14  15
ATOM     15  C   UNL     1       3.521  -3.962  -1.350  0.00  0.00    +0.122 A 
ATOM     16  C   UNL     1       3.027  -5.254  -1.240  0.00  0.00    +0.047 A 
ATOM     17  C   UNL     1       3.721  -6.308  -1.802  0.00  0.00    +0.018 A 
ATOM     18  C   UNL     1       4.908  -6.076  -2.473  0.00  0.00    +0.014 A 
ATOM     19  C   UNL     1       5.403  -4.790  -2.584  0.00  0.00    +0.018 A 
ATOM     20  C   UNL     1       4.709  -3.732  -2.029  0.00  0.00    +0.047 A 
ATOM     21  I   UNL     1       5.959  -7.678  -3.323  0.00  0.00    -0.044 I 
ENDBRANCH  14  15
ENDBRANCH   1  14
TORSDOF 5
