REMARK  Name = ZINC04064903
REMARK  6 active torsions:
REMARK  status: ('A' for Active; 'I' for Inactive)
REMARK    1  A    between atoms: C_1  and  O_2
REMARK    2  A    between atoms: O_2  and  C_3
REMARK    3  A    between atoms: C_6  and  C_9
REMARK    4  A    between atoms: C_14  and  C_24
REMARK    5  A    between atoms: C_29  and  O_30
REMARK    6  A    between atoms: O_30  and  C_31
REMARK                            x       y       z     vdW  Elec       q    Type
REMARK                         _______ _______ _______ _____ _____    ______ ____
ROOT
ATOM      1  C   UNL     1       3.415   1.438   4.163  0.00  0.00    +0.032 C 
ATOM      2  C   UNL     1       3.717   0.058   3.582  0.00  0.00    +0.059 C 
ATOM      3  C   UNL     1       3.132  -0.057   2.184  0.00  0.00    +0.017 C 
ATOM      4  C   UNL     1       3.042   1.024   1.390  0.00  0.00    +0.037 C 
ATOM      5  C   UNL     1       2.490   1.047  -0.015  0.00  0.00    +0.139 C 
ATOM      6  N   UNL     1       2.277  -0.260  -0.600  0.00  0.00    -0.331 N 
ATOM      7  C   UNL     1       1.335  -1.140  -0.068  0.00  0.00    +0.049 A 
ATOM      8  C   UNL     1       0.185  -1.477  -0.764  0.00  0.00    +0.025 A 
ATOM      9  C   UNL     1      -0.775  -2.263  -0.151  0.00  0.00    +0.002 A 
ATOM     10  C   UNL     1      -0.591  -2.710   1.145  0.00  0.00    +0.002 A 
ATOM     11  C   UNL     1       0.568  -2.394   1.835  0.00  0.00    +0.025 A 
ATOM     12  C   UNL     1       1.537  -1.624   1.216  0.00  0.00    +0.052 A 
ATOM     13  N   UNL     1       2.742  -1.309   1.832  0.00  0.00    -0.316 N 
ATOM     14  C   UNL     1       3.483   2.286   1.853  0.00  0.00    +0.163 C 
ATOM     15  O   UNL     1       3.408   3.243   1.107  0.00  0.00    -0.292 OA
ATOM     16  C   UNL     1       4.040   2.483   3.231  0.00  0.00    +0.088 C 
ATOM     17  H   UNL     1       2.798  -0.528  -1.373  0.00  0.00    +0.147 HD
ATOM     18  H   UNL     1       3.351  -2.039   2.025  0.00  0.00    +0.152 HD
ENDROOT
BRANCH   1  22
ATOM     19  C   UNL     1       5.123   1.771   8.066  0.00  0.00    +0.120 A 
ATOM     20  C   UNL     1       3.753   1.909   7.893  0.00  0.00    +0.046 A 
ATOM     21  C   UNL     1       3.203   1.801   6.630  0.00  0.00    +0.007 A 
ATOM     22  C   UNL     1       4.017   1.555   5.539  0.00  0.00    -0.043 A 
ATOM     23  C   UNL     1       5.382   1.412   5.710  0.00  0.00    +0.007 A 
ATOM     24  C   UNL     1       5.937   1.525   6.970  0.00  0.00    +0.046 A 
BRANCH  19  26
ATOM     25  C   UNL     1       7.083   1.724   9.410  0.00  0.00    +0.277 C 
ATOM     26  O   UNL     1       5.666   1.877   9.307  0.00  0.00    -0.495 OA
ENDBRANCH  19  26
ENDBRANCH   1  22
BRANCH   5  27
ATOM     27  C   UNL     1       1.175   1.782   0.000  0.00  0.00    +0.019 A 
ATOM     28  C   UNL     1       0.509   1.984   1.194  0.00  0.00    +0.009 A 
ATOM     29  C   UNL     1      -0.700   2.655   1.209  0.00  0.00    +0.001 A 
ATOM     30  C   UNL     1      -1.241   3.134   0.030  0.00  0.00    +0.004 A 
ATOM     31  C   UNL     1      -0.579   2.935  -1.166  0.00  0.00    +0.046 A 
ATOM     32  C   UNL     1       0.631   2.258  -1.184  0.00  0.00    +0.125 A 
BRANCH  32  33
ATOM     33  O   UNL     1       1.284   2.061  -2.360  0.00  0.00    -0.495 OA
ATOM     34  C   UNL     1       0.665   2.578  -3.539  0.00  0.00    +0.277 C 
ENDBRANCH  32  33
ENDBRANCH   5  27
TORSDOF 4
