REMARK  Name = ZINC64547209
REMARK  8 active torsions:
REMARK  status: ('A' for Active; 'I' for Inactive)
REMARK    1  A    between atoms: C_1  and  C_2
REMARK    2  A    between atoms: C_2  and  C_3
REMARK    3  A    between atoms: C_2  and  C_4
REMARK    4  A    between atoms: C_4  and  C_5
REMARK    5  A    between atoms: C_5  and  O_6
REMARK    6  A    between atoms: O_6  and  C_7
REMARK    7  A    between atoms: C_11  and  N_13
REMARK    8  A    between atoms: C_22  and  O_26
REMARK                            x       y       z     vdW  Elec       q    Type
REMARK                         _______ _______ _______ _____ _____    ______ ____
ROOT
ATOM      1  N   UNL     1       0.744  -0.919   8.435  0.00  0.00    -0.269 N 
ATOM      2  C   UNL     1       0.234  -0.570   9.633  0.00  0.00    +0.307 C 
ATOM      3  O   UNL     1      -0.817   0.039   9.691  0.00  0.00    -0.252 OA
ATOM      4  N   UNL     1       0.888  -0.896  10.765  0.00  0.00    -0.281 N 
ATOM      5  C   UNL     1       0.303  -0.633  12.090  0.00  0.00    +0.114 C 
ATOM      6  C   UNL     1       0.065  -1.979  12.773  0.00  0.00    +0.054 C 
ATOM      7  C   UNL     1       1.282  -2.859  12.664  0.00  0.00    -0.041 A 
ATOM      8  C   UNL     1       1.400  -3.909  13.567  0.00  0.00    +0.007 A 
ATOM      9  C   UNL     1       2.483  -4.759  13.519  0.00  0.00    +0.045 A 
ATOM     10  C   UNL     1       3.467  -4.569  12.559  0.00  0.00    +0.117 A 
ATOM     11  C   UNL     1       3.352  -3.521  11.661  0.00  0.00    +0.050 A 
ATOM     12  C   UNL     1       2.262  -2.663  11.717  0.00  0.00    -0.023 A 
ATOM     13  C   UNL     1       2.209  -1.532  10.726  0.00  0.00    +0.144 C 
ATOM     14  H   UNL     1       1.504  -1.520   8.388  0.00  0.00    +0.156 HD
ENDROOT
BRANCH   1  19
ATOM     15  C   UNL     1       0.406   0.291   4.976  0.00  0.00    +0.122 A 
ATOM     16  C   UNL     1      -0.950   0.584   4.934  0.00  0.00    +0.046 A 
ATOM     17  C   UNL     1      -1.738   0.378   6.051  0.00  0.00    +0.005 A 
ATOM     18  C   UNL     1      -1.179  -0.121   7.212  0.00  0.00    +0.023 A 
ATOM     19  C   UNL     1       0.178  -0.415   7.259  0.00  0.00    +0.038 A 
ATOM     20  C   UNL     1       0.969  -0.214   6.137  0.00  0.00    +0.069 A 
BRANCH  15  21
ATOM     21  O   UNL     1       1.179   0.494   3.877  0.00  0.00    -0.492 OA
BRANCH  21  22
ATOM     22  C   UNL     1       0.532   1.017   2.716  0.00  0.00    +0.229 C 
BRANCH  22  23
ATOM     23  C   UNL     1       1.555   1.176   1.589  0.00  0.00    +0.044 C 
BRANCH  23  25
ATOM     24  C   UNL     1       0.356   3.151   0.637  0.00  0.00    +0.007 C 
ATOM     25  C   UNL     1       0.862   1.736   0.346  0.00  0.00    -0.014 C 
ATOM     26  C   UNL     1       1.856   1.779  -0.817  0.00  0.00    +0.007 C 
ENDBRANCH  23  25
ENDBRANCH  22  23
ENDBRANCH  21  22
ENDBRANCH  15  21
ENDBRANCH   1  19
BRANCH  10  27
ATOM     27  O   UNL     1       4.537  -5.404  12.501  0.00  0.00    -0.507 OA
ATOM     28  H   UNL     1       4.405  -6.172  11.928  0.00  0.00    +0.292 HD
ENDBRANCH  10  27
TORSDOF 6
