REMARK  Name = ZINC20503896
REMARK  7 active torsions:
REMARK  status: ('A' for Active; 'I' for Inactive)
REMARK    1  A    between atoms: C_1  and  C_2
REMARK    2  A    between atoms: C_5  and  S_8
REMARK    3  A    between atoms: S_8  and  N_11
REMARK    4  A    between atoms: N_11  and  C_12
REMARK    5  A    between atoms: C_12  and  C_13
REMARK    6  A    between atoms: C_22  and  C_24
REMARK    7  A    between atoms: C_24  and  N_25
REMARK                            x       y       z     vdW  Elec       q    Type
REMARK                         _______ _______ _______ _____ _____    ______ ____
ROOT
ATOM      1  C   UNL     1       0.695   2.568  -5.477  0.00  0.00    -0.053 C 
ATOM      2  C   UNL     1       0.835   1.072  -5.184  0.00  0.00    -0.010 C 
ATOM      3  C   UNL     1      -0.543   0.508  -4.815  0.00  0.00    -0.012 C 
ATOM      4  C   UNL     1      -1.502   0.754  -5.987  0.00  0.00    -0.015 C 
ATOM      5  C   UNL     1      -1.577   2.260  -6.256  0.00  0.00    -0.078 C 
ATOM      6  N   UNL     1      -0.708   2.969  -5.306  0.00  0.00    +0.383 N 
ATOM      7  C   UNL     1      -1.154   2.754  -3.923  0.00  0.00    -0.073 C 
ATOM      8  C   UNL     1      -1.067   1.262  -3.587  0.00  0.00    -0.011 C 
ATOM      9  H   UNL     1      -0.781   4.045  -5.520  0.00  0.00    -0.081 HD
ENDROOT
BRANCH   1  10
ATOM     10  C   UNL     1       1.574   3.363  -4.509  0.00  0.00    +0.090 C 
BRANCH  10  11
ATOM     11  N   UNL     1       1.347   4.796  -4.708  0.00  0.00    -0.191 NA
ATOM     12  H   UNL     1       0.984   5.166  -5.678  0.00  0.00    +0.148 HD
BRANCH  11  13
ATOM     13  S   UNL     1       1.868   5.882  -3.571  0.00  0.00    +0.058 S 
ATOM     14  O   UNL     1       1.529   7.174  -4.058  0.00  0.00    -0.153 OA
ATOM     15  O   UNL     1       1.417   5.400  -2.312  0.00  0.00    -0.153 OA
BRANCH  13  20
ATOM     16  C   UNL     1       7.894   5.606  -3.465  0.00  0.00    +0.044 C 
ATOM     17  C   UNL     1       6.389   5.675  -3.491  0.00  0.00    -0.050 A 
ATOM     18  C   UNL     1       5.752   6.559  -4.343  0.00  0.00    +0.005 A 
ATOM     19  C   UNL     1       4.372   6.622  -4.367  0.00  0.00    +0.029 A 
ATOM     20  C   UNL     1       3.627   5.801  -3.540  0.00  0.00    +0.105 A 
ATOM     21  C   UNL     1       4.264   4.921  -2.685  0.00  0.00    +0.029 A 
ATOM     22  C   UNL     1       5.645   4.855  -2.664  0.00  0.00    +0.005 A 
ENDBRANCH  13  20
ENDBRANCH  11  13
ENDBRANCH  10  11
ENDBRANCH   1  10
BRANCH   8  23
ATOM     23  C   UNL     1      -0.109   1.057  -2.412  0.00  0.00    +0.086 C 
BRANCH  23  24
ATOM     24  N   UNL     1      -0.675   1.673  -1.204  0.00  0.00    -0.299 NA
ATOM     25  C   UNL     1      -1.757   0.847  -0.650  0.00  0.00    +0.103 C 
ATOM     26  C   UNL     1      -2.372   1.560   0.557  0.00  0.00    +0.122 C 
ATOM     27  N   UNL     1      -1.329   1.803   1.563  0.00  0.00    -0.314 N 
ATOM     28  C   UNL     1      -0.247   2.628   1.008  0.00  0.00    +0.122 C 
ATOM     29  C   UNL     1       0.368   1.915  -0.198  0.00  0.00    +0.103 C 
ATOM     30  C   UNL     1      -1.865   2.386   2.706  0.00  0.00    +0.099 A 
ATOM     31  C   UNL     1      -2.905   1.753   3.380  0.00  0.00    +0.042 A 
ATOM     32  C   UNL     1      -3.428   2.345   4.515  0.00  0.00    +0.005 A 
ATOM     33  C   UNL     1      -2.893   3.554   4.940  0.00  0.00    +0.018 A 
ATOM     34  C   UNL     1      -1.862   4.126   4.223  0.00  0.00    +0.084 A 
ATOM     35  N   UNL     1      -1.378   3.536   3.146  0.00  0.00    -0.350 N 
ATOM     36  H   UNL     1      -0.549   4.023   2.610  0.00  0.00    +0.166 HD
ENDBRANCH  23  24
ENDBRANCH   8  23
TORSDOF 6
