REMARK  Name = ZINC11936509
REMARK  9 active torsions:
REMARK  status: ('A' for Active; 'I' for Inactive)
REMARK    1  A    between atoms: C_1  and  N_2
REMARK    2  A    between atoms: C_10  and  C_11
REMARK    3  A    between atoms: C_11  and  C_12
REMARK    4  A    between atoms: C_12  and  N_13
REMARK    5  A    between atoms: C_14  and  C_16
REMARK    6  A    between atoms: C_16  and  C_17
REMARK    7  A    between atoms: C_24  and  C_25
REMARK    8  A    between atoms: C_24  and  N_61
REMARK    9  A    between atoms: C_26  and  C_27
REMARK                            x       y       z     vdW  Elec       q    Type
REMARK                         _______ _______ _______ _____ _____    ______ ____
ROOT
ATOM      1  C   UNL     1      -0.678   1.525   1.255  0.00  0.00    +0.028 C 
ATOM      2  C   UNL     1       0.097   1.039   2.446  0.00  0.00    +0.200 C 
ATOM      3  O   UNL     1       0.528  -0.095   2.436  0.00  0.00    -0.278 OA
ATOM      4  N   UNL     1       0.333   1.804   3.518  0.00  0.00    -0.318 N 
ATOM      5  C   UNL     1      -0.111   3.191   3.615  0.00  0.00    +0.085 C 
ATOM      6  C   UNL     1      -1.210   3.464   2.587  0.00  0.00    -0.058 C 
ATOM      7  H   UNL     1       0.819   1.419   4.264  0.00  0.00    +0.149 HD
ATOM      8  N   UNL     1      -0.730   2.999   1.270  0.00  0.00    +0.391 N 
ATOM      9  H   UNL     1       0.213   3.370   1.107  0.00  0.00    -0.080 HD
ENDROOT
BRANCH   1  10
ATOM     10  C   UNL     1       0.019   1.065  -0.027  0.00  0.00    +0.089 C 
BRANCH  10  12
ATOM     11  N   UNL     1       2.235   1.332  -1.093  0.00  0.00    -0.315 N 
ATOM     12  C   UNL     1       1.391   1.683  -0.102  0.00  0.00    +0.212 C 
ATOM     13  O   UNL     1       1.736   2.497   0.729  0.00  0.00    -0.276 OA
ATOM     14  H   UNL     1       1.959   0.682  -1.757  0.00  0.00    +0.149 HD
BRANCH  11  15
ATOM     15  C   UNL     1       3.569   1.934  -1.166  0.00  0.00    +0.112 C 
BRANCH  15  16
ATOM     16  C   UNL     1       4.318   1.367  -2.374  0.00  0.00    +0.093 C 
BRANCH  16  26
ATOM     17  C   UNL     1       6.881   0.269  -1.037  0.00  0.00    +0.150 C 
ATOM     18  N   UNL     1       6.805   1.484  -1.852  0.00  0.00    -0.331 N 
ATOM     19  C   UNL     1       7.851   2.332  -2.157  0.00  0.00    +0.069 A 
ATOM     20  C   UNL     1       9.203   2.350  -1.844  0.00  0.00    +0.028 A 
ATOM     21  C   UNL     1      10.000   3.369  -2.320  0.00  0.00    +0.002 A 
ATOM     22  C   UNL     1       9.460   4.375  -3.110  0.00  0.00    +0.002 A 
ATOM     23  C   UNL     1       8.132   4.373  -3.429  0.00  0.00    +0.030 A 
ATOM     24  C   UNL     1       7.304   3.350  -2.957  0.00  0.00    +0.089 A 
ATOM     25  N   UNL     1       5.982   3.074  -3.099  0.00  0.00    -0.232 NA
ATOM     26  C   UNL     1       5.690   1.986  -2.449  0.00  0.00    +0.112 A 
ENDBRANCH  16  26
ENDBRANCH  15  16
ENDBRANCH  11  15
ENDBRANCH  10  12
ENDBRANCH   1  10
BRANCH   8  27
ATOM     27  C   UNL     1      -1.631   3.485   0.200  0.00  0.00    -0.050 C 
BRANCH  27  28
ATOM     28  C   UNL     1      -1.393   4.959  -0.006  0.00  0.00    -0.045 C 
ATOM     29  C   UNL     1      -1.079   5.417  -1.209  0.00  0.00    +0.002 C 
BRANCH  29  30
ATOM     30  C   UNL     1      -0.845   6.863  -1.412  0.00  0.00    -0.025 A 
ATOM     31  C   UNL     1      -0.961   7.748  -0.339  0.00  0.00    +0.008 A 
ATOM     32  C   UNL     1      -0.736   9.095  -0.534  0.00  0.00    +0.001 A 
ATOM     33  C   UNL     1      -0.408   9.571  -1.791  0.00  0.00    +0.000 A 
ATOM     34  C   UNL     1      -0.297   8.699  -2.859  0.00  0.00    +0.001 A 
ATOM     35  C   UNL     1      -0.513   7.348  -2.677  0.00  0.00    +0.008 A 
ENDBRANCH  29  30
ENDBRANCH  27  28
ENDBRANCH   8  27
TORSDOF 8
