REMARK  Name = ZINC43254978
REMARK  7 active torsions:
REMARK  status: ('A' for Active; 'I' for Inactive)
REMARK    1  A    between atoms: C_8  and  C_18
REMARK    2  A    between atoms: N_9  and  C_10
REMARK    3  A    between atoms: C_10  and  C_11
REMARK    4  A    between atoms: C_18  and  C_20
REMARK    5  A    between atoms: C_18  and  N_28
REMARK    6  A    between atoms: C_20  and  C_21
REMARK    7  A    between atoms: C_24  and  O_27
REMARK                            x       y       z     vdW  Elec       q    Type
REMARK                         _______ _______ _______ _____ _____    ______ ____
ROOT
ATOM      1  C   UNL     1      -0.016   1.362   0.009  0.00  0.00    +0.002 A 
ATOM      2  C   UNL     1       1.167   2.086   0.002  0.00  0.00    +0.002 A 
ATOM      3  C   UNL     1       2.383   1.437  -0.013  0.00  0.00    +0.028 A 
ATOM      4  C   UNL     1       2.422   0.049  -0.021  0.00  0.00    +0.069 A 
ATOM      5  C   UNL     1       1.223  -0.684  -0.013  0.00  0.00    +0.089 A 
ATOM      6  C   UNL     1       0.002  -0.004   0.002  0.00  0.00    +0.030 A 
ATOM      7  N   UNL     1       1.563  -1.998  -0.024  0.00  0.00    -0.234 NA
ATOM      8  C   UNL     1       2.858  -2.115  -0.037  0.00  0.00    +0.097 A 
ATOM      9  N   UNL     1       3.439  -0.885  -0.036  0.00  0.00    -0.324 N 
ENDROOT
BRANCH   9  10
ATOM     10  C   UNL     1       4.876  -0.603  -0.050  0.00  0.00    +0.158 C 
BRANCH  10  11
ATOM     11  C   UNL     1       5.384  -0.514   1.367  0.00  0.00    -0.026 A 
ATOM     12  C   UNL     1       5.381   0.701   2.027  0.00  0.00    +0.005 A 
ATOM     13  C   UNL     1       5.846   0.783   3.326  0.00  0.00    +0.002 A 
ATOM     14  C   UNL     1       6.315  -0.349   3.965  0.00  0.00    +0.020 A 
ATOM     15  C   UNL     1       6.318  -1.565   3.305  0.00  0.00    +0.041 A 
ATOM     16  C   UNL     1       5.847  -1.648   2.007  0.00  0.00    +0.025 A 
ATOM     17 CL   UNL     1       6.907  -2.987   4.108  0.00  0.00    -0.084 Cl
ENDBRANCH  10  11
ENDBRANCH   9  10
BRANCH   8  18
ATOM     18  C   UNL     1       3.607  -3.423  -0.051  0.00  0.00    -0.003 C 
BRANCH  18  19
ATOM     19  N   UNL     1       3.010  -4.340   0.929  0.00  0.00    +0.385 N 
ATOM     20  H   UNL     1       2.043  -4.503   0.691  0.00  0.00    -0.089 HD
ATOM     21  H   UNL     1       3.512  -5.215   0.920  0.00  0.00    -0.089 HD
ATOM     22  H   UNL     1       3.066  -3.930   1.850  0.00  0.00    -0.089 HD
ENDBRANCH  18  19
BRANCH  18  23
ATOM     23  C   UNL     1       3.523  -4.044  -1.447  0.00  0.00    +0.026 C 
BRANCH  23  24
ATOM     24  C   UNL     1       4.373  -5.288  -1.496  0.00  0.00    -0.048 A 
ATOM     25  C   UNL     1       5.704  -5.201  -1.861  0.00  0.00    +0.007 A 
ATOM     26  C   UNL     1       6.484  -6.340  -1.906  0.00  0.00    +0.045 A 
ATOM     27  C   UNL     1       5.932  -7.571  -1.585  0.00  0.00    +0.117 A 
ATOM     28  C   UNL     1       4.596  -7.655  -1.219  0.00  0.00    +0.045 A 
ATOM     29  C   UNL     1       3.821  -6.513  -1.170  0.00  0.00    +0.007 A 
BRANCH  27  30
ATOM     30  O   UNL     1       6.698  -8.693  -1.629  0.00  0.00    -0.507 OA
ATOM     31  H   UNL     1       7.144  -8.898  -0.796  0.00  0.00    +0.292 HD
ENDBRANCH  27  30
ENDBRANCH  23  24
ENDBRANCH  18  23
ENDBRANCH   8  18
TORSDOF 7
