REMARK  Name = ZINC61605407
REMARK  4 active torsions:
REMARK  status: ('A' for Active; 'I' for Inactive)
REMARK    1  A    between atoms: C_1  and  C_2
REMARK    2  A    between atoms: C_5  and  C_7
REMARK    3  A    between atoms: C_8  and  C_9
REMARK    4  A    between atoms: N_15  and  C_18
REMARK                            x       y       z     vdW  Elec       q    Type
REMARK                         _______ _______ _______ _____ _____    ______ ____
ROOT
ATOM      1  C   UNL     1       2.957  -5.364  -0.039  0.00  0.00    +0.239 C 
ATOM      2  O   UNL     1       2.485  -4.245  -0.128  0.00  0.00    -0.271 OA
ATOM      3  N   UNL     1       4.292  -5.527   0.056  0.00  0.00    -0.300 N 
ATOM      4  C   UNL     1       5.148  -4.330   0.174  0.00  0.00    +0.106 C 
ATOM      5  C   UNL     1       6.270  -4.551   1.205  0.00  0.00    +0.000 C 
ATOM      6  C   UNL     1       5.721  -5.313   2.390  0.00  0.00    -0.077 C 
ATOM      7  N   UNL     1       5.948  -6.743   2.193  0.00  0.00    +0.383 N 
ATOM      8  C   UNL     1       4.929  -7.415   1.482  0.00  0.00    -0.059 C 
ATOM      9  C   UNL     1       4.834  -6.870   0.044  0.00  0.00    +0.089 C 
ATOM     10  H   UNL     1       6.816  -6.861   1.692  0.00  0.00    -0.081 HD
ENDROOT
BRANCH   7  11
ATOM     11  C   UNL     1       6.090  -7.376   3.511  0.00  0.00    -0.069 C 
ATOM     12  C   UNL     1       7.471  -7.916   3.890  0.00  0.00    -0.017 C 
ATOM     13  C   UNL     1       6.338  -8.886   3.546  0.00  0.00    -0.017 C 
ENDBRANCH   7  11
BRANCH   1  15
ATOM     14  C   UNL     1       0.758  -6.327  -0.030  0.00  0.00    +0.020 C 
ATOM     15  C   UNL     1       2.105  -6.493  -0.036  0.00  0.00    +0.068 C 
BRANCH  14  20
ATOM     16  C   UNL     1      -1.600 -11.301  -0.022  0.00  0.00    +0.051 C 
ATOM     17  C   UNL     1      -1.214  -9.844  -0.023  0.00  0.00    -0.013 A 
ATOM     18  C   UNL     1      -2.035  -8.765  -0.018  0.00  0.00    +0.011 A 
ATOM     19  C   UNL     1      -1.484  -7.506  -0.020  0.00  0.00    +0.016 A 
ATOM     20  C   UNL     1      -0.095  -7.457  -0.026  0.00  0.00    +0.013 A 
ATOM     21  S   UNL     1       0.333  -9.188  -0.022  0.00  0.00    -0.094 S 
ENDBRANCH  14  20
ENDBRANCH   1  15
TORSDOF 3
