REMARK  Name = ZINC36552843
REMARK  11 active torsions:
REMARK  status: ('A' for Active; 'I' for Inactive)
REMARK    1  A    between atoms: C_1  and  C_2
REMARK    2  A    between atoms: C_2  and  C_3
REMARK    3  A    between atoms: C_2  and  C_4
REMARK    4  A    between atoms: C_2  and  N_5
REMARK    5  A    between atoms: C_6  and  C_8
REMARK    6  A    between atoms: C_8  and  C_10
REMARK    7  A    between atoms: C_8  and  N_23
REMARK    8  A    between atoms: C_10  and  C_11
REMARK    9  A    between atoms: C_10  and  C_17
REMARK   10  A    between atoms: N_23  and  C_24
REMARK   11  A    between atoms: C_31  and  C_33
REMARK                            x       y       z     vdW  Elec       q    Type
REMARK                         _______ _______ _______ _____ _____    ______ ____
ROOT
ATOM      1  C   UNL     1       2.473  -1.134  -2.362  0.00  0.00    +0.179 C 
ENDROOT
BRANCH   1   3
ATOM      2  N   UNL     1       0.518  -1.298  -0.856  0.00  0.00    -0.309 N 
ATOM      3  C   UNL     1       1.807  -0.943  -1.024  0.00  0.00    +0.235 C 
ATOM      4  O   UNL     1       2.431  -0.469  -0.098  0.00  0.00    -0.274 OA
ATOM      5  H   UNL     1       0.036  -1.730  -1.578  0.00  0.00    +0.149 HD
BRANCH   2   7
ATOM      6  C   UNL     1      -0.082   0.464   0.731  0.00  0.00    +0.031 C 
ATOM      7  C   UNL     1      -0.155  -1.032   0.418  0.00  0.00    +0.026 C 
ATOM      8  C   UNL     1       0.534  -1.820   1.534  0.00  0.00    +0.031 C 
ATOM      9  C   UNL     1      -1.620  -1.461   0.320  0.00  0.00    +0.031 C 
ENDBRANCH   2   7
ENDBRANCH   1   3
BRANCH   1  10
ATOM     10  N   UNL     1       3.928  -1.081  -2.196  0.00  0.00    -0.257 N 
ATOM     11  C   UNL     1       4.693  -2.104  -2.625  0.00  0.00    +0.241 C 
ATOM     12  O   UNL     1       4.187  -3.030  -3.224  0.00  0.00    -0.273 OA
BRANCH  10  13
ATOM     13  C   UNL     1       4.523   0.031  -1.591  0.00  0.00    +0.039 A 
ATOM     14  C   UNL     1       5.210  -0.113  -0.392  0.00  0.00    +0.023 A 
ATOM     15  C   UNL     1       5.797   0.987   0.203  0.00  0.00    +0.003 A 
ATOM     16  C   UNL     1       5.700   2.231  -0.393  0.00  0.00    +0.020 A 
ATOM     17  C   UNL     1       5.016   2.379  -1.586  0.00  0.00    +0.043 A 
ATOM     18  C   UNL     1       4.433   1.280  -2.190  0.00  0.00    +0.043 A 
ATOM     19 CL   UNL     1       4.897   3.943  -2.330  0.00  0.00    -0.083 Cl
ENDBRANCH  10  13
BRANCH  11  20
ATOM     20  C   UNL     1       6.176  -2.099  -2.361  0.00  0.00    +0.160 C 
ATOM     21  C   UNL     1       6.899  -1.202  -3.391  0.00  0.00    +0.041 C 
ATOM     22  C   UNL     1       7.297  -2.228  -4.478  0.00  0.00    +0.098 C 
ATOM     23  C   UNL     1       7.362  -3.546  -3.737  0.00  0.00    +0.214 C 
ATOM     24  O   UNL     1       7.904  -4.549  -4.151  0.00  0.00    -0.276 OA
ATOM     25  N   UNL     1       6.731  -3.444  -2.552  0.00  0.00    -0.304 N 
ATOM     26  H   UNL     1       6.654  -4.164  -1.908  0.00  0.00    +0.149 HD
ENDBRANCH  11  20
ENDBRANCH   1  10
BRANCH   1  27
ATOM     27  C   UNL     1       2.029  -0.024  -3.316  0.00  0.00    +0.079 C 
BRANCH  27  28
ATOM     28  C   UNL     1       2.714  -0.200  -4.647  0.00  0.00    -0.038 A 
ATOM     29  C   UNL     1       2.774  -1.451  -5.233  0.00  0.00    +0.004 A 
ATOM     30  C   UNL     1       3.403  -1.613  -6.453  0.00  0.00    +0.000 A 
ATOM     31  C   UNL     1       3.972  -0.524  -7.087  0.00  0.00    +0.000 A 
ATOM     32  C   UNL     1       3.912   0.726  -6.501  0.00  0.00    +0.000 A 
ATOM     33  C   UNL     1       3.279   0.889  -5.283  0.00  0.00    +0.004 A 
ENDBRANCH  27  28
BRANCH  27  34
ATOM     34  C   UNL     1       0.535  -0.094  -3.508  0.00  0.00    -0.038 A 
ATOM     35  C   UNL     1      -0.050  -1.265  -3.951  0.00  0.00    +0.004 A 
ATOM     36  C   UNL     1      -1.420  -1.330  -4.127  0.00  0.00    +0.000 A 
ATOM     37  C   UNL     1      -2.204  -0.223  -3.858  0.00  0.00    +0.000 A 
ATOM     38  C   UNL     1      -1.618   0.948  -3.414  0.00  0.00    +0.000 A 
ATOM     39  C   UNL     1      -0.249   1.011  -3.235  0.00  0.00    +0.004 A 
ENDBRANCH  27  34
ENDBRANCH   1  27
TORSDOF 8
