REMARK  Name = ZINC14833926
REMARK  11 active torsions:
REMARK  status: ('A' for Active; 'I' for Inactive)
REMARK    1  A    between atoms: C_1  and  C_2
REMARK    2  A    between atoms: C_2  and  C_3
REMARK    3  A    between atoms: C_3  and  C_5
REMARK    4  A    between atoms: C_3  and  N_6
REMARK    5  A    between atoms: N_6  and  S_7
REMARK    6  A    between atoms: S_7  and  C_10
REMARK    7  A    between atoms: C_13  and  N_16
REMARK    8  A    between atoms: N_16  and  C_17
REMARK    9  A    between atoms: C_17  and  N_19
REMARK   10  A    between atoms: C_20  and  C_22
REMARK   11  A    between atoms: C_23  and  C_24
REMARK                            x       y       z     vdW  Elec       q    Type
REMARK                         _______ _______ _______ _____ _____    ______ ____
ROOT
ATOM      1  N   UNL     1       1.162   3.485   0.009  0.00  0.00    -0.297 N 
ATOM      2  H   UNL     1       1.638   3.978  -0.676  0.00  0.00    +0.154 HD
ENDROOT
BRANCH   1   6
ATOM      3  C   UNL     1       1.180  -0.681  -0.032  0.00  0.00    +0.105 A 
ATOM      4  C   UNL     1       0.011   0.001   0.253  0.00  0.00    +0.030 A 
ATOM      5  C   UNL     1       0.002   1.382   0.268  0.00  0.00    +0.025 A 
ATOM      6  C   UNL     1       1.168   2.086  -0.004  0.00  0.00    +0.033 A 
ATOM      7  C   UNL     1       2.340   1.398  -0.290  0.00  0.00    +0.025 A 
ATOM      8  C   UNL     1       2.343   0.017  -0.304  0.00  0.00    +0.030 A 
BRANCH   3   9
ATOM      9  S   UNL     1       1.188  -2.443  -0.050  0.00  0.00    +0.059 S 
ATOM     10  O   UNL     1       2.529  -2.845   0.192  0.00  0.00    -0.153 OA
ATOM     11  O   UNL     1       0.106  -2.862   0.771  0.00  0.00    -0.153 OA
BRANCH   9  12
ATOM     12  N   UNL     1       0.822  -2.918  -1.593  0.00  0.00    -0.187 NA
ATOM     13  H   UNL     1       0.000  -3.403  -1.770  0.00  0.00    +0.148 HD
BRANCH  12  14
ATOM     14  C   UNL     1       1.739  -2.608  -2.693  0.00  0.00    +0.073 C 
ATOM     15  C   UNL     1       2.667  -3.800  -2.935  0.00  0.00    +0.025 C 
BRANCH  14  17
ATOM     16  C   UNL     1       0.100  -1.054  -3.761  0.00  0.00    +0.005 C 
ATOM     17  C   UNL     1       0.935  -2.320  -3.962  0.00  0.00    +0.017 C 
ENDBRANCH  14  17
ENDBRANCH  12  14
ENDBRANCH   9  12
ENDBRANCH   3   9
ENDBRANCH   1   6
BRANCH   1  18
ATOM     18  C   UNL     1       0.494   4.146   0.975  0.00  0.00    +0.141 C 
ATOM     19  S   UNL     1      -0.227   3.280   2.264  0.00  0.00    -0.018 S 
BRANCH  18  20
ATOM     20  N   UNL     1       0.394   5.489   0.926  0.00  0.00    -0.264 N 
ATOM     21  C   UNL     1      -0.274   6.151   1.892  0.00  0.00    +0.242 C 
ATOM     22  O   UNL     1      -0.787   5.536   2.808  0.00  0.00    -0.270 OA
ATOM     23  H   UNL     1       0.803   5.980   0.196  0.00  0.00    +0.157 HD
BRANCH  21  24
ATOM     24  C   UNL     1      -0.382   7.609   1.839  0.00  0.00    +0.068 C 
ATOM     25  C   UNL     1      -1.051   8.271   2.806  0.00  0.00    +0.013 C 
BRANCH  25  26
ATOM     26  C   UNL     1      -1.160   9.737   2.752  0.00  0.00    -0.025 A 
ATOM     27  C   UNL     1      -0.567  10.448   1.704  0.00  0.00    +0.009 A 
ATOM     28  C   UNL     1      -0.677  11.822   1.658  0.00  0.00    +0.020 A 
ATOM     29  C   UNL     1      -1.365  12.498   2.653  0.00  0.00    +0.041 A 
ATOM     30  C   UNL     1      -1.950  11.801   3.697  0.00  0.00    +0.020 A 
ATOM     31  C   UNL     1      -1.853  10.427   3.753  0.00  0.00    +0.009 A 
ATOM     32 CL   UNL     1      -1.492  14.229   2.591  0.00  0.00    -0.084 Cl
ENDBRANCH  25  26
ENDBRANCH  21  24
ENDBRANCH  18  20
ENDBRANCH   1  18
TORSDOF 9
