REMARK  Name = ZINC31634898
REMARK  6 active torsions:
REMARK  status: ('A' for Active; 'I' for Inactive)
REMARK    1  A    between atoms: C_1  and  C_2
REMARK    2  A    between atoms: C_7  and  S_30
REMARK    3  A    between atoms: C_12  and  C_14
REMARK    4  A    between atoms: C_14  and  S_15
REMARK    5  A    between atoms: S_15  and  C_16
REMARK    6  A    between atoms: S_30  and  N_33
REMARK                            x       y       z     vdW  Elec       q    Type
REMARK                         _______ _______ _______ _____ _____    ______ ____
ROOT
ATOM      1  C   UNL     1      -1.853   1.675   2.467  0.00  0.00    +0.029 C 
ATOM      2  C   UNL     1      -1.159   2.098   1.171  0.00  0.00    +0.083 C 
ATOM      3  C   UNL     1      -0.652   3.544   1.288  0.00  0.00    +0.059 C 
ATOM      4  C   UNL     1       0.846   3.438   1.109  0.00  0.00    -0.022 A 
ATOM      5  C   UNL     1       1.830   4.408   1.111  0.00  0.00    +0.034 A 
ATOM      6  C   UNL     1       3.153   4.055   0.922  0.00  0.00    +0.105 A 
ATOM      7  C   UNL     1       3.490   2.728   0.730  0.00  0.00    +0.030 A 
ATOM      8  C   UNL     1       2.512   1.757   0.727  0.00  0.00    +0.026 A 
ATOM      9  C   UNL     1       1.173   2.105   0.917  0.00  0.00    +0.040 A 
ATOM     10  N   UNL     1       0.040   1.287   0.948  0.00  0.00    -0.267 N 
ATOM     11  C   UNL     1       0.050  -0.052   0.791  0.00  0.00    +0.230 C 
ATOM     12  O   UNL     1      -0.990  -0.675   0.834  0.00  0.00    -0.274 OA
ENDROOT
BRANCH   6  13
ATOM     13  S   UNL     1       4.407   5.293   0.926  0.00  0.00    +0.056 S 
ATOM     14  O   UNL     1       3.892   6.390   1.669  0.00  0.00    -0.153 OA
ATOM     15  O   UNL     1       5.621   4.641   1.273  0.00  0.00    -0.153 OA
BRANCH  13  16
ATOM     16  N   UNL     1       4.581   5.819  -0.635  0.00  0.00    -0.204 NA
ATOM     17  H   UNL     1       5.358   6.597  -0.675  0.00  0.00    +0.144 HD
ATOM     18  H   UNL     1       3.626   6.236  -0.990  0.00  0.00    +0.144 HD
ENDBRANCH  13  16
ENDBRANCH   6  13
BRANCH  11  19
ATOM     19  C   UNL     1       1.352  -0.775   0.561  0.00  0.00    +0.173 C 
BRANCH  19  20
ATOM     20  S   UNL     1       1.035  -2.548   0.389  0.00  0.00    -0.077 S 
BRANCH  20  21
ATOM     21  C   UNL     1       2.679  -3.130   0.137  0.00  0.00    +0.191 A 
ATOM     22  N   UNL     1       3.683  -2.260   0.121  0.00  0.00    -0.207 NA
ATOM     23  C   UNL     1       4.937  -2.637  -0.057  0.00  0.00    +0.129 A 
ATOM     24  C   UNL     1       5.228  -4.017  -0.250  0.00  0.00    +0.051 A 
ATOM     25  C   UNL     1       6.527  -4.656  -0.469  0.00  0.00    -0.025 A 
ATOM     26  C   UNL     1       6.532  -5.995  -0.625  0.00  0.00    -0.004 A 
ATOM     27  S   UNL     1       4.832  -6.482  -0.493  0.00  0.00    -0.073 S 
ATOM     28  C   UNL     1       4.115  -4.881  -0.227  0.00  0.00    +0.115 A 
ATOM     29  N   UNL     1       2.891  -4.427  -0.038  0.00  0.00    -0.214 NA
ATOM     30  C   UNL     1       7.720  -6.878  -0.859  0.00  0.00    +0.043 C 
ATOM     31  C   UNL     1       8.908  -5.994  -1.266  0.00  0.00    +0.005 C 
ATOM     32  C   UNL     1       9.000  -4.816  -0.292  0.00  0.00    +0.005 C 
ATOM     33  C   UNL     1       7.829  -3.861  -0.520  0.00  0.00    +0.037 C 
ATOM     34  N   UNL     1       5.955  -1.701  -0.062  0.00  0.00    -0.343 N 
ATOM     35  H   UNL     1       6.997  -2.022  -0.211  0.00  0.00    +0.144 HD
ATOM     36  H   UNL     1       5.723  -0.635   0.084  0.00  0.00    +0.144 HD
ENDBRANCH  20  21
ENDBRANCH  19  20
ENDBRANCH  11  19
TORSDOF 5
