REMARK  Name = ZINC37368648
REMARK  6 active torsions:
REMARK  status: ('A' for Active; 'I' for Inactive)
REMARK    1  A    between atoms: C_1  and  C_2
REMARK    2  A    between atoms: C_7  and  N_8
REMARK    3  A    between atoms: N_8  and  S_9
REMARK    4  A    between atoms: S_9  and  C_12
REMARK    5  A    between atoms: C_15  and  C_17
REMARK    6  A    between atoms: C_17  and  N_18
REMARK                            x       y       z     vdW  Elec       q    Type
REMARK                         _______ _______ _______ _____ _____    ______ ____
ROOT
ATOM      1  S   UNL     1       0.050  -0.854   3.843  0.00  0.00    +0.098 S 
ATOM      2  O   UNL     1      -1.185  -1.552   3.926  0.00  0.00    -0.148 OA
ATOM      3  O   UNL     1       1.305  -1.517   3.903  0.00  0.00    -0.148 OA
ENDROOT
BRANCH   1   4
ATOM      4  C   UNL     1       0.045   0.334   5.145  0.00  0.00    +0.148 A 
ATOM      5  C   UNL     1      -1.010   0.891   5.788  0.00  0.00    +0.037 A 
ATOM      6  C   UNL     1      -0.773   1.812   6.791  0.00  0.00    +0.011 A 
ATOM      7  C   UNL     1       0.507   2.132   7.101  0.00  0.00    -0.026 A 
ATOM      8  S   UNL     1       1.429   1.111   5.963  0.00  0.00    -0.075 S 
BRANCH   7   9
ATOM      9  C   UNL     1       1.020   3.095   8.140  0.00  0.00    -0.043 C 
BRANCH   9  10
ATOM     10  N   UNL     1       1.217   2.385   9.411  0.00  0.00    +0.381 N 
ATOM     11  H   UNL     1       0.338   1.995   9.718  0.00  0.00    -0.090 HD
ATOM     12  H   UNL     1       1.887   1.642   9.281  0.00  0.00    -0.090 HD
ATOM     13  H   UNL     1       1.560   3.030  10.107  0.00  0.00    -0.090 HD
ENDBRANCH   9  10
ENDBRANCH   7   9
ENDBRANCH   1   4
BRANCH   1  14
ATOM     14  N   UNL     1       0.025  -0.016   2.415  0.00  0.00    -0.097 NA
BRANCH  14  21
ATOM     15  C   UNL     1      -0.018   1.503   0.010  0.00  0.00    +0.046 C 
ATOM     16  C   UNL     1       0.002  -0.004   0.002  0.00  0.00    -0.026 A 
ATOM     17  C   UNL     1       0.006  -0.689  -1.198  0.00  0.00    +0.006 A 
ATOM     18  C   UNL     1       0.025  -2.071  -1.207  0.00  0.00    +0.015 A 
ATOM     19  C   UNL     1       0.040  -2.774  -0.014  0.00  0.00    +0.020 A 
ATOM     20  C   UNL     1       0.036  -2.095   1.189  0.00  0.00    +0.042 A 
ATOM     21  C   UNL     1       0.023  -0.706   1.201  0.00  0.00    +0.078 A 
ATOM     22 BR   UNL     1       0.066  -4.664  -0.032  0.00  0.00    -0.050 Br
ENDBRANCH  14  21
ENDBRANCH   1  14
TORSDOF 5
