REMARK  Name = ZINC12299130
REMARK  8 active torsions:
REMARK  status: ('A' for Active; 'I' for Inactive)
REMARK    1  A    between atoms: C_1  and  C_2
REMARK    2  A    between atoms: C_3  and  C_30
REMARK    3  A    between atoms: C_4  and  O_28
REMARK    4  A    between atoms: C_7  and  C_8
REMARK    5  A    between atoms: C_8  and  N_59
REMARK    6  A    between atoms: C_14  and  C_16
REMARK    7  A    between atoms: C_16  and  C_17
REMARK    8  A    between atoms: O_28  and  C_29
REMARK                            x       y       z     vdW  Elec       q    Type
REMARK                         _______ _______ _______ _____ _____    ______ ____
ROOT
ATOM      1  C   UNL     1       1.269  -0.473  -1.084  0.00  0.00    -0.058 C 
ATOM      2  C   UNL     1       2.627   0.061  -0.624  0.00  0.00    +0.085 C 
ATOM      3  N   UNL     1       2.550   1.503  -0.408  0.00  0.00    -0.318 N 
ATOM      4  C   UNL     1       1.393   2.155  -0.251  0.00  0.00    +0.200 C 
ATOM      5  O   UNL     1       1.422   3.349  -0.046  0.00  0.00    -0.278 OA
ATOM      6  C   UNL     1       0.058   1.468  -0.319  0.00  0.00    +0.028 C 
ATOM      7  H   UNL     1       3.376   2.012  -0.377  0.00  0.00    +0.149 HD
ATOM      8  N   UNL     1       0.243   0.015  -0.141  0.00  0.00    +0.391 N 
ATOM      9  H   UNL     1       0.555  -0.168   0.820  0.00  0.00    -0.080 HD
ENDROOT
BRANCH   8  10
ATOM     10  C   UNL     1      -1.038  -0.690  -0.374  0.00  0.00    -0.042 C 
BRANCH  10  17
ATOM     11  C   UNL     1      -1.054  -1.628   2.357  0.00  0.00    +0.044 C 
ATOM     12  C   UNL     1      -0.858  -2.606   1.227  0.00  0.00    -0.043 A 
ATOM     13  C   UNL     1      -0.686  -3.949   1.498  0.00  0.00    -0.006 A 
ATOM     14  C   UNL     1      -0.507  -4.848   0.457  0.00  0.00    +0.123 A 
ATOM     15  C   UNL     1      -0.500  -4.396  -0.854  0.00  0.00    +0.046 A 
ATOM     16  C   UNL     1      -0.677  -3.052  -1.121  0.00  0.00    +0.005 A 
ATOM     17  C   UNL     1      -0.851  -2.157  -0.081  0.00  0.00    -0.061 A 
ATOM     18  C   UNL     1      -0.695  -4.438   2.924  0.00  0.00    +0.048 C 
BRANCH  14  19
ATOM     19  O   UNL     1      -0.337  -6.171   0.722  0.00  0.00    -0.495 OA
ATOM     20  C   UNL     1      -0.158  -7.038  -0.399  0.00  0.00    +0.277 C 
ENDBRANCH  14  19
ENDBRANCH  10  17
ENDBRANCH   8  10
BRANCH   6  21
ATOM     21  C   UNL     1      -0.842   1.996   0.799  0.00  0.00    +0.090 C 
BRANCH  21  22
ATOM     22  C   UNL     1      -0.197   1.724   2.134  0.00  0.00    +0.215 C 
ATOM     23  O   UNL     1       0.870   1.151   2.186  0.00  0.00    -0.276 OA
ATOM     24  N   UNL     1      -0.806   2.119   3.270  0.00  0.00    -0.297 N 
ATOM     25  C   UNL     1      -0.188   1.854   4.578  0.00  0.00    +0.113 C 
ATOM     26  C   UNL     1       0.165   3.209   5.222  0.00  0.00    +0.061 C 
ATOM     27  C   UNL     1      -0.978   4.149   5.017  0.00  0.00    -0.004 A 
ATOM     28  C   UNL     1      -2.012   4.030   4.141  0.00  0.00    -0.020 A 
ATOM     29  C   UNL     1      -2.955   5.057   4.142  0.00  0.00    +0.013 A 
ATOM     30  C   UNL     1      -2.816   6.102   4.989  0.00  0.00    +0.046 A 
ATOM     31  S   UNL     1      -1.308   5.680   5.850  0.00  0.00    -0.101 S 
ATOM     32  C   UNL     1      -2.099   2.815   3.219  0.00  0.00    +0.143 C 
ENDBRANCH  21  22
ENDBRANCH   6  21
TORSDOF 5
