REMARK  Name = ZINC24583676
REMARK  11 active torsions:
REMARK  status: ('A' for Active; 'I' for Inactive)
REMARK    1  A    between atoms: C_1  and  C_2
REMARK    2  A    between atoms: C_2  and  C_3
REMARK    3  A    between atoms: C_3  and  C_4
REMARK    4  A    between atoms: C_4  and  C_5
REMARK    5  A    between atoms: C_5  and  C_6
REMARK    6  A    between atoms: C_6  and  O_7
REMARK    7  A    between atoms: O_7  and  C_8
REMARK    8  A    between atoms: C_11  and  C_14
REMARK    9  A    between atoms: N_16  and  N_17
REMARK   10  A    between atoms: C_18  and  C_20
REMARK   11  A    between atoms: C_20  and  N_21
REMARK                            x       y       z     vdW  Elec       q    Type
REMARK                         _______ _______ _______ _____ _____    ______ ____
ROOT
ATOM      1  N   UNL     1       6.754   2.324  -3.937  0.00  0.00    -0.233 N 
ATOM      2  C   UNL     1       6.038   1.802  -2.922  0.00  0.00    +0.247 C 
ATOM      3  O   UNL     1       5.085   2.408  -2.479  0.00  0.00    -0.273 OA
ATOM      4  H   UNL     1       7.619   1.774  -4.339  0.00  0.00    +0.173 HD
ENDROOT
BRANCH   1   7
ATOM      5  C   UNL     1       7.115   4.086  -5.496  0.00  0.00    +0.260 C 
ATOM      6  O   UNL     1       8.070   3.479  -5.941  0.00  0.00    -0.269 OA
ATOM      7  N   UNL     1       6.399   3.565  -4.481  0.00  0.00    -0.230 N 
ATOM      8  H   UNL     1       5.535   4.114  -4.079  0.00  0.00    +0.173 HD
BRANCH   5  12
ATOM      9  C   UNL     1       6.037   7.849  -7.144  0.00  0.00    +0.121 A 
ATOM     10  C   UNL     1       7.130   7.156  -7.653  0.00  0.00    +0.046 A 
ATOM     11  C   UNL     1       7.482   5.936  -7.122  0.00  0.00    +0.016 A 
ATOM     12  C   UNL     1       6.741   5.394  -6.069  0.00  0.00    +0.038 A 
ATOM     13  C   UNL     1       5.640   6.091  -5.563  0.00  0.00    +0.016 A 
ATOM     14  C   UNL     1       5.297   7.313  -6.097  0.00  0.00    +0.046 A 
BRANCH   9  15
ATOM     15  O   UNL     1       5.693   9.051  -7.670  0.00  0.00    -0.492 OA
BRANCH  15  16
ATOM     16  C   UNL     1       4.560   9.709  -7.099  0.00  0.00    +0.229 C 
BRANCH  16  17
ATOM     17  C   UNL     1       4.327  11.040  -7.817  0.00  0.00    +0.041 C 
BRANCH  17  18
ATOM     18  C   UNL     1       3.114  11.744  -7.206  0.00  0.00    +0.003 C 
BRANCH  18  19
ATOM     19  C   UNL     1       2.881  13.075  -7.924  0.00  0.00    -0.000 C 
BRANCH  19  21
ATOM     20  C   UNL     1       1.436  15.110  -8.030  0.00  0.00    +0.004 C 
ATOM     21  C   UNL     1       1.668  13.779  -7.312  0.00  0.00    -0.003 C 
ENDBRANCH  19  21
ENDBRANCH  18  19
ENDBRANCH  17  18
ENDBRANCH  16  17
ENDBRANCH  15  16
ENDBRANCH   9  15
ENDBRANCH   5  12
ENDBRANCH   1   7
BRANCH   2  22
ATOM     22  C   UNL     1       6.420   0.467  -2.337  0.00  0.00    +0.215 C 
BRANCH  22  23
ATOM     23  N   UNL     1       5.494   0.124  -1.256  0.00  0.00    -0.215 N 
ATOM     24  C   UNL     1       4.348  -0.566  -1.429  0.00  0.00    +0.251 C 
ATOM     25  O   UNL     1       3.905  -1.002  -2.470  0.00  0.00    -0.272 OA
ATOM     26  C   UNL     1       3.731  -0.679  -0.053  0.00  0.00    +0.138 C 
ATOM     27  C   UNL     1       3.614  -2.143   0.354  0.00  0.00    +0.040 C 
ATOM     28  C   UNL     1       2.490  -2.786  -0.467  0.00  0.00    +0.008 C 
ATOM     29  C   UNL     1       1.157  -2.199  -0.006  0.00  0.00    +0.035 C 
ATOM     30  C   UNL     1       1.207  -0.693  -0.013  0.00  0.00    -0.042 A 
ATOM     31  C   UNL     1       2.394   0.007  -0.026  0.00  0.00    -0.012 A 
ATOM     32  C   UNL     1       2.373   1.395  -0.016  0.00  0.00    +0.006 A 
ATOM     33  C   UNL     1       1.174   2.078   0.002  0.00  0.00    +0.000 A 
ATOM     34  C   UNL     1      -0.017   1.376   0.010  0.00  0.00    +0.000 A 
ATOM     35  C   UNL     1       0.002  -0.004   0.002  0.00  0.00    +0.004 A 
ATOM     36  N   UNL     1       4.682   0.022   0.820  0.00  0.00    -0.281 N 
ATOM     37  C   UNL     1       5.679   0.456   0.028  0.00  0.00    +0.310 C 
ATOM     38  O   UNL     1       6.641   1.081   0.432  0.00  0.00    -0.252 OA
ATOM     39  H   UNL     1       4.484   0.098   1.900  0.00  0.00    +0.152 HD
ENDBRANCH  22  23
ENDBRANCH   2  22
TORSDOF 10
