REMARK  Name = ZINC20875666
REMARK  8 active torsions:
REMARK  status: ('A' for Active; 'I' for Inactive)
REMARK    1  A    between atoms: C_3  and  S_24
REMARK    2  A    between atoms: C_6  and  C_7
REMARK    3  A    between atoms: C_7  and  C_8
REMARK    4  A    between atoms: C_8  and  N_9
REMARK    5  A    between atoms: N_9  and  C_10
REMARK    6  A    between atoms: C_10  and  C_11
REMARK    7  A    between atoms: C_14  and  C_16
REMARK    8  A    between atoms: S_24  and  N_27
REMARK                            x       y       z     vdW  Elec       q    Type
REMARK                         _______ _______ _______ _____ _____    ______ ____
ROOT
ATOM      1  N   UNL     1      -4.591   3.764  -2.327  0.00  0.00    -0.309 NA
ATOM      2  H   UNL     1      -3.811   3.423  -3.024  0.00  0.00    +0.122 HD
ENDROOT
BRANCH   1   3
ATOM      3  C   UNL     1      -5.874   3.858  -3.035  0.00  0.00    +0.086 C 
BRANCH   3   4
ATOM      4  C   UNL     1      -5.749   4.857  -4.188  0.00  0.00    +0.050 C 
BRANCH   4  10
ATOM      5  C   UNL     1      -7.329   4.116  -5.982  0.00  0.00    +0.005 A 
ATOM      6  C   UNL     1      -8.538   4.202  -6.646  0.00  0.00    +0.029 A 
ATOM      7  C   UNL     1      -9.481   5.132  -6.248  0.00  0.00    +0.105 A 
ATOM      8  C   UNL     1      -9.215   5.973  -5.183  0.00  0.00    +0.029 A 
ATOM      9  C   UNL     1      -8.008   5.884  -4.517  0.00  0.00    +0.005 A 
ATOM     10  C   UNL     1      -7.065   4.954  -4.914  0.00  0.00    -0.046 A 
BRANCH   7  11
ATOM     11  S   UNL     1     -11.021   5.244  -7.097  0.00  0.00    +0.056 S 
ATOM     12  O   UNL     1     -11.241   3.980  -7.707  0.00  0.00    -0.153 OA
ATOM     13  O   UNL     1     -11.945   5.822  -6.185  0.00  0.00    -0.153 OA
BRANCH  11  14
ATOM     14  N   UNL     1     -10.823   6.335  -8.326  0.00  0.00    -0.204 NA
ATOM     15  H   UNL     1     -11.767   6.435  -8.883  0.00  0.00    +0.144 HD
ATOM     16  H   UNL     1     -10.032   5.984  -9.005  0.00  0.00    +0.144 HD
ENDBRANCH  11  14
ENDBRANCH   7  11
ENDBRANCH   4  10
ENDBRANCH   3   4
ENDBRANCH   1   3
BRANCH   1  17
ATOM     17  C   UNL     1      -4.674   2.812  -1.211  0.00  0.00    +0.155 C 
BRANCH  17  18
ATOM     18  C   UNL     1      -3.342   2.742  -0.510  0.00  0.00    +0.119 A 
ATOM     19  C   UNL     1      -2.957   3.516   0.524  0.00  0.00    +0.046 A 
ATOM     20  C   UNL     1      -1.649   3.120   0.870  0.00  0.00    +0.050 A 
ATOM     21  C   UNL     1      -1.305   2.117   0.020  0.00  0.00    +0.137 A 
ATOM     22  O   UNL     1      -2.339   1.902  -0.816  0.00  0.00    -0.458 OA
BRANCH  21  23
ATOM     23  C   UNL     1      -0.017   1.393   0.010  0.00  0.00    +0.036 A 
ATOM     24  C   UNL     1       1.186   2.101   0.002  0.00  0.00    +0.014 A 
ATOM     25  C   UNL     1       2.385   1.419  -0.013  0.00  0.00    +0.016 A 
ATOM     26  C   UNL     1       2.398   0.035  -0.021  0.00  0.00    +0.019 A 
ATOM     27  C   UNL     1       1.209  -0.675  -0.013  0.00  0.00    +0.036 A 
ATOM     28  C   UNL     1       0.002  -0.004   0.002  0.00  0.00    +0.053 A 
ATOM     29 CL   UNL     1      -1.488  -0.895   0.011  0.00  0.00    -0.083 Cl
ATOM     30 BR   UNL     1       4.046  -0.892  -0.041  0.00  0.00    -0.050 Br
ENDBRANCH  21  23
ENDBRANCH  17  18
ENDBRANCH   1  17
TORSDOF 8
