REMARK  Name = ZINC05675042
REMARK  7 active torsions:
REMARK  status: ('A' for Active; 'I' for Inactive)
REMARK    1  A    between atoms: C_1  and  C_2
REMARK    2  A    between atoms: C_2  and  C_4
REMARK    3  A    between atoms: C_2  and  C_15
REMARK    4  A    between atoms: C_15  and  C_26
REMARK    5  A    between atoms: N_16  and  N_17
REMARK    6  A    between atoms: C_18  and  C_20
REMARK    7  A    between atoms: C_29  and  O_32
REMARK                            x       y       z     vdW  Elec       q    Type
REMARK                         _______ _______ _______ _____ _____    ______ ____
ROOT
ATOM      1  C   UNL     1       5.487  -1.720  -1.214  0.00  0.00    +0.073 C 
ATOM      2  N   UNL     1       6.423  -1.102  -1.867  0.00  0.00    -0.184 NA
ENDROOT
BRANCH   1   3
ATOM      3  C   UNL     1       5.838  -2.642  -0.118  0.00  0.00    -0.002 A 
ATOM      4  C   UNL     1       5.126  -3.833   0.050  0.00  0.00    +0.013 A 
ATOM      5  C   UNL     1       5.461  -4.694   1.073  0.00  0.00    +0.046 A 
ATOM      6  C   UNL     1       6.497  -4.374   1.942  0.00  0.00    +0.117 A 
ATOM      7  C   UNL     1       7.203  -3.189   1.781  0.00  0.00    +0.046 A 
ATOM      8  C   UNL     1       6.879  -2.324   0.758  0.00  0.00    +0.013 A 
BRANCH   6   9
ATOM      9  O   UNL     1       6.820  -5.223   2.951  0.00  0.00    -0.507 OA
ATOM     10  H   UNL     1       6.340  -5.056   3.774  0.00  0.00    +0.292 HD
ENDBRANCH   6   9
ENDBRANCH   1   3
BRANCH   2  11
ATOM     11  N   UNL     1       7.767  -1.422  -1.635  0.00  0.00    -0.203 N 
ATOM     12  C   UNL     1       8.742  -0.704  -2.227  0.00  0.00    +0.263 C 
ATOM     13  O   UNL     1       8.456   0.221  -2.962  0.00  0.00    -0.268 OA
ATOM     14  H   UNL     1       7.996  -2.160  -1.049  0.00  0.00    +0.178 HD
BRANCH  12  15
ATOM     15  C   UNL     1      10.163  -1.042  -1.983  0.00  0.00    +0.041 A 
ATOM     16  C   UNL     1      10.515  -2.099  -1.136  0.00  0.00    +0.033 A 
ATOM     17  C   UNL     1      11.852  -2.383  -0.941  0.00  0.00    +0.111 A 
ATOM     18  N   UNL     1      12.790  -1.668  -1.530  0.00  0.00    -0.263 NA
ATOM     19  C   UNL     1      12.502  -0.661  -2.330  0.00  0.00    +0.111 A 
ATOM     20  C   UNL     1      11.190  -0.311  -2.587  0.00  0.00    +0.033 A 
ENDBRANCH  12  15
ENDBRANCH   2  11
BRANCH   1  22
ATOM     21  C   UNL     1       3.958  -0.601  -2.814  0.00  0.00    +0.018 C 
ATOM     22  C   UNL     1       4.041  -1.495  -1.576  0.00  0.00    +0.082 C 
BRANCH  22  23
ATOM     23  C   UNL     1       3.322  -0.817  -0.407  0.00  0.00    +0.216 C 
ATOM     24  C   UNL     1       1.849  -0.696  -0.706  0.00  0.00    +0.007 A 
ATOM     25  C   UNL     1       0.858  -1.616  -0.958  0.00  0.00    +0.008 A 
ATOM     26  C   UNL     1      -0.436  -1.188  -1.204  0.00  0.00    +0.000 A 
ATOM     27  C   UNL     1      -0.736   0.163  -1.197  0.00  0.00    +0.001 A 
ATOM     28  C   UNL     1       0.250   1.094  -0.946  0.00  0.00    +0.015 A 
ATOM     29  C   UNL     1       1.557   0.670  -0.697  0.00  0.00    +0.066 A 
ATOM     30  C   UNL     1       2.803   1.401  -0.402  0.00  0.00    +0.340 C 
ATOM     31  O   UNL     1       2.897   2.610  -0.320  0.00  0.00    -0.245 OA
ATOM     32  O   UNL     1       3.819   0.538  -0.236  0.00  0.00    -0.452 OA
ENDBRANCH  22  23
ENDBRANCH   1  22
TORSDOF 6
