REMARK  Name = ZINC39711156
REMARK  10 active torsions:
REMARK  status: ('A' for Active; 'I' for Inactive)
REMARK    1  A    between atoms: C_1  and  C_2
REMARK    2  A    between atoms: C_4  and  C_41
REMARK    3  A    between atoms: C_7  and  C_14
REMARK    4  A    between atoms: C_14  and  C_16
REMARK    5  A    between atoms: C_14  and  N_28
REMARK    6  A    between atoms: N_21  and  C_22
REMARK    7  A    between atoms: N_28  and  C_29
REMARK    8  A    between atoms: N_28  and  C_35
REMARK    9  A    between atoms: C_29  and  C_30
REMARK   10  A    between atoms: C_35  and  C_36
REMARK                            x       y       z     vdW  Elec       q    Type
REMARK                         _______ _______ _______ _____ _____    ______ ____
ROOT
ATOM      1  C   UNL     1       1.762  -5.487   1.595  0.00  0.00    -0.010 C 
ENDROOT
BRANCH   1   8
ATOM      2  C   UNL     1      -4.753  -5.903   5.282  0.00  0.00    +0.044 C 
ATOM      3  C   UNL     1      -3.406  -5.508   4.734  0.00  0.00    -0.048 A 
ATOM      4  C   UNL     1      -2.441  -5.021   5.617  0.00  0.00    +0.007 A 
ATOM      5  C   UNL     1      -1.209  -4.649   5.183  0.00  0.00    -0.042 A 
ATOM      6  C   UNL     1      -0.898  -4.766   3.758  0.00  0.00    -0.004 A 
ATOM      7  C   UNL     1       0.326  -4.404   3.277  0.00  0.00    -0.006 C 
ATOM      8  C   UNL     1       0.561  -4.559   1.787  0.00  0.00    +0.088 C 
ATOM      9  C   UNL     1      -0.581  -5.101   0.956  0.00  0.00    +0.223 C 
ATOM     10  O   UNL     1      -0.447  -5.245  -0.244  0.00  0.00    -0.275 OA
ATOM     11  N   UNL     1      -1.725  -5.417   1.540  0.00  0.00    -0.285 N 
ATOM     12  C   UNL     1      -1.935  -5.283   2.849  0.00  0.00    +0.041 A 
ATOM     13  C   UNL     1      -3.178  -5.644   3.402  0.00  0.00    +0.027 A 
ATOM     14  C   UNL     1      -0.180  -4.125   6.152  0.00  0.00    +0.044 C 
ATOM     15  H   UNL     1      -2.444  -5.763   0.989  0.00  0.00    +0.155 HD
ENDBRANCH   1   8
BRANCH   1  16
ATOM     16  C   UNL     1       1.718  -6.094   0.191  0.00  0.00    +0.183 C 
ATOM     17  N   UNL     1       2.767  -7.119   0.033  0.00  0.00    -0.229 N 
ATOM     18  N   UNL     1       3.602  -6.658  -0.992  0.00  0.00    -0.064 NA
ATOM     19  N   UNL     1       3.239  -5.577  -1.448  0.00  0.00    -0.061 NA
ATOM     20  N   UNL     1       2.081  -5.087  -0.824  0.00  0.00    -0.213 N 
ATOM     21  H   UNL     1       2.859  -7.943   0.535  0.00  0.00    +0.172 HD
BRANCH  20  22
ATOM     22  C   UNL     1       1.377  -3.836  -1.118  0.00  0.00    +0.096 C 
ATOM     23  C   UNL     1       0.818  -3.887  -2.541  0.00  0.00    +0.024 C 
ATOM     24  C   UNL     1       0.083  -2.581  -2.848  0.00  0.00    +0.002 C 
ATOM     25  C   UNL     1       1.056  -1.407  -2.724  0.00  0.00    +0.000 C 
ATOM     26  C   UNL     1       1.614  -1.355  -1.301  0.00  0.00    +0.002 C 
ATOM     27  C   UNL     1       2.350  -2.662  -0.994  0.00  0.00    +0.024 C 
ENDBRANCH  20  22
ENDBRANCH   1  16
BRANCH   1  28
ATOM     28  N   UNL     1       1.715  -6.562   2.595  0.00  0.00    +0.392 N 
ATOM     29  H   UNL     1       2.369  -7.287   2.341  0.00  0.00    -0.080 HD
BRANCH  28  30
ATOM     30  C   UNL     1       2.071  -6.021   3.913  0.00  0.00    -0.002 C 
BRANCH  30  31
ATOM     31  C   UNL     1       3.362  -5.252   3.808  0.00  0.00    +0.089 A 
ATOM     32  C   UNL     1       3.475  -3.930   3.587  0.00  0.00    +0.042 A 
ATOM     33  C   UNL     1       4.857  -3.635   3.564  0.00  0.00    +0.041 A 
ATOM     34  C   UNL     1       5.507  -4.794   3.773  0.00  0.00    +0.195 A 
ATOM     35  O   UNL     1       4.596  -5.769   3.926  0.00  0.00    -0.470 OA
ENDBRANCH  30  31
ENDBRANCH  28  30
BRANCH  28  36
ATOM     36  C   UNL     1       0.358  -7.124   2.646  0.00  0.00    -0.034 C 
BRANCH  36  37
ATOM     37  C   UNL     1       0.215  -8.188   1.589  0.00  0.00    -0.027 A 
ATOM     38  C   UNL     1       0.522  -9.507   1.657  0.00  0.00    +0.009 A 
ATOM     39  C   UNL     1       0.303 -10.304   0.550  0.00  0.00    +0.008 A 
ATOM     40  C   UNL     1      -0.212  -9.745  -0.572  0.00  0.00    +0.045 A 
ATOM     41  S   UNL     1      -0.411  -8.041  -0.077  0.00  0.00    -0.103 S 
ENDBRANCH  36  37
ENDBRANCH  28  36
ENDBRANCH   1  28
TORSDOF 8
