REMARK  Name = ZINC45697783
REMARK  8 active torsions:
REMARK  status: ('A' for Active; 'I' for Inactive)
REMARK    1  A    between atoms: C_7  and  C_11
REMARK    2  A    between atoms: C_14  and  S_19
REMARK    3  A    between atoms: N_15  and  C_16
REMARK    4  A    between atoms: S_19  and  C_20
REMARK    5  A    between atoms: C_20  and  C_21
REMARK    6  A    between atoms: C_21  and  C_22
REMARK    7  A    between atoms: N_24  and  C_25
REMARK    8  A    between atoms: C_28  and  C_32
REMARK                            x       y       z     vdW  Elec       q    Type
REMARK                         _______ _______ _______ _____ _____    ______ ____
ROOT
ATOM      1  C   UNL     1       1.316  -2.629   0.882  0.00  0.00    +0.167 A 
ATOM      2  N   UNL     1       0.040  -2.387   1.076  0.00  0.00    -0.128 NA
ATOM      3  N   UNL     1      -0.638  -3.470   0.941  0.00  0.00    -0.122 NA
ATOM      4  C   UNL     1       0.161  -4.470   0.652  0.00  0.00    +0.192 A 
ATOM      5  N   UNL     1       1.433  -3.971   0.599  0.00  0.00    -0.299 N 
ENDROOT
BRANCH   1  12
ATOM      6  C   UNL     1       1.417   2.018   1.391  0.00  0.00    +0.001 A 
ATOM      7  C   UNL     1       2.709   2.526   1.400  0.00  0.00    +0.002 A 
ATOM      8  C   UNL     1       3.794   1.688   1.268  0.00  0.00    +0.026 A 
ATOM      9  C   UNL     1       3.596   0.318   1.124  0.00  0.00    +0.047 A 
ATOM     10  C   UNL     1       2.286  -0.190   1.116  0.00  0.00    +0.010 A 
ATOM     11  C   UNL     1       1.202   0.675   1.251  0.00  0.00    +0.011 A 
ATOM     12  C   UNL     1       2.417  -1.647   0.950  0.00  0.00    +0.044 A 
ATOM     13  C   UNL     1       3.747  -1.912   0.872  0.00  0.00    +0.095 A 
ATOM     14  N   UNL     1       4.454  -0.750   0.975  0.00  0.00    -0.360 N 
ATOM     15  H   UNL     1       5.422  -0.684   0.946  0.00  0.00    +0.165 HD
ENDBRANCH   1  12
BRANCH   5  16
ATOM     16  C   UNL     1       2.663  -4.710   0.304  0.00  0.00    +0.091 C 
ATOM     17  C   UNL     1       2.521  -6.093  -0.335  0.00  0.00    +0.027 C 
ATOM     18  C   UNL     1       2.947  -5.967   1.129  0.00  0.00    +0.027 C 
ENDBRANCH   5  16
BRANCH   4  19
ATOM     19  S   UNL     1      -0.317  -6.144   0.378  0.00  0.00    -0.086 S 
BRANCH  19  20
ATOM     20  C   UNL     1      -2.119  -6.125   0.586  0.00  0.00    +0.086 C 
BRANCH  20  21
ATOM     21  C   UNL     1      -2.672  -7.536   0.372  0.00  0.00    +0.107 C 
BRANCH  21  22
ATOM     22  C   UNL     1      -4.169  -7.521   0.545  0.00  0.00    +0.218 C 
ATOM     23  O   UNL     1      -4.737  -6.484   0.814  0.00  0.00    -0.275 OA
ATOM     24  N   UNL     1      -4.875  -8.659   0.402  0.00  0.00    -0.285 N 
ATOM     25  H   UNL     1      -4.415  -9.502   0.263  0.00  0.00    +0.155 HD
BRANCH  24  26
ATOM     26  C   UNL     1      -6.269  -8.627   0.453  0.00  0.00    +0.035 A 
ATOM     27  C   UNL     1      -6.956  -7.522  -0.042  0.00  0.00    +0.024 A 
ATOM     28  C   UNL     1      -8.331  -7.485   0.007  0.00  0.00    +0.022 A 
ATOM     29  C   UNL     1      -9.039  -8.559   0.554  0.00  0.00    +0.070 A 
ATOM     30  C   UNL     1      -8.346  -9.668   1.050  0.00  0.00    +0.060 A 
ATOM     31  C   UNL     1      -6.969  -9.700   0.993  0.00  0.00    +0.044 A 
ATOM     32 CL   UNL     1      -9.219 -11.006   1.731  0.00  0.00    -0.082 Cl
BRANCH  29  33
ATOM     33  C   UNL     1     -10.470  -8.524   0.607  0.00  0.00    +0.101 C 
ATOM     34  N   UNL     1     -11.604  -8.496   0.649  0.00  0.00    -0.191 NA
ENDBRANCH  29  33
ENDBRANCH  24  26
ENDBRANCH  21  22
ENDBRANCH  20  21
ENDBRANCH  19  20
ENDBRANCH   4  19
TORSDOF 8
