REMARK  Name = ZINC38011199
REMARK  4 active torsions:
REMARK  status: ('A' for Active; 'I' for Inactive)
REMARK    1  A    between atoms: C_1  and  C_2
REMARK    2  A    between atoms: C_3  and  C_8
REMARK    3  A    between atoms: C_8  and  N_9
REMARK    4  A    between atoms: N_9  and  C_10
REMARK                            x       y       z     vdW  Elec       q    Type
REMARK                         _______ _______ _______ _____ _____    ______ ____
ROOT
ATOM      1  C   UNL     1       1.336   0.522  -4.356  0.00  0.00    +0.049 C 
ATOM      2  C   UNL     1       2.706   1.013  -4.764  0.00  0.00    -0.031 A 
ATOM      3  C   UNL     1       3.512   2.030  -4.303  0.00  0.00    +0.005 A 
ATOM      4  C   UNL     1       4.747   2.250  -4.886  0.00  0.00    +0.015 A 
ATOM      5  C   UNL     1       5.168   1.447  -5.932  0.00  0.00    +0.020 A 
ATOM      6  C   UNL     1       4.361   0.428  -6.396  0.00  0.00    +0.038 A 
ATOM      7  C   UNL     1       3.116   0.200  -5.813  0.00  0.00    +0.036 A 
ATOM      8  N   UNL     1       2.135  -0.750  -6.098  0.00  0.00    -0.286 N 
ATOM      9  C   UNL     1       1.061  -0.632  -5.295  0.00  0.00    +0.208 C 
ATOM     10  O   UNL     1       0.062  -1.320  -5.318  0.00  0.00    -0.277 OA
ATOM     11 BR   UNL     1       6.855   1.749  -6.730  0.00  0.00    -0.050 Br
ATOM     12  H   UNL     1       2.217  -1.419  -6.796  0.00  0.00    +0.155 HD
ENDROOT
BRANCH   1  13
ATOM     13  N   UNL     1       1.350   0.059  -2.961  0.00  0.00    +0.392 N 
ATOM     14  H   UNL     1       1.668   0.806  -2.362  0.00  0.00    -0.084 HD
ATOM     15  H   UNL     1       1.974  -0.730  -2.875  0.00  0.00    -0.084 HD
BRANCH  13  16
ATOM     16  C   UNL     1      -0.006  -0.343  -2.566  0.00  0.00    -0.042 C 
BRANCH  16  19
ATOM     17  C   UNL     1      -0.018   1.503   0.010  0.00  0.00    +0.068 C 
ATOM     18  C   UNL     1       0.002  -0.004   0.002  0.00  0.00    +0.061 A 
ATOM     19  C   UNL     1       0.008  -0.818  -1.135  0.00  0.00    -0.024 A 
ATOM     20  C   UNL     1       0.028  -2.107  -0.725  0.00  0.00    +0.106 A 
ATOM     21  N   UNL     1       0.034  -2.109   0.625  0.00  0.00    -0.284 N 
ATOM     22  H   UNL     1       0.048  -2.894   1.194  0.00  0.00    +0.188 HD
ATOM     23  N   UNL     1       0.023  -0.777   1.058  0.00  0.00    -0.179 NA
ENDBRANCH  16  19
ENDBRANCH  13  16
ENDBRANCH   1  13
TORSDOF 3
