REMARK  Name = ZINC40994563
REMARK  7 active torsions:
REMARK  status: ('A' for Active; 'I' for Inactive)
REMARK    1  A    between atoms: C_1  and  C_2
REMARK    2  A    between atoms: C_3  and  C_29
REMARK    3  A    between atoms: C_5  and  N_18
REMARK    4  A    between atoms: C_6  and  C_7
REMARK    5  A    between atoms: C_9  and  C_12
REMARK    6  A    between atoms: C_19  and  C_21
REMARK    7  A    between atoms: C_22  and  C_23
REMARK                            x       y       z     vdW  Elec       q    Type
REMARK                         _______ _______ _______ _____ _____    ______ ____
ROOT
ATOM      1  C   UNL     1      -0.018   1.503   0.010  0.00  0.00    +0.045 C 
ATOM      2  C   UNL     1       0.002  -0.004   0.002  0.00  0.00    -0.026 A 
ATOM      3  C   UNL     1       0.006  -0.686  -1.158  0.00  0.00    -0.008 A 
ATOM      4  S   UNL     1       0.032  -2.388  -0.630  0.00  0.00    -0.078 S 
ATOM      5  C   UNL     1       0.036  -2.135   1.135  0.00  0.00    +0.085 A 
ATOM      6  C   UNL     1       0.024  -0.748   1.236  0.00  0.00    +0.071 A 
ATOM      7  C   UNL     1      -0.009  -0.143  -2.564  0.00  0.00    +0.052 C 
ENDROOT
BRANCH   6   8
ATOM      8  C   UNL     1       0.028  -0.072   2.541  0.00  0.00    +0.261 A 
ATOM      9  N   UNL     1       0.052  -0.663   3.717  0.00  0.00    -0.187 NA
ATOM     10  C   UNL     1       0.047   0.259   4.691  0.00  0.00    +0.202 A 
ATOM     11  N   UNL     1       0.020   1.452   4.147  0.00  0.00    -0.056 NA
ATOM     12  O   UNL     1       0.012   1.259   2.741  0.00  0.00    -0.332 OA
BRANCH  10  13
ATOM     13  C   UNL     1       0.069  -0.024   6.148  0.00  0.00    +0.022 A 
ATOM     14  C   UNL     1       0.103  -1.341   6.604  0.00  0.00    +0.012 A 
ATOM     15  C   UNL     1       0.124  -1.599   7.960  0.00  0.00    +0.001 A 
ATOM     16  C   UNL     1       0.110  -0.553   8.866  0.00  0.00    +0.000 A 
ATOM     17  C   UNL     1       0.076   0.755   8.419  0.00  0.00    +0.001 A 
ATOM     18  C   UNL     1       0.062   1.025   7.065  0.00  0.00    +0.012 A 
ENDBRANCH  10  13
ENDBRANCH   6   8
BRANCH   5  19
ATOM     19  N   UNL     1       0.054  -3.081   2.150  0.00  0.00    -0.276 N 
ATOM     20  C   UNL     1       0.071  -4.394   1.847  0.00  0.00    +0.241 C 
ATOM     21  O   UNL     1       0.070  -4.750   0.683  0.00  0.00    -0.270 OA
ATOM     22  H   UNL     1       0.054  -2.797   3.077  0.00  0.00    +0.156 HD
BRANCH  20  23
ATOM     23  C   UNL     1       0.089  -5.392   2.917  0.00  0.00    +0.068 C 
ATOM     24  C   UNL     1       0.106  -6.705   2.614  0.00  0.00    +0.013 C 
BRANCH  24  25
ATOM     25  C   UNL     1       0.124  -7.709   3.691  0.00  0.00    -0.025 A 
ATOM     26  C   UNL     1       0.119  -7.304   5.029  0.00  0.00    +0.008 A 
ATOM     27  C   UNL     1       0.136  -8.250   6.032  0.00  0.00    +0.001 A 
ATOM     28  C   UNL     1       0.160  -9.598   5.717  0.00  0.00    +0.000 A 
ATOM     29  C   UNL     1       0.166 -10.006   4.394  0.00  0.00    +0.001 A 
ATOM     30  C   UNL     1       0.142  -9.072   3.380  0.00  0.00    +0.008 A 
ENDBRANCH  24  25
ENDBRANCH  20  23
ENDBRANCH   5  19
TORSDOF 5
