REMARK  Name = ZINC63110652
REMARK  11 active torsions:
REMARK  status: ('A' for Active; 'I' for Inactive)
REMARK    1  A    between atoms: C_1  and  C_2
REMARK    2  A    between atoms: C_2  and  N_3
REMARK    3  A    between atoms: C_9  and  C_11
REMARK    4  A    between atoms: C_11  and  C_13
REMARK    5  A    between atoms: C_11  and  N_14
REMARK    6  A    between atoms: N_14  and  C_15
REMARK    7  A    between atoms: C_15  and  C_16
REMARK    8  A    between atoms: C_16  and  C_18
REMARK    9  A    between atoms: C_16  and  C_26
REMARK   10  A    between atoms: C_21  and  O_24
REMARK   11  A    between atoms: O_24  and  C_25
REMARK                            x       y       z     vdW  Elec       q    Type
REMARK                         _______ _______ _______ _____ _____    ______ ____
ROOT
ATOM      1  C   UNL     1       5.557  -7.047  -3.927  0.00  0.00    +0.030 C 
ENDROOT
BRANCH   1   2
ATOM      2  C   UNL     1       6.484  -6.848  -2.756  0.00  0.00    -0.036 C 
ATOM      3  C   UNL     1       7.702  -6.262  -2.773  0.00  0.00    -0.001 A 
ATOM      4  C   UNL     1       8.500  -5.658  -3.847  0.00  0.00    +0.010 A 
ATOM      5  C   UNL     1       9.714  -5.140  -3.550  0.00  0.00    +0.001 A 
ATOM      6  C   UNL     1      10.228  -5.166  -2.247  0.00  0.00    +0.002 A 
ATOM      7  C   UNL     1       9.554  -5.704  -1.208  0.00  0.00    +0.026 A 
ATOM      8  C   UNL     1       8.268  -6.277  -1.405  0.00  0.00    +0.043 A 
ATOM      9  N   UNL     1       7.431  -6.850  -0.574  0.00  0.00    -0.380 N 
ATOM     10  C   UNL     1       6.236  -7.259  -1.321  0.00  0.00    +0.145 C 
ATOM     11  H   UNL     1       7.576  -6.978   0.377  0.00  0.00    +0.160 HD
ENDBRANCH   1   2
BRANCH   1  12
ATOM     12  C   UNL     1       5.292  -8.519  -4.114  0.00  0.00    -0.042 A 
ATOM     13  C   UNL     1       4.701  -9.248  -3.099  0.00  0.00    +0.008 A 
ATOM     14  C   UNL     1       4.457 -10.597  -3.268  0.00  0.00    +0.046 A 
ATOM     15  C   UNL     1       4.805 -11.220  -4.457  0.00  0.00    +0.120 A 
ATOM     16  C   UNL     1       5.398 -10.486  -5.474  0.00  0.00    +0.046 A 
ATOM     17  C   UNL     1       5.635  -9.136  -5.303  0.00  0.00    +0.008 A 
BRANCH  15  18
ATOM     18  O   UNL     1       4.567 -12.548  -4.625  0.00  0.00    -0.495 OA
ATOM     19  C   UNL     1       4.952 -13.122  -5.876  0.00  0.00    +0.277 C 
ENDBRANCH  15  18
ENDBRANCH   1  12
BRANCH   1  20
ATOM     20  C   UNL     1       4.237  -6.320  -3.662  0.00  0.00    -0.069 C 
BRANCH  20  21
ATOM     21  N   UNL     1       4.479  -4.873  -3.599  0.00  0.00    +0.387 N 
ATOM     22  H   UNL     1       4.866  -4.558  -4.476  0.00  0.00    -0.085 HD
ATOM     23  H   UNL     1       5.128  -4.673  -2.853  0.00  0.00    -0.085 HD
BRANCH  21  24
ATOM     24  C   UNL     1       3.211  -4.175  -3.345  0.00  0.00    +0.013 C 
ATOM     25  C   UNL     1       2.271  -4.377  -4.534  0.00  0.00    -0.004 C 
BRANCH  24  32
ATOM     26  N   UNL     1       1.291  -0.722  -0.348  0.00  0.00    -0.300 NA
ATOM     27  C   UNL     1       2.644  -0.279  -0.708  0.00  0.00    +0.103 C 
ATOM     28  C   UNL     1       2.878  -0.526  -2.202  0.00  0.00    +0.123 C 
ATOM     29  N   UNL     1       2.589  -1.938  -2.493  0.00  0.00    -0.300 N 
ATOM     30  C   UNL     1       1.304  -2.493  -2.039  0.00  0.00    +0.123 C 
ATOM     31  C   UNL     1       1.132  -2.168  -0.552  0.00  0.00    +0.103 C 
ATOM     32  C   UNL     1       3.477  -2.704  -3.158  0.00  0.00    +0.201 C 
ATOM     33  O   UNL     1       4.489  -2.208  -3.606  0.00  0.00    -0.277 OA
BRANCH  26  35
ATOM     34  C   UNL     1       0.898   1.179   1.146  0.00  0.00    +0.020 C 
ATOM     35  C   UNL     1       0.964  -0.346   1.034  0.00  0.00    +0.081 C 
ENDBRANCH  26  35
ENDBRANCH  24  32
ENDBRANCH  21  24
ENDBRANCH  20  21
ENDBRANCH   1  20
TORSDOF 8
