REMARK  Name = ZINC66697549
REMARK  8 active torsions:
REMARK  status: ('A' for Active; 'I' for Inactive)
REMARK    1  A    between atoms: C_1  and  C_2
REMARK    2  A    between atoms: C_2  and  O_3
REMARK    3  A    between atoms: O_3  and  C_4
REMARK    4  A    between atoms: C_4  and  C_5
REMARK    5  A    between atoms: N_7  and  N_8
REMARK    6  A    between atoms: N_11  and  C_12
REMARK    7  A    between atoms: C_12  and  C_14
REMARK    8  A    between atoms: C_12  and  C_15
REMARK                            x       y       z     vdW  Elec       q    Type
REMARK                         _______ _______ _______ _____ _____    ______ ____
ROOT
ATOM      1  N   UNL     1      -4.844  -4.123   0.723  0.00  0.00    -0.218 N 
ATOM      2  C   UNL     1      -5.075  -5.426   0.471  0.00  0.00    +0.316 C 
ATOM      3  O   UNL     1      -6.217  -5.842   0.418  0.00  0.00    -0.251 OA
ATOM      4  N   UNL     1      -4.041  -6.269   0.276  0.00  0.00    -0.292 N 
ATOM      5  H   UNL     1      -5.588  -3.516   0.863  0.00  0.00    +0.174 HD
ATOM      6  H   UNL     1      -3.131  -5.936   0.318  0.00  0.00    +0.151 HD
ENDROOT
BRANCH   1   9
ATOM      7  C   UNL     1      -3.298  -2.340   1.036  0.00  0.00    +0.255 C 
ATOM      8  O   UNL     1      -4.229  -1.582   1.211  0.00  0.00    -0.272 OA
ATOM      9  N   UNL     1      -3.529  -3.643   0.784  0.00  0.00    -0.231 N 
ATOM     10  H   UNL     1      -2.785  -4.249   0.644  0.00  0.00    +0.173 HD
BRANCH   7  11
ATOM     11  C   UNL     1      -1.884  -1.824   1.101  0.00  0.00    +0.256 C 
BRANCH  11  12
ATOM     12  O   UNL     1      -1.900  -0.422   1.380  0.00  0.00    -0.371 OA
BRANCH  12  14
ATOM     13  C   UNL     1      -0.740   1.663   1.763  0.00  0.00    +0.034 C 
ATOM     14  C   UNL     1      -0.602   0.169   1.462  0.00  0.00    +0.157 C 
ENDBRANCH  12  14
ENDBRANCH  11  12
ENDBRANCH   7  11
ENDBRANCH   1   9
BRANCH   4  15
ATOM     15  C   UNL     1      -4.293  -7.686   0.002  0.00  0.00    +0.103 C 
ATOM     16  C   UNL     1      -4.485  -7.887  -1.503  0.00  0.00    +0.033 C 
BRANCH  15  17
ATOM     17  C   UNL     1      -3.118  -8.504   0.472  0.00  0.00    -0.006 A 
ATOM     18  C   UNL     1      -1.858  -7.937   0.527  0.00  0.00    +0.046 A 
ATOM     19  C   UNL     1      -0.779  -8.689   0.959  0.00  0.00    +0.142 A 
ATOM     20  C   UNL     1      -0.963 -10.009   1.337  0.00  0.00    +0.077 A 
ATOM     21  C   UNL     1      -2.223 -10.575   1.282  0.00  0.00    +0.043 A 
ATOM     22  C   UNL     1      -3.302  -9.821   0.855  0.00  0.00    +0.047 A 
ATOM     23 CL   UNL     1      -4.886 -10.529   0.792  0.00  0.00    -0.083 Cl
ATOM     24 CL   UNL     1       0.390 -10.954   1.878  0.00  0.00    -0.081 Cl
ATOM     25  F   UNL     1       0.452  -8.136   1.011  0.00  0.00    -0.204 F 
ENDBRANCH  15  17
ENDBRANCH   4  15
TORSDOF 6
