REMARK  Name = ZINC04981808
REMARK  4 active torsions:
REMARK  status: ('A' for Active; 'I' for Inactive)
REMARK    1  A    between atoms: C_4  and  N_7
REMARK    2  A    between atoms: N_10  and  C_11
REMARK    3  A    between atoms: C_11  and  C_17
REMARK    4  A    between atoms: C_22  and  C_25
REMARK                            x       y       z     vdW  Elec       q    Type
REMARK                         _______ _______ _______ _____ _____    ______ ____
ROOT
ATOM      1  C   UNL     1       4.565   0.727   1.422  0.00  0.00    +0.112 C 
ATOM      2  C   UNL     1       3.783   0.648   2.734  0.00  0.00    +0.035 C 
ATOM      3  C   UNL     1       3.492   2.063   3.241  0.00  0.00    +0.003 C 
ATOM      4  C   UNL     1       4.811   2.801   3.477  0.00  0.00    +0.000 C 
ATOM      5  C   UNL     1       5.594   2.880   2.165  0.00  0.00    +0.003 C 
ATOM      6  C   UNL     1       5.884   1.465   1.659  0.00  0.00    +0.035 C 
ENDROOT
BRANCH   1   7
ATOM      7  C   UNL     1       4.851  -0.666   0.923  0.00  0.00    +0.239 C 
ATOM      8  O   UNL     1       4.629  -1.622   1.635  0.00  0.00    -0.273 OA
ATOM      9  N   UNL     1       5.354  -0.849  -0.314  0.00  0.00    -0.300 N 
ATOM     10  C   UNL     1       5.581   0.296  -1.206  0.00  0.00    +0.108 C 
ATOM     11  C   UNL     1       4.874   0.037  -2.536  0.00  0.00    +0.032 C 
ATOM     12  C   UNL     1       5.337  -1.305  -3.105  0.00  0.00    +0.078 C 
ATOM     13  C   UNL     1       4.968  -2.428  -2.133  0.00  0.00    +0.032 C 
ATOM     14  C   UNL     1       5.681  -2.197  -0.797  0.00  0.00    +0.108 C 
BRANCH  12  15
ATOM     15  C   UNL     1       4.664  -1.548  -4.431  0.00  0.00    +0.214 C 
ATOM     16  O   UNL     1       3.959  -2.522  -4.584  0.00  0.00    -0.276 OA
ATOM     17  N   UNL     1       4.847  -0.681  -5.448  0.00  0.00    -0.329 N 
ATOM     18  H   UNL     1       5.411   0.098  -5.325  0.00  0.00    +0.145 HD
ATOM     19  H   UNL     1       4.413  -0.837  -6.301  0.00  0.00    +0.145 HD
ENDBRANCH  12  15
ENDBRANCH   1   7
BRANCH   1  23
ATOM     20  N   UNL     1       1.782   1.716  -0.766  0.00  0.00    -0.297 N 
ATOM     21  C   UNL     1       2.551   0.999   0.078  0.00  0.00    +0.301 C 
ATOM     22  O   UNL     1       2.142  -0.054   0.527  0.00  0.00    -0.253 OA
ATOM     23  N   UNL     1       3.773   1.450   0.424  0.00  0.00    -0.285 N 
ATOM     24  H   UNL     1       2.109   2.556  -1.125  0.00  0.00    +0.151 HD
ATOM     25  H   UNL     1       4.128   2.253   0.012  0.00  0.00    +0.151 HD
BRANCH  20  29
ATOM     26  C   UNL     1      -2.348   1.729  -1.833  0.00  0.00    +0.000 C 
ATOM     27  C   UNL     1      -1.329   1.302  -2.891  0.00  0.00    +0.002 C 
ATOM     28  C   UNL     1       0.059   1.814  -2.498  0.00  0.00    +0.022 C 
ATOM     29  C   UNL     1       0.454   1.226  -1.142  0.00  0.00    +0.074 C 
ATOM     30  C   UNL     1      -0.565   1.653  -0.084  0.00  0.00    +0.022 C 
ATOM     31  C   UNL     1      -1.953   1.142  -0.477  0.00  0.00    +0.002 C 
ENDBRANCH  20  29
ENDBRANCH   1  23
TORSDOF 4
