REMARK  Name = ZINC36646151
REMARK  6 active torsions:
REMARK  status: ('A' for Active; 'I' for Inactive)
REMARK    1  A    between atoms: C_1  and  C_2
REMARK    2  A    between atoms: C_5  and  C_8
REMARK    3  A    between atoms: C_8  and  S_9
REMARK    4  A    between atoms: S_9  and  C_10
REMARK    5  A    between atoms: C_14  and  C_21
REMARK    6  A    between atoms: N_19  and  N_20
REMARK                            x       y       z     vdW  Elec       q    Type
REMARK                         _______ _______ _______ _____ _____    ______ ____
ROOT
ATOM      1  C   UNL     1       1.632  -6.614  -0.043  0.00  0.00    +0.190 A 
ATOM      2  N   UNL     1       0.438  -7.141  -0.044  0.00  0.00    -0.221 NA
ATOM      3  C   UNL     1       0.246  -8.500  -0.051  0.00  0.00    +0.087 A 
ATOM      4  C   UNL     1      -0.962  -9.206  -0.054  0.00  0.00    +0.044 A 
ATOM      5  C   UNL     1      -0.953 -10.569  -0.061  0.00  0.00    +0.022 A 
ATOM      6  S   UNL     1       0.791 -10.950  -0.065  0.00  0.00    -0.081 S 
ATOM      7  C   UNL     1       1.412  -9.289  -0.056  0.00  0.00    +0.104 A 
ATOM      8  C   UNL     1       2.680  -8.714  -0.054  0.00  0.00    +0.286 A 
ATOM      9  O   UNL     1       3.682  -9.410  -0.059  0.00  0.00    -0.265 OA
ATOM     10  N   UNL     1       2.774  -7.363  -0.053  0.00  0.00    -0.208 N 
ENDROOT
BRANCH   5  11
ATOM     11  C   UNL     1      -2.102 -11.500  -0.065  0.00  0.00    -0.011 A 
ATOM     12  C   UNL     1      -3.407 -11.003  -0.068  0.00  0.00    +0.009 A 
ATOM     13  C   UNL     1      -4.474 -11.877  -0.072  0.00  0.00    +0.001 A 
ATOM     14  C   UNL     1      -4.254 -13.243  -0.074  0.00  0.00    +0.000 A 
ATOM     15  C   UNL     1      -2.964 -13.742  -0.071  0.00  0.00    +0.001 A 
ATOM     16  C   UNL     1      -1.887 -12.879  -0.073  0.00  0.00    +0.009 A 
ENDBRANCH   5  11
BRANCH  10  17
ATOM     17  N   UNL     1       3.998  -6.756  -0.057  0.00  0.00    -0.293 N 
ATOM     18  H   UNL     1       4.740  -7.439  -0.065  0.00  0.00    +0.163 HD
ATOM     19  H   UNL     1       4.083  -6.120  -0.835  0.00  0.00    +0.163 HD
ENDBRANCH  10  17
BRANCH   1  20
ATOM     20  S   UNL     1       1.777  -4.858  -0.034  0.00  0.00    -0.081 S 
BRANCH  20  21
ATOM     21  C   UNL     1       0.059  -4.275  -0.021  0.00  0.00    +0.112 C 
BRANCH  21  26
ATOM     22  C   UNL     1      -0.018   1.503   0.010  0.00  0.00    +0.044 C 
ATOM     23  C   UNL     1       0.002  -0.004   0.002  0.00  0.00    -0.050 A 
ATOM     24  C   UNL     1       0.006  -0.689  -1.199  0.00  0.00    +0.003 A 
ATOM     25  C   UNL     1       0.025  -2.071  -1.206  0.00  0.00    +0.005 A 
ATOM     26  C   UNL     1       0.040  -2.768  -0.013  0.00  0.00    -0.037 A 
ATOM     27  C   UNL     1       0.037  -2.084   1.188  0.00  0.00    +0.005 A 
ATOM     28  C   UNL     1       0.023  -0.702   1.195  0.00  0.00    +0.003 A 
ENDBRANCH  21  26
ENDBRANCH  20  21
ENDBRANCH   1  20
TORSDOF 5
