REMARK  Name = ZINC15826173
REMARK  9 active torsions:
REMARK  status: ('A' for Active; 'I' for Inactive)
REMARK    1  A    between atoms: C_1  and  C_2
REMARK    2  A    between atoms: C_5  and  C_31
REMARK    3  A    between atoms: C_6  and  N_8
REMARK    4  A    between atoms: C_9  and  C_11
REMARK    5  A    between atoms: C_11  and  C_12
REMARK    6  A    between atoms: C_12  and  S_13
REMARK    7  A    between atoms: S_13  and  C_16
REMARK    8  A    between atoms: C_18  and  C_23
REMARK    9  A    between atoms: C_21  and  C_22
REMARK                            x       y       z     vdW  Elec       q    Type
REMARK                         _______ _______ _______ _____ _____    ______ ____
ROOT
ATOM      1  S   UNL     1       3.391   8.046   0.356  0.00  0.00    -0.002 S 
ATOM      2  O   UNL     1       4.240   8.494  -0.691  0.00  0.00    -0.169 OA
ATOM      3  O   UNL     1       2.045   8.493   0.439  0.00  0.00    -0.169 OA
ENDROOT
BRANCH   1   4
ATOM      4  C   UNL     1       3.271   6.303   0.124  0.00  0.00    +0.092 A 
ATOM      5  C   UNL     1       3.944   5.699  -0.919  0.00  0.00    +0.037 A 
ATOM      6  C   UNL     1       3.844   4.322  -1.105  0.00  0.00    +0.004 A 
ATOM      7  C   UNL     1       3.074   3.560  -0.229  0.00  0.00    +0.010 A 
ATOM      8  C   UNL     1       2.410   4.173   0.814  0.00  0.00    +0.006 A 
ATOM      9  C   UNL     1       2.507   5.542   0.990  0.00  0.00    -0.026 A 
ATOM     10  C   UNL     1       1.780   6.206   2.130  0.00  0.00    +0.046 C 
BRANCH   6  11
ATOM     11  C   UNL     1       4.560   3.668  -2.228  0.00  0.00    +0.091 A 
ATOM     12  C   UNL     1       4.460   2.269  -2.409  0.00  0.00    +0.035 A 
ATOM     13  C   UNL     1       5.132   1.703  -3.451  0.00  0.00    +0.073 A 
ATOM     14  C   UNL     1       5.893   2.551  -4.286  0.00  0.00    +0.265 A 
ATOM     15  O   UNL     1       6.516   2.089  -5.228  0.00  0.00    -0.266 OA
ATOM     16  N   UNL     1       5.923   3.874  -4.037  0.00  0.00    -0.243 N 
ATOM     17  H   UNL     1       6.445   4.451  -4.616  0.00  0.00    +0.192 HD
ATOM     18  N   UNL     1       5.285   4.391  -3.050  0.00  0.00    -0.171 NA
ENDBRANCH   6  11
ENDBRANCH   1   4
BRANCH   1  19
ATOM     19  C   UNL     1       4.216   8.246   1.959  0.00  0.00    +0.181 C 
BRANCH  19  20
ATOM     20  C   UNL     1       4.426   9.735   2.242  0.00  0.00    +0.119 C 
BRANCH  20  22
ATOM     21  N   UNL     1       5.399  11.136   4.033  0.00  0.00    -0.285 N 
ATOM     22  C   UNL     1       5.111   9.902   3.573  0.00  0.00    +0.219 C 
ATOM     23  O   UNL     1       5.404   8.926   4.231  0.00  0.00    -0.275 OA
ATOM     24  H   UNL     1       5.241  11.912   3.473  0.00  0.00    +0.155 HD
BRANCH  21  30
ATOM     25  C   UNL     1       6.172   9.347   8.547  0.00  0.00    +0.044 C 
ATOM     26  C   UNL     1       6.317  10.447   7.526  0.00  0.00    -0.049 A 
ATOM     27  C   UNL     1       6.972  11.618   7.861  0.00  0.00    +0.004 A 
ATOM     28  C   UNL     1       7.106  12.629   6.927  0.00  0.00    +0.005 A 
ATOM     29  C   UNL     1       6.586  12.472   5.657  0.00  0.00    -0.029 A 
ATOM     30  C   UNL     1       5.928  11.298   5.319  0.00  0.00    +0.037 A 
ATOM     31  C   UNL     1       5.790  10.286   6.260  0.00  0.00    +0.027 A 
ATOM     32  C   UNL     1       6.732  13.575   4.641  0.00  0.00    +0.045 C 
ENDBRANCH  21  30
ENDBRANCH  20  22
ENDBRANCH  19  20
ENDBRANCH   1  19
TORSDOF 6
