REMARK  Name = ZINC41603687
REMARK  7 active torsions:
REMARK  status: ('A' for Active; 'I' for Inactive)
REMARK    1  A    between atoms: C_1  and  C_2
REMARK    2  A    between atoms: C_2  and  C_3
REMARK    3  A    between atoms: C_2  and  C_4
REMARK    4  A    between atoms: C_4  and  C_5
REMARK    5  A    between atoms: C_5  and  N_6
REMARK    6  A    between atoms: C_7  and  C_15
REMARK    7  A    between atoms: C_10  and  C_13
REMARK                            x       y       z     vdW  Elec       q    Type
REMARK                         _______ _______ _______ _____ _____    ______ ____
ROOT
ATOM      1  N   UNL     1      -3.159  -1.987  -0.185  0.00  0.00    -0.307 N 
ATOM      2  C   UNL     1      -3.671  -2.740   0.832  0.00  0.00    +0.052 A 
ATOM      3  C   UNL     1      -4.748  -3.579   0.618  0.00  0.00    +0.028 A 
ATOM      4  C   UNL     1      -5.322  -3.662  -0.645  0.00  0.00    +0.026 A 
ATOM      5  C   UNL     1      -4.795  -2.891  -1.682  0.00  0.00    +0.116 A 
ATOM      6  C   UNL     1      -3.693  -2.038  -1.420  0.00  0.00    +0.269 A 
ATOM      7  O   UNL     1      -3.226  -1.355  -2.315  0.00  0.00    -0.266 OA
ENDROOT
BRANCH   2   8
ATOM      8  C   UNL     1      -3.067  -2.658   2.176  0.00  0.00    -0.001 A 
ATOM      9  C   UNL     1      -3.844  -2.272   3.272  0.00  0.00    +0.011 A 
ATOM     10  C   UNL     1      -3.273  -2.196   4.524  0.00  0.00    +0.020 A 
ATOM     11  C   UNL     1      -1.933  -2.502   4.698  0.00  0.00    +0.041 A 
ATOM     12  C   UNL     1      -1.158  -2.885   3.616  0.00  0.00    +0.020 A 
ATOM     13  C   UNL     1      -1.718  -2.970   2.359  0.00  0.00    +0.011 A 
ATOM     14 CL   UNL     1      -1.223  -2.404   6.279  0.00  0.00    -0.084 Cl
ENDBRANCH   2   8
BRANCH   5  15
ATOM     15  C   UNL     1      -5.365  -2.956  -2.994  0.00  0.00    +0.105 C 
ATOM     16  N   UNL     1      -5.817  -3.007  -4.035  0.00  0.00    -0.191 NA
ENDBRANCH   5  15
BRANCH   1  17
ATOM     17  C   UNL     1      -2.017  -1.106   0.072  0.00  0.00    +0.126 C 
BRANCH  17  18
ATOM     18  C   UNL     1      -2.519   0.240   0.598  0.00  0.00    +0.024 C 
BRANCH  18  20
ATOM     19  C   UNL     1      -1.857   2.588   1.135  0.00  0.00    +0.007 C 
ATOM     20  C   UNL     1      -1.339   1.203   0.743  0.00  0.00    -0.016 C 
ATOM     21  C   UNL     1      -0.390   0.688   1.826  0.00  0.00    +0.007 C 
ENDBRANCH  18  20
ENDBRANCH  17  18
ENDBRANCH   1  17
TORSDOF 5
