REMARK  Name = ZINC67388283
REMARK  2 active torsions:
REMARK  status: ('A' for Active; 'I' for Inactive)
REMARK    1  A    between atoms: C_5  and  C_7
REMARK    2  A    between atoms: N_16  and  C_17
REMARK                            x       y       z     vdW  Elec       q    Type
REMARK                         _______ _______ _______ _____ _____    ______ ____
ROOT
ATOM      1  C   UNL     1       1.194  -2.184  -0.038  0.00  0.00    +0.168 C 
ATOM      2  C   UNL     1       1.332  -2.688  -1.480  0.00  0.00    +0.145 C 
ATOM      3  N   UNL     1       1.163  -4.150  -1.478  0.00  0.00    -0.281 N 
ATOM      4  C   UNL     1      -0.013  -4.710  -0.795  0.00  0.00    +0.137 C 
ATOM      5  C   UNL     1      -0.086  -4.107   0.613  0.00  0.00    +0.179 C 
ATOM      6  O   UNL     1      -0.024  -2.682   0.520  0.00  0.00    -0.369 OA
ATOM      7  C   UNL     1       2.059  -4.953  -2.086  0.00  0.00    +0.303 C 
ATOM      8  O   UNL     1       2.975  -4.469  -2.723  0.00  0.00    -0.253 OA
ATOM      9  N   UNL     1       1.941  -6.292  -1.988  0.00  0.00    -0.292 N 
ATOM     10  H   UNL     1       1.178  -6.678  -1.530  0.00  0.00    +0.151 HD
ENDROOT
BRANCH   9  11
ATOM     11  C   UNL     1       2.964  -7.163  -2.571  0.00  0.00    +0.106 C 
ATOM     12  C   UNL     1       2.974  -8.495  -1.826  0.00  0.00    +0.027 C 
ATOM     13  C   UNL     1       3.883  -9.465  -2.591  0.00  0.00    +0.008 C 
ATOM     14  C   UNL     1       3.202  -9.817  -3.911  0.00  0.00    +0.054 C 
ATOM     15  C   UNL     1       2.776  -8.569  -4.641  0.00  0.00    +0.024 A 
ATOM     16  C   UNL     1       2.663  -7.372  -4.032  0.00  0.00    -0.008 A 
ATOM     17  C   UNL     1       2.246  -6.250  -4.775  0.00  0.00    +0.012 A 
ATOM     18  C   UNL     1       1.965  -6.378  -6.100  0.00  0.00    +0.070 A 
ATOM     19  C   UNL     1       2.100  -7.639  -6.705  0.00  0.00    +0.249 A 
ATOM     20  O   UNL     1       1.856  -7.778  -7.894  0.00  0.00    -0.268 OA
ATOM     21  N   UNL     1       2.499  -8.689  -5.973  0.00  0.00    -0.326 N 
ATOM     22  H   UNL     1       2.591  -9.556  -6.400  0.00  0.00    +0.169 HD
ENDBRANCH   9  11
BRANCH   1  27
ATOM     23  C   UNL     1      -0.055   1.379  -0.031  0.00  0.00    +0.001 A 
ATOM     24  C   UNL     1       1.131   2.088  -0.021  0.00  0.00    +0.003 A 
ATOM     25  C   UNL     1       2.339   1.417  -0.017  0.00  0.00    +0.039 A 
ATOM     26  C   UNL     1       2.361   0.032  -0.023  0.00  0.00    +0.129 A 
ATOM     27  C   UNL     1       1.172  -0.677  -0.032  0.00  0.00    +0.018 A 
ATOM     28  C   UNL     1      -0.035  -0.004  -0.036  0.00  0.00    +0.009 A 
ATOM     29  F   UNL     1       3.541  -0.625  -0.019  0.00  0.00    -0.205 F 
ENDBRANCH   1  27
TORSDOF 2
