REMARK  Name = ZINC39920259
REMARK  7 active torsions:
REMARK  status: ('A' for Active; 'I' for Inactive)
REMARK    1  A    between atoms: C_1  and  C_2
REMARK    2  A    between atoms: C_2  and  C_3
REMARK    3  A    between atoms: N_14  and  N_15
REMARK    4  A    between atoms: C_16  and  C_18
REMARK    5  A    between atoms: C_18  and  O_19
REMARK    6  A    between atoms: O_19  and  C_20
REMARK    7  A    between atoms: C_25  and  C_26
REMARK                            x       y       z     vdW  Elec       q    Type
REMARK                         _______ _______ _______ _____ _____    ______ ____
ROOT
ATOM      1  C   UNL     1      -1.433  -0.534   0.013  0.00  0.00    +0.180 C 
ATOM      2  N   UNL     1      -2.106  -0.139  -1.231  0.00  0.00    -0.324 N 
ATOM      3  C   UNL     1      -1.797  -0.826  -2.400  0.00  0.00    +0.041 A 
ATOM      4  C   UNL     1      -1.863  -0.222  -3.643  0.00  0.00    +0.025 A 
ATOM      5  C   UNL     1      -1.542  -0.948  -4.774  0.00  0.00    +0.022 A 
ATOM      6  C   UNL     1      -1.155  -2.276  -4.673  0.00  0.00    +0.042 A 
ATOM      7  C   UNL     1      -1.085  -2.893  -3.440  0.00  0.00    +0.035 A 
ATOM      8  C   UNL     1      -1.408  -2.173  -2.293  0.00  0.00    +0.061 A 
ATOM      9  C   UNL     1      -1.359  -2.785  -0.953  0.00  0.00    +0.266 C 
ATOM     10  O   UNL     1      -1.273  -3.992  -0.831  0.00  0.00    -0.268 OA
ATOM     11  N   UNL     1      -1.411  -1.991   0.133  0.00  0.00    -0.196 N 
ATOM     12 CL   UNL     1      -0.754  -3.169  -6.107  0.00  0.00    -0.084 Cl
ATOM     13  H   UNL     1      -2.752   0.585  -1.237  0.00  0.00    +0.148 HD
ENDROOT
BRANCH  11  14
ATOM     14  N   UNL     1      -1.442  -2.577   1.405  0.00  0.00    -0.227 N 
ATOM     15  C   UNL     1      -2.575  -3.153   1.854  0.00  0.00    +0.267 C 
ATOM     16  O   UNL     1      -3.567  -3.165   1.156  0.00  0.00    -0.271 OA
ATOM     17  H   UNL     1      -0.649  -2.567   1.964  0.00  0.00    +0.173 HD
BRANCH  15  18
ATOM     18  C   UNL     1      -2.609  -3.783   3.223  0.00  0.00    +0.326 C 
BRANCH  18  19
ATOM     19  O   UNL     1      -3.909  -4.322   3.467  0.00  0.00    -0.482 OA
BRANCH  19  20
ATOM     20  C   UNL     1      -4.110  -4.931   4.666  0.00  0.00    +0.124 A 
ATOM     21  C   UNL     1      -3.078  -5.002   5.590  0.00  0.00    +0.046 A 
ATOM     22  C   UNL     1      -3.285  -5.620   6.808  0.00  0.00    +0.004 A 
ATOM     23  C   UNL     1      -4.519  -6.168   7.106  0.00  0.00    +0.000 A 
ATOM     24  C   UNL     1      -5.549  -6.099   6.186  0.00  0.00    +0.007 A 
ATOM     25  C   UNL     1      -5.349  -5.476   4.969  0.00  0.00    -0.009 A 
ATOM     26  C   UNL     1      -6.474  -5.396   3.969  0.00  0.00    +0.047 C 
ENDBRANCH  19  20
ENDBRANCH  18  19
ENDBRANCH  15  18
ENDBRANCH  11  14
BRANCH   1  28
ATOM     27  C   UNL     1      -0.019   1.526   0.010  0.00  0.00    +0.007 C 
ATOM     28  C   UNL     1       0.002  -0.004   0.002  0.00  0.00    +0.040 C 
ENDBRANCH   1  28
TORSDOF 5
