REMARK  Name = ZINC16880977
REMARK  9 active torsions:
REMARK  status: ('A' for Active; 'I' for Inactive)
REMARK    1  A    between atoms: C_1  and  C_2
REMARK    2  A    between atoms: C_5  and  C_9
REMARK    3  A    between atoms: C_6  and  C_8
REMARK    4  A    between atoms: C_9  and  N_10
REMARK    5  A    between atoms: C_13  and  C_19
REMARK    6  A    between atoms: C_14  and  O_18
REMARK    7  A    between atoms: C_19  and  C_20
REMARK    8  A    between atoms: C_20  and  C_21
REMARK    9  A    between atoms: C_20  and  C_22
REMARK                            x       y       z     vdW  Elec       q    Type
REMARK                         _______ _______ _______ _____ _____    ______ ____
ROOT
ATOM      1  N   UNL     1      -1.135   3.228   2.925  0.00  0.00    -0.276 N 
ATOM      2  C   UNL     1      -0.502   2.809   1.809  0.00  0.00    +0.262 A 
ATOM      3  O   UNL     1       0.312   3.527   1.251  0.00  0.00    -0.267 OA
ATOM      4  C   UNL     1      -0.799   1.540   1.299  0.00  0.00    +0.079 A 
ATOM      5  C   UNL     1      -1.725   0.755   1.966  0.00  0.00    +0.224 A 
ATOM      6  N   UNL     1      -2.317   1.220   3.070  0.00  0.00    -0.181 NA
ATOM      7  C   UNL     1      -2.037   2.417   3.542  0.00  0.00    +0.199 A 
ATOM      8  N   UNL     1      -2.666   2.854   4.677  0.00  0.00    -0.329 N 
ATOM      9  H   UNL     1      -3.310   2.284   5.125  0.00  0.00    +0.145 HD
ATOM     10  H   UNL     1      -2.467   3.735   5.033  0.00  0.00    +0.145 HD
ENDROOT
BRANCH   5  11
ATOM     11  O   UNL     1      -2.029  -0.479   1.501  0.00  0.00    -0.492 OA
ATOM     12  H   UNL     1      -2.685  -0.950   2.033  0.00  0.00    +0.294 HD
ENDBRANCH   5  11
BRANCH   1  13
ATOM     13  C   UNL     1      -0.847   4.554   3.476  0.00  0.00    +0.163 C 
BRANCH  13  18
ATOM     14  C   UNL     1       3.166   4.091   7.609  0.00  0.00    +0.044 C 
ATOM     15  C   UNL     1       2.120   4.212   6.531  0.00  0.00    -0.050 A 
ATOM     16  C   UNL     1       1.772   3.106   5.778  0.00  0.00    +0.004 A 
ATOM     17  C   UNL     1       0.809   3.215   4.792  0.00  0.00    +0.006 A 
ATOM     18  C   UNL     1       0.200   4.433   4.553  0.00  0.00    -0.025 A 
ATOM     19  C   UNL     1       0.547   5.539   5.307  0.00  0.00    -0.045 A 
ATOM     20  C   UNL     1       1.507   5.428   6.295  0.00  0.00    +0.007 A 
ATOM     21  C   UNL     1      -0.121   6.865   5.050  0.00  0.00    +0.044 C 
ENDBRANCH  13  18
ENDBRANCH   1  13
BRANCH   4  22
ATOM     22  C   UNL     1      -0.120   1.034   0.053  0.00  0.00    +0.049 C 
BRANCH  22  23
ATOM     23  C   UNL     1      -0.879   1.532  -1.179  0.00  0.00    -0.013 C 
ATOM     24  C   UNL     1      -0.121   1.124  -2.444  0.00  0.00    +0.007 C 
ATOM     25  C   UNL     1      -2.278   0.913  -1.201  0.00  0.00    +0.007 C 
ENDBRANCH  22  23
ENDBRANCH   4  22
TORSDOF 5
