REMARK  Name = ZINC21247550
REMARK  9 active torsions:
REMARK  status: ('A' for Active; 'I' for Inactive)
REMARK    1  A    between atoms: C_1  and  C_2
REMARK    2  A    between atoms: C_2  and  C_3
REMARK    3  A    between atoms: C_3  and  C_4
REMARK    4  A    between atoms: C_4  and  O_5
REMARK    5  A    between atoms: O_5  and  C_6
REMARK    6  A    between atoms: C_11  and  C_12
REMARK    7  A    between atoms: C_23  and  C_26
REMARK    8  A    between atoms: C_29  and  C_32
REMARK    9  A    between atoms: C_32  and  C_33
REMARK                            x       y       z     vdW  Elec       q    Type
REMARK                         _______ _______ _______ _____ _____    ______ ____
ROOT
ATOM      1  C   UNL     1       3.647  -2.459   9.324  0.00  0.00    +0.066 C 
ATOM      2  C   UNL     1       4.222  -3.841   9.010  0.00  0.00    +0.109 C 
ATOM      3  C   UNL     1       4.974  -3.779   7.706  0.00  0.00    +0.218 C 
ATOM      4  O   UNL     1       5.961  -4.464   7.543  0.00  0.00    -0.275 OA
ATOM      5  N   UNL     1       4.553  -2.964   6.722  0.00  0.00    -0.289 N 
ATOM      6  C   UNL     1       3.426  -2.197   6.870  0.00  0.00    +0.018 C 
ATOM      7  C   UNL     1       2.945  -1.919   8.100  0.00  0.00    +0.020 C 
ATOM      8  C   UNL     1       1.796  -1.128   8.275  0.00  0.00    +0.162 C 
ATOM      9  O   UNL     1       1.385  -0.911   9.397  0.00  0.00    -0.292 OA
ATOM     10  C   UNL     1       1.068  -0.546   7.093  0.00  0.00    +0.088 C 
ATOM     11  C   UNL     1       2.066  -0.335   5.949  0.00  0.00    +0.032 C 
ATOM     12  C   UNL     1       2.738  -1.673   5.634  0.00  0.00    +0.059 C 
ATOM     13  H   UNL     1       5.115  -2.905   5.779  0.00  0.00    +0.155 HD
ENDROOT
BRANCH   1  19
ATOM     14  C   UNL     1       4.762  -0.929  10.967  0.00  0.00    +0.124 A 
ATOM     15  C   UNL     1       5.793  -0.071  11.325  0.00  0.00    +0.046 A 
ATOM     16  C   UNL     1       6.817   0.185  10.434  0.00  0.00    +0.004 A 
ATOM     17  C   UNL     1       6.816  -0.412   9.187  0.00  0.00    +0.001 A 
ATOM     18  C   UNL     1       5.794  -1.271   8.830  0.00  0.00    +0.008 A 
ATOM     19  C   UNL     1       4.764  -1.527   9.715  0.00  0.00    +0.002 A 
BRANCH  14  20
ATOM     20  O   UNL     1       3.753  -1.183  11.841  0.00  0.00    -0.492 OA
BRANCH  20  21
ATOM     21  C   UNL     1       3.817  -0.532  13.112  0.00  0.00    +0.229 C 
BRANCH  21  22
ATOM     22  C   UNL     1       2.605  -0.937  13.954  0.00  0.00    +0.041 C 
BRANCH  22  24
ATOM     23  C   UNL     1       1.461  -0.645  16.155  0.00  0.00    +0.004 C 
ATOM     24  C   UNL     1       2.673  -0.240  15.314  0.00  0.00    -0.000 C 
ENDBRANCH  22  24
ENDBRANCH  21  22
ENDBRANCH  20  21
ENDBRANCH  14  20
ENDBRANCH   1  19
BRANCH  11  25
ATOM     25  C   UNL     1       1.337   0.165   4.728  0.00  0.00    -0.043 A 
ATOM     26  C   UNL     1       1.681   1.380   4.166  0.00  0.00    +0.004 A 
ATOM     27  C   UNL     1       1.012   1.838   3.046  0.00  0.00    +0.004 A 
ATOM     28  C   UNL     1       0.000   1.080   2.488  0.00  0.00    -0.048 A 
ATOM     29  C   UNL     1      -0.347  -0.133   3.052  0.00  0.00    +0.004 A 
ATOM     30  C   UNL     1       0.324  -0.593   4.170  0.00  0.00    +0.004 A 
BRANCH  28  31
ATOM     31  C   UNL     1      -0.729   1.579   1.267  0.00  0.00    +0.032 C 
ATOM     32  C   UNL     1      -0.013   1.086   0.008  0.00  0.00    +0.009 C 
ENDBRANCH  28  31
ENDBRANCH  11  25
TORSDOF 7
