REMARK  Name = ZINC07263640
REMARK  11 active torsions:
REMARK  status: ('A' for Active; 'I' for Inactive)
REMARK    1  A    between atoms: C_1  and  C_2
REMARK    2  A    between atoms: C_2  and  N_59
REMARK    3  A    between atoms: C_3  and  C_4
REMARK    4  A    between atoms: C_3  and  N_59
REMARK    5  A    between atoms: C_5  and  C_6
REMARK    6  A    between atoms: C_5  and  N_59
REMARK    7  A    between atoms: C_6  and  N_7
REMARK    8  A    between atoms: C_8  and  C_25
REMARK    9  A    between atoms: C_15  and  C_24
REMARK   10  A    between atoms: C_16  and  C_23
REMARK   11  A    between atoms: C_28  and  O_31
REMARK                            x       y       z     vdW  Elec       q    Type
REMARK                         _______ _______ _______ _____ _____    ______ ____
ROOT
ATOM      1  N   UNL     1      -2.223  -1.565   0.664  0.00  0.00    -0.285 N 
ATOM      2  C   UNL     1      -2.649  -2.463  -0.416  0.00  0.00    +0.144 C 
ATOM      3  C   UNL     1      -2.855  -3.812   0.224  0.00  0.00    +0.072 A 
ATOM      4  C   UNL     1      -3.272  -5.111  -0.312  0.00  0.00    +0.199 A 
ATOM      5  O   UNL     1      -3.528  -5.264  -1.493  0.00  0.00    -0.287 OA
ATOM      6  C   UNL     1      -3.368  -6.225   0.652  0.00  0.00    +0.065 A 
ATOM      7  C   UNL     1      -3.757  -7.502   0.252  0.00  0.00    +0.019 A 
ATOM      8  C   UNL     1      -3.833  -8.507   1.177  0.00  0.00    -0.047 A 
ATOM      9  C   UNL     1      -3.526  -8.259   2.507  0.00  0.00    -0.044 A 
ATOM     10  C   UNL     1      -3.140  -7.003   2.921  0.00  0.00    +0.050 A 
ATOM     11  C   UNL     1      -3.055  -5.965   1.998  0.00  0.00    +0.140 A 
ATOM     12  O   UNL     1      -2.681  -4.732   2.385  0.00  0.00    -0.450 OA
ATOM     13  C   UNL     1      -2.579  -3.684   1.544  0.00  0.00    +0.199 A 
ATOM     14  C   UNL     1      -2.186  -2.276   1.804  0.00  0.00    +0.283 C 
ATOM     15  O   UNL     1      -1.876  -1.831   2.891  0.00  0.00    -0.267 OA
ATOM     16  C   UNL     1      -3.615  -9.379   3.512  0.00  0.00    +0.044 C 
ATOM     17  C   UNL     1      -4.253  -9.889   0.749  0.00  0.00    +0.044 C 
ENDROOT
BRANCH   2  18
ATOM     18  C   UNL     1      -1.578  -2.551  -1.472  0.00  0.00    -0.022 A 
ATOM     19  C   UNL     1      -0.246  -2.603  -1.101  0.00  0.00    +0.009 A 
ATOM     20  C   UNL     1       0.738  -2.688  -2.067  0.00  0.00    +0.046 A 
ATOM     21  C   UNL     1       0.390  -2.712  -3.410  0.00  0.00    +0.117 A 
ATOM     22  C   UNL     1      -0.947  -2.654  -3.779  0.00  0.00    +0.046 A 
ATOM     23  C   UNL     1      -1.927  -2.574  -2.809  0.00  0.00    +0.009 A 
BRANCH  21  24
ATOM     24  O   UNL     1       1.356  -2.791  -4.362  0.00  0.00    -0.507 OA
ATOM     25  H   UNL     1       1.681  -1.932  -4.665  0.00  0.00    +0.292 HD
ENDBRANCH  21  24
ENDBRANCH   2  18
BRANCH   1  26
ATOM     26  C   UNL     1      -1.900  -0.143   0.525  0.00  0.00    +0.090 C 
BRANCH  26  27
ATOM     27  C   UNL     1      -0.409   0.015   0.221  0.00  0.00    -0.060 C 
BRANCH  27  28
ATOM     28  N   UNL     1      -0.096   1.455   0.104  0.00  0.00    +0.380 N 
ATOM     29  H   UNL     1      -0.452   1.942   0.935  0.00  0.00    -0.082 HD
BRANCH  28  31
ATOM     30  C   UNL     1       1.958   1.499   1.428  0.00  0.00    -0.017 C 
ATOM     31  C   UNL     1       1.367   1.648   0.025  0.00  0.00    -0.082 C 
ENDBRANCH  28  31
BRANCH  28  32
ATOM     32  C   UNL     1      -0.746   2.017  -1.098  0.00  0.00    -0.082 C 
ATOM     33  C   UNL     1      -0.725   3.544  -0.999  0.00  0.00    -0.017 C 
ENDBRANCH  28  32
ENDBRANCH  27  28
ENDBRANCH  26  27
ENDBRANCH   1  26
TORSDOF 7
