REMARK  Name = ZINC67469996
REMARK  5 active torsions:
REMARK  status: ('A' for Active; 'I' for Inactive)
REMARK    1  A    between atoms: C_8  and  O_27
REMARK    2  A    between atoms: C_10  and  N_12
REMARK    3  A    between atoms: N_15  and  C_16
REMARK    4  A    between atoms: C_16  and  C_17
REMARK    5  A    between atoms: C_17  and  C_20
REMARK                            x       y       z     vdW  Elec       q    Type
REMARK                         _______ _______ _______ _____ _____    ______ ____
ROOT
ATOM      1  N   UNL     1       4.188  -1.866   1.716  0.00  0.00    -0.290 N 
ATOM      2  C   UNL     1       5.037  -0.842   1.935  0.00  0.00    +0.300 C 
ATOM      3  O   UNL     1       5.294  -0.063   1.037  0.00  0.00    -0.253 OA
ATOM      4  N   UNL     1       5.601  -0.682   3.148  0.00  0.00    -0.299 N 
ATOM      5  H   UNL     1       3.983  -2.487   2.432  0.00  0.00    +0.151 HD
ATOM      6  H   UNL     1       5.396  -1.303   3.864  0.00  0.00    +0.150 HD
ENDROOT
BRANCH   1  15
ATOM      7  C   UNL     1      -0.234  -0.132   0.178  0.00  0.00    +0.000 A 
ATOM      8  C   UNL     1       0.870   0.682   0.013  0.00  0.00    +0.000 A 
ATOM      9  C   UNL     1       2.140   0.142   0.070  0.00  0.00    +0.006 A 
ATOM     10  C   UNL     1       2.310  -1.215   0.292  0.00  0.00    -0.021 A 
ATOM     11  C   UNL     1       1.206  -2.029   0.458  0.00  0.00    -0.040 A 
ATOM     12  C   UNL     1      -0.066  -1.485   0.400  0.00  0.00    +0.004 A 
ATOM     13  C   UNL     1       1.653  -3.457   0.685  0.00  0.00    +0.069 C 
ATOM     14  C   UNL     1       3.120  -3.502   0.207  0.00  0.00    +0.143 C 
ATOM     15  C   UNL     1       3.575  -2.040   0.397  0.00  0.00    +0.134 C 
BRANCH  14  16
ATOM     16  O   UNL     1       3.195  -3.888  -1.167  0.00  0.00    -0.389 OA
ATOM     17  H   UNL     1       2.841  -4.769  -1.349  0.00  0.00    +0.210 HD
ENDBRANCH  14  16
ENDBRANCH   1  15
BRANCH   4  18
ATOM     18  C   UNL     1       6.524   0.431   3.386  0.00  0.00    +0.117 C 
BRANCH  18  19
ATOM     19  C   UNL     1       6.998   0.399   4.840  0.00  0.00    +0.011 C 
ATOM     20  C   UNL     1       8.495   0.581   5.100  0.00  0.00    +0.014 C 
ATOM     21  C   UNL     1       7.848  -0.795   5.280  0.00  0.00    +0.014 C 
BRANCH  19  22
ATOM     22  C   UNL     1       6.041   0.980   5.849  0.00  0.00    -0.040 A 
ATOM     23  C   UNL     1       5.743   2.330   5.821  0.00  0.00    +0.005 A 
ATOM     24  C   UNL     1       4.866   2.864   6.746  0.00  0.00    +0.020 A 
ATOM     25  C   UNL     1       4.285   2.047   7.699  0.00  0.00    +0.041 A 
ATOM     26  C   UNL     1       4.582   0.696   7.726  0.00  0.00    +0.020 A 
ATOM     27  C   UNL     1       5.456   0.162   6.798  0.00  0.00    +0.005 A 
ATOM     28 CL   UNL     1       3.183   2.716   8.861  0.00  0.00    -0.084 Cl
ENDBRANCH  19  22
ENDBRANCH  18  19
ENDBRANCH   4  18
TORSDOF 5
