REMARK  Name = ZINC13995339
REMARK  10 active torsions:
REMARK  status: ('A' for Active; 'I' for Inactive)
REMARK    1  A    between atoms: C_1  and  C_2
REMARK    2  A    between atoms: C_6  and  N_8
REMARK    3  A    between atoms: C_13  and  C_34
REMARK    4  A    between atoms: C_16  and  C_22
REMARK    5  A    between atoms: C_19  and  C_21
REMARK    6  A    between atoms: C_25  and  O_30
REMARK    7  A    between atoms: C_26  and  O_28
REMARK    8  A    between atoms: O_28  and  C_29
REMARK    9  A    between atoms: O_30  and  C_31
REMARK   10  A    between atoms: C_31  and  C_32
REMARK                            x       y       z     vdW  Elec       q    Type
REMARK                         _______ _______ _______ _____ _____    ______ ____
ROOT
ATOM      1  N   UNL     1      -0.123  -2.488   2.397  0.00  0.00    -0.206 N 
ATOM      2  C   UNL     1       0.125  -3.851   2.503  0.00  0.00    +0.141 C 
ATOM      3  N   UNL     1       0.255  -4.603   1.439  0.00  0.00    -0.163 NA
ATOM      4  C   UNL     1       0.483  -5.841   1.198  0.00  0.00    +0.251 C 
ATOM      5  O   UNL     1       0.589  -6.125   0.020  0.00  0.00    -0.272 OA
ATOM      6  C   UNL     1       0.638  -6.976   2.131  0.00  0.00    +0.132 C 
ATOM      7  S   UNL     1       1.523  -6.540   3.634  0.00  0.00    -0.135 S 
ATOM      8  C   UNL     1       0.425  -5.458   4.556  0.00  0.00    +0.112 C 
ATOM      9  C   UNL     1       0.192  -4.145   3.871  0.00  0.00    +0.027 C 
ATOM     10  C   UNL     1      -0.002  -2.988   4.566  0.00  0.00    +0.027 C 
ATOM     11  N   UNL     1      -0.187  -1.966   3.691  0.00  0.00    -0.262 N 
ATOM     12  C   UNL     1      -0.002  -2.861   6.068  0.00  0.00    +0.062 C 
ATOM     13  C   UNL     1      -0.750  -7.492   2.513  0.00  0.00    +0.029 C 
ATOM     14  H   UNL     1      -0.340  -1.037   3.923  0.00  0.00    +0.170 HD
ENDROOT
BRANCH   1  20
ATOM     15  C   UNL     1      -2.157  -2.056  -2.057  0.00  0.00    +0.044 C 
ATOM     16  C   UNL     1      -1.256  -1.534  -0.967  0.00  0.00    -0.049 A 
ATOM     17  C   UNL     1      -0.579  -0.341  -1.143  0.00  0.00    +0.003 A 
ATOM     18  C   UNL     1       0.249   0.141  -0.145  0.00  0.00    +0.002 A 
ATOM     19  C   UNL     1       0.402  -0.569   1.030  0.00  0.00    +0.025 A 
ATOM     20  C   UNL     1      -0.276  -1.767   1.209  0.00  0.00    +0.055 A 
ATOM     21  C   UNL     1      -1.111  -2.246   0.207  0.00  0.00    +0.028 A 
ENDBRANCH   1  20
BRANCH   8  22
ATOM     22  C   UNL     1       1.028  -5.195   5.912  0.00  0.00    -0.026 A 
ATOM     23  C   UNL     1       0.362  -5.604   7.053  0.00  0.00    +0.009 A 
ATOM     24  C   UNL     1       0.911  -5.365   8.300  0.00  0.00    +0.050 A 
ATOM     25  C   UNL     1       2.131  -4.716   8.407  0.00  0.00    +0.163 A 
ATOM     26  C   UNL     1       2.800  -4.305   7.259  0.00  0.00    +0.162 A 
ATOM     27  C   UNL     1       2.247  -4.552   6.012  0.00  0.00    +0.054 A 
BRANCH  26  28
ATOM     28  O   UNL     1       3.997  -3.668   7.359  0.00  0.00    -0.491 OA
ATOM     29  C   UNL     1       4.628  -3.275   6.138  0.00  0.00    +0.277 C 
ENDBRANCH  26  28
BRANCH  25  30
ATOM     30  O   UNL     1       2.671  -4.480   9.633  0.00  0.00    -0.476 OA
BRANCH  30  31
ATOM     31  C   UNL     1       1.928  -4.929  10.767  0.00  0.00    +0.317 C 
BRANCH  31  32
ATOM     32  C   UNL     1       2.660  -4.591  11.999  0.00  0.00    -0.065 C 
ATOM     33  C   UNL     1       3.244  -4.321  12.981  0.00  0.00    +0.007 C 
ENDBRANCH  31  32
ENDBRANCH  30  31
ENDBRANCH  25  30
ENDBRANCH   8  22
TORSDOF 6
