REMARK  Name = ZINC35665624
REMARK  7 active torsions:
REMARK  status: ('A' for Active; 'I' for Inactive)
REMARK    1  A    between atoms: C_1  and  C_2
REMARK    2  A    between atoms: C_2  and  C_3
REMARK    3  A    between atoms: C_2  and  C_4
REMARK    4  A    between atoms: C_4  and  C_5
REMARK    5  A    between atoms: N_9  and  C_24
REMARK    6  A    between atoms: C_17  and  C_19
REMARK    7  A    between atoms: C_24  and  C_25
REMARK                            x       y       z     vdW  Elec       q    Type
REMARK                         _______ _______ _______ _____ _____    ______ ____
ROOT
ATOM      1  C   UNL     1       0.510  -2.092   1.784  0.00  0.00    +0.019 C 
ATOM      2  C   UNL     1      -0.880  -2.141   1.186  0.00  0.00    +0.201 C 
ATOM      3  O   UNL     1      -1.377  -1.290   0.479  0.00  0.00    -0.277 OA
ATOM      4  N   UNL     1      -1.472  -3.290   1.571  0.00  0.00    -0.306 N 
ATOM      5  C   UNL     1      -0.549  -4.057   2.413  0.00  0.00    +0.007 C 
ATOM      6  N   UNL     1       0.496  -3.110   2.862  0.00  0.00    +0.401 N 
ATOM      7  C   UNL     1       0.091  -5.184   1.605  0.00  0.00    +0.025 C 
ATOM      8  C   UNL     1      -1.001  -6.138   1.110  0.00  0.00    +0.108 C 
ATOM      9  N   UNL     1      -1.795  -6.585   2.263  0.00  0.00    -0.301 N 
ATOM     10  C   UNL     1      -2.391  -5.574   3.147  0.00  0.00    +0.108 C 
ATOM     11  C   UNL     1      -1.287  -4.625   3.624  0.00  0.00    +0.025 C 
ATOM     12  C   UNL     1      -1.974  -7.899   2.505  0.00  0.00    +0.219 C 
ATOM     13  O   UNL     1      -2.708  -8.256   3.402  0.00  0.00    -0.275 OA
ATOM     14  H   UNL     1       1.391  -3.571   2.929  0.00  0.00    -0.082 HD
ATOM     15  H   UNL     1       0.242  -2.691   3.744  0.00  0.00    -0.082 HD
ENDROOT
BRANCH  12  16
ATOM     16  C   UNL     1      -1.262  -8.924   1.660  0.00  0.00    +0.075 C 
ATOM     17  C   UNL     1      -2.048  -9.172   0.356  0.00  0.00    +0.013 C 
ATOM     18  C   UNL     1      -1.884 -10.691   0.097  0.00  0.00    +0.001 C 
ATOM     19  C   UNL     1      -1.958 -11.291   1.523  0.00  0.00    +0.001 C 
ATOM     20  C   UNL     1      -1.205 -10.271   2.402  0.00  0.00    +0.013 C 
ENDBRANCH  12  16
BRANCH   1  21
ATOM     21  C   UNL     1       0.792  -0.705   2.364  0.00  0.00    -0.004 C 
BRANCH  21  23
ATOM     22  C   UNL     1       3.212  -0.774   1.749  0.00  0.00    +0.007 C 
ATOM     23  C   UNL     1       2.221  -0.661   2.909  0.00  0.00    -0.018 C 
ATOM     24  C   UNL     1       2.446   0.661   3.645  0.00  0.00    +0.007 C 
ENDBRANCH  21  23
ENDBRANCH   1  21
BRANCH   4  25
ATOM     25  C   UNL     1      -2.827  -3.708   1.204  0.00  0.00    +0.180 C 
BRANCH  25  26
ATOM     26  C   UNL     1      -3.817  -3.104   2.168  0.00  0.00    +0.122 A 
ATOM     27  C   UNL     1      -4.509  -1.968   1.976  0.00  0.00    +0.046 A 
ATOM     28  C   UNL     1      -5.313  -1.778   3.123  0.00  0.00    +0.041 A 
ATOM     29  C   UNL     1      -5.063  -2.811   3.948  0.00  0.00    +0.195 A 
ATOM     30  O   UNL     1      -4.160  -3.614   3.362  0.00  0.00    -0.466 OA
ENDBRANCH  25  26
ENDBRANCH   4  25
TORSDOF 5
