REMARK  Name = ZINC09279752
REMARK  17 active torsions:
REMARK  status: ('A' for Active; 'I' for Inactive)
REMARK    1  A    between atoms: C_1  and  C_2
REMARK    2  A    between atoms: C_2  and  O_3
REMARK    3  A    between atoms: O_3  and  C_4
REMARK    4  A    between atoms: C_6  and  C_16
REMARK    5  A    between atoms: C_8  and  O_13
REMARK    6  A    between atoms: C_9  and  O_10
REMARK    7  A    between atoms: O_10  and  C_11
REMARK    8  A    between atoms: C_11  and  C_12
REMARK    9  A    between atoms: O_13  and  C_14
REMARK   10  A    between atoms: C_14  and  C_15
REMARK   11  A    between atoms: C_16  and  N_18
REMARK   12  A    between atoms: N_20  and  C_32
REMARK   13  A    between atoms: C_24  and  S_28
REMARK   14  A    between atoms: S_28  and  C_31
REMARK   15  A    between atoms: C_32  and  C_33
REMARK   16  A    between atoms: C_33  and  O_34
REMARK   17  A    between atoms: O_34  and  C_35
REMARK                            x       y       z     vdW  Elec       q    Type
REMARK                         _______ _______ _______ _____ _____    ______ ____
ROOT
ATOM      1  N   UNL     1      -1.268   2.679  -0.695  0.00  0.00    -0.152 NA
ATOM      2  C   UNL     1      -2.509   2.352  -0.353  0.00  0.00    +0.167 A 
ATOM      3  N   UNL     1      -3.601   3.159  -0.265  0.00  0.00    -0.319 N 
ATOM      4  C   UNL     1      -4.823   2.633   0.111  0.00  0.00    +0.058 A 
ATOM      5  C   UNL     1      -6.050   3.299   0.255  0.00  0.00    +0.029 A 
ATOM      6  C   UNL     1      -7.179   2.617   0.642  0.00  0.00    +0.029 A 
ATOM      7  C   UNL     1      -7.143   1.256   0.898  0.00  0.00    +0.089 A 
ATOM      8  C   UNL     1      -5.947   0.574   0.762  0.00  0.00    +0.044 A 
ATOM      9  C   UNL     1      -4.817   1.256   0.377  0.00  0.00    +0.041 A 
ATOM     10  S   UNL     1      -3.130   0.791   0.082  0.00  0.00    -0.052 S 
ENDROOT
BRANCH   7  11
ATOM     11  S   UNL     1      -8.604   0.403   1.390  0.00  0.00    -0.006 S 
ATOM     12  O   UNL     1      -9.672   1.171   0.852  0.00  0.00    -0.170 OA
ATOM     13  O   UNL     1      -8.397  -0.940   0.976  0.00  0.00    -0.170 OA
ATOM     14  C   UNL     1      -8.615   0.503   3.201  0.00  0.00    +0.200 C 
ENDBRANCH   7  11
BRANCH   1  15
ATOM     15  C   UNL     1      -0.345   1.724  -0.857  0.00  0.00    +0.270 C 
ATOM     16  O   UNL     1      -0.663   0.550  -0.777  0.00  0.00    -0.268 OA
BRANCH  15  19
ATOM     17  C   UNL     1       3.358   1.453  -1.446  0.00  0.00    +0.166 A 
ATOM     18  C   UNL     1       2.046   1.106  -1.182  0.00  0.00    +0.062 A 
ATOM     19  C   UNL     1       1.059   2.093  -1.138  0.00  0.00    +0.046 A 
ATOM     20  C   UNL     1       1.399   3.427  -1.366  0.00  0.00    +0.062 A 
ATOM     21  C   UNL     1       2.713   3.771  -1.625  0.00  0.00    +0.166 A 
ATOM     22  C   UNL     1       3.696   2.785  -1.668  0.00  0.00    +0.204 A 
BRANCH  17  23
ATOM     23  O   UNL     1       4.319   0.492  -1.489  0.00  0.00    -0.488 OA
BRANCH  23  25
ATOM     24  C   UNL     1       5.113  -1.786  -1.340  0.00  0.00    +0.048 C 
ATOM     25  C   UNL     1       3.902  -0.854  -1.252  0.00  0.00    +0.226 C 
ENDBRANCH  23  25
ENDBRANCH  17  23
BRANCH  22  26
ATOM     26  O   UNL     1       4.986   3.124  -1.929  0.00  0.00    -0.485 OA
BRANCH  26  27
ATOM     27  C   UNL     1       5.391   3.131  -3.299  0.00  0.00    +0.226 C 
ATOM     28  C   UNL     1       6.864   3.534  -3.393  0.00  0.00    +0.048 C 
ENDBRANCH  26  27
ENDBRANCH  22  26
BRANCH  21  29
ATOM     29  O   UNL     1       3.046   5.071  -1.843  0.00  0.00    -0.488 OA
BRANCH  29  30
ATOM     30  C   UNL     1       2.014   6.044  -1.662  0.00  0.00    +0.226 C 
ATOM     31  C   UNL     1       2.597   7.446  -1.846  0.00  0.00    +0.048 C 
ENDBRANCH  29  30
ENDBRANCH  21  29
ENDBRANCH  15  19
ENDBRANCH   1  15
BRANCH   3  32
ATOM     32  C   UNL     1      -3.481   4.587  -0.569  0.00  0.00    +0.152 C 
BRANCH  32  33
ATOM     33  C   UNL     1      -2.143   5.110  -0.043  0.00  0.00    +0.181 C 
BRANCH  33  34
ATOM     34  O   UNL     1      -2.088   6.528  -0.206  0.00  0.00    -0.381 OA
ATOM     35  C   UNL     1      -0.829   7.106   0.145  0.00  0.00    +0.194 C 
ENDBRANCH  33  34
ENDBRANCH  32  33
ENDBRANCH   3  32
TORSDOF 12
