REMARK  Name = ZINC21200561
REMARK  11 active torsions:
REMARK  status: ('A' for Active; 'I' for Inactive)
REMARK    1  A    between atoms: C_1  and  C_2
REMARK    2  A    between atoms: C_4  and  C_28
REMARK    3  A    between atoms: C_6  and  O_8
REMARK    4  A    between atoms: O_8  and  C_9
REMARK    5  A    between atoms: C_9  and  C_10
REMARK    6  A    between atoms: N_12  and  N_13
REMARK    7  A    between atoms: C_14  and  C_16
REMARK    8  A    between atoms: C_18  and  N_25
REMARK    9  A    between atoms: C_21  and  N_22
REMARK   10  A    between atoms: N_22  and  C_23
REMARK   11  A    between atoms: N_22  and  C_24
REMARK                            x       y       z     vdW  Elec       q    Type
REMARK                         _______ _______ _______ _____ _____    ______ ____
ROOT
ATOM      1  N   UNL     1       6.288   6.013  -0.028  0.00  0.00    -0.230 N 
ATOM      2  C   UNL     1       6.448   7.351  -0.023  0.00  0.00    +0.262 C 
ATOM      3  O   UNL     1       5.474   8.080  -0.010  0.00  0.00    -0.269 OA
ATOM      4  H   UNL     1       7.169   5.354  -0.040  0.00  0.00    +0.173 HD
ENDROOT
BRANCH   2   5
ATOM      5  C   UNL     1       7.803   7.932  -0.033  0.00  0.00    +0.061 A 
ATOM      6  C   UNL     1       8.925   7.099  -0.043  0.00  0.00    +0.047 A 
ATOM      7  C   UNL     1      10.188   7.648  -0.057  0.00  0.00    +0.127 A 
ATOM      8  C   UNL     1      10.354   9.024  -0.052  0.00  0.00    +0.034 A 
ATOM      9  C   UNL     1       9.257   9.860  -0.037  0.00  0.00    +0.026 A 
ATOM     10  C   UNL     1       7.974   9.325  -0.028  0.00  0.00    +0.042 A 
BRANCH  10  11
ATOM     11  N   UNL     1       6.868  10.164  -0.014  0.00  0.00    -0.335 N 
ATOM     12  C   UNL     1       6.874  11.023   1.178  0.00  0.00    +0.129 C 
ATOM     13  C   UNL     1       6.802  10.968  -1.242  0.00  0.00    +0.129 C 
ENDBRANCH  10  11
BRANCH   7  14
ATOM     14  N   UNL     1      11.375   6.763  -0.073  0.00  0.00    +0.056 N 
ATOM     15  O   UNL     1      12.494   7.245  -0.081  0.00  0.00    -0.126 OA
ATOM     16  O   UNL     1      11.233   5.553  -0.077  0.00  0.00    -0.126 OA
ENDBRANCH   7  14
ENDBRANCH   2   5
BRANCH   1  19
ATOM     17  C   UNL     1       4.841   4.123  -0.024  0.00  0.00    +0.267 C 
ATOM     18  O   UNL     1       5.812   3.397  -0.037  0.00  0.00    -0.271 OA
ATOM     19  N   UNL     1       5.000   5.461  -0.018  0.00  0.00    -0.231 N 
ATOM     20  H   UNL     1       4.120   6.120  -0.006  0.00  0.00    +0.173 HD
BRANCH  17  21
ATOM     21  C   UNL     1       3.456   3.530  -0.013  0.00  0.00    +0.326 C 
BRANCH  21  22
ATOM     22  O   UNL     1       3.548   2.104  -0.021  0.00  0.00    -0.483 OA
BRANCH  22  28
ATOM     23  C   UNL     1      -1.332   2.114   0.020  0.00  0.00    +0.044 C 
ATOM     24  C   UNL     1      -0.017   1.378   0.010  0.00  0.00    -0.047 A 
ATOM     25  C   UNL     1       0.002  -0.004   0.002  0.00  0.00    +0.007 A 
ATOM     26  C   UNL     1       1.207  -0.681  -0.013  0.00  0.00    -0.047 A 
ATOM     27  C   UNL     1       2.396   0.022  -0.020  0.00  0.00    +0.049 A 
ATOM     28  C   UNL     1       2.380   1.409  -0.013  0.00  0.00    +0.122 A 
ATOM     29  C   UNL     1       1.169   2.087   0.002  0.00  0.00    +0.049 A 
ATOM     30  C   UNL     1       1.224  -2.188  -0.020  0.00  0.00    +0.044 C 
ENDBRANCH  22  28
ENDBRANCH  21  22
ENDBRANCH  17  21
ENDBRANCH   1  19
TORSDOF 7
