REMARK  Name = ZINC08410884
REMARK  7 active torsions:
REMARK  status: ('A' for Active; 'I' for Inactive)
REMARK    1  A    between atoms: C_1  and  C_2
REMARK    2  A    between atoms: C_5  and  C_24
REMARK    3  A    between atoms: C_6  and  N_8
REMARK    4  A    between atoms: N_8  and  C_9
REMARK    5  A    between atoms: C_14  and  C_15
REMARK    6  A    between atoms: C_18  and  O_22
REMARK    7  A    between atoms: C_19  and  O_21
REMARK                            x       y       z     vdW  Elec       q    Type
REMARK                         _______ _______ _______ _____ _____    ______ ____
ROOT
ATOM      1  C   UNL     1       1.138  -1.935   3.570  0.00  0.00    +0.175 C 
ATOM      2  N   UNL     1       0.911  -0.653   3.807  0.00  0.00    -0.152 NA
ATOM      3  C   UNL     1       0.683  -0.189   5.016  0.00  0.00    +0.276 C 
ATOM      4  O   UNL     1       0.474   0.996   5.221  0.00  0.00    -0.267 OA
ATOM      5  C   UNL     1       0.693  -1.183   6.114  0.00  0.00    +0.079 C 
ATOM      6  C   UNL     1       0.493  -1.009   7.445  0.00  0.00    +0.028 C 
ATOM      7  S   UNL     1       1.034  -2.676   5.192  0.00  0.00    -0.050 S 
ENDROOT
BRANCH   6   8
ATOM      8  C   UNL     1       0.712  -2.127   8.372  0.00  0.00    -0.020 A 
ATOM      9  C   UNL     1       1.311  -3.308   7.919  0.00  0.00    +0.012 A 
ATOM     10  C   UNL     1       1.516  -4.354   8.791  0.00  0.00    +0.050 A 
ATOM     11  C   UNL     1       1.130  -4.241  10.120  0.00  0.00    +0.158 A 
ATOM     12  C   UNL     1       0.533  -3.068  10.580  0.00  0.00    +0.159 A 
ATOM     13  C   UNL     1       0.329  -2.012   9.714  0.00  0.00    +0.057 A 
BRANCH  12  14
ATOM     14  O   UNL     1       0.157  -2.962  11.882  0.00  0.00    -0.503 OA
ATOM     15  H   UNL     1       0.843  -2.607  12.463  0.00  0.00    +0.292 HD
ENDBRANCH  12  14
BRANCH  11  16
ATOM     16  O   UNL     1       1.334  -5.277  10.975  0.00  0.00    -0.503 OA
ATOM     17  H   UNL     1       2.189  -5.252  11.426  0.00  0.00    +0.292 HD
ENDBRANCH  11  16
ENDBRANCH   6   8
BRANCH   1  18
ATOM     18  N   UNL     1       1.387  -2.548   2.369  0.00  0.00    -0.192 NA
BRANCH  18  24
ATOM     19  C   UNL     1       2.969   1.663   0.386  0.00  0.00    +0.044 C 
ATOM     20  C   UNL     1       2.417   0.268   0.242  0.00  0.00    -0.049 A 
ATOM     21  C   UNL     1       2.170  -0.251  -1.016  0.00  0.00    +0.004 A 
ATOM     22  C   UNL     1       1.664  -1.531  -1.153  0.00  0.00    +0.005 A 
ATOM     23  C   UNL     1       1.403  -2.295  -0.032  0.00  0.00    -0.027 A 
ATOM     24  C   UNL     1       1.651  -1.777   1.233  0.00  0.00    +0.059 A 
ATOM     25  C   UNL     1       2.165  -0.493   1.366  0.00  0.00    +0.028 A 
ATOM     26  C   UNL     1       0.851  -3.689  -0.181  0.00  0.00    +0.046 C 
ENDBRANCH  18  24
ENDBRANCH   1  18
TORSDOF 5
