REMARK  Name = ZINC48309978
REMARK  8 active torsions:
REMARK  status: ('A' for Active; 'I' for Inactive)
REMARK    1  A    between atoms: C_1  and  C_2
REMARK    2  A    between atoms: C_2  and  C_3
REMARK    3  A    between atoms: C_2  and  C_4
REMARK    4  A    between atoms: C_4  and  C_5
REMARK    5  A    between atoms: C_5  and  C_7
REMARK    6  A    between atoms: C_5  and  N_23
REMARK    7  A    between atoms: C_18  and  N_19
REMARK    8  A    between atoms: C_20  and  C_22
REMARK                            x       y       z     vdW  Elec       q    Type
REMARK                         _______ _______ _______ _____ _____    ______ ____
ROOT
ATOM      1  C   UNL     1      -2.833  -2.623  -0.010  0.00  0.00    +0.241 C 
ATOM      2  O   UNL     1      -3.317  -3.297  -0.894  0.00  0.00    -0.273 OA
ATOM      3  N   UNL     1      -3.533  -2.385   1.117  0.00  0.00    -0.270 N 
ATOM      4  C   UNL     1      -2.912  -1.683   2.248  0.00  0.00    +0.114 C 
ATOM      5  C   UNL     1      -3.288  -2.437   3.531  0.00  0.00    +0.024 C 
ATOM      6  C   UNL     1      -4.804  -2.373   3.714  0.00  0.00    +0.040 C 
ATOM      7  C   UNL     1      -5.506  -2.812   2.457  0.00  0.00    -0.005 A 
ATOM      8  C   UNL     1      -4.868  -2.798   1.227  0.00  0.00    +0.041 A 
ATOM      9  C   UNL     1      -5.548  -3.201   0.082  0.00  0.00    +0.024 A 
ATOM     10  C   UNL     1      -6.863  -3.615   0.166  0.00  0.00    +0.004 A 
ATOM     11  C   UNL     1      -7.506  -3.630   1.388  0.00  0.00    +0.024 A 
ATOM     12  C   UNL     1      -6.828  -3.236   2.538  0.00  0.00    +0.038 A 
ENDROOT
BRANCH  12  13
ATOM     13  N   UNL     1      -7.482  -3.252   3.775  0.00  0.00    -0.285 N 
ATOM     14  C   UNL     1      -8.823  -3.131   3.830  0.00  0.00    +0.214 C 
ATOM     15  O   UNL     1      -9.470  -3.080   2.806  0.00  0.00    -0.276 OA
ATOM     16  C   UNL     1      -9.519  -3.058   5.165  0.00  0.00    +0.109 C 
ATOM     17  H   UNL     1      -6.970  -3.350   4.593  0.00  0.00    +0.155 HD
ENDBRANCH  12  13
BRANCH   1  18
ATOM     18  C   UNL     1      -1.448  -2.051  -0.171  0.00  0.00    +0.171 C 
BRANCH  18  19
ATOM     19  N   UNL     1      -0.903  -2.450  -1.471  0.00  0.00    -0.222 N 
ATOM     20  C   UNL     1      -1.457  -2.139  -2.657  0.00  0.00    +0.254 C 
ATOM     21  O   UNL     1      -2.473  -1.492  -2.816  0.00  0.00    -0.270 OA
ATOM     22  C   UNL     1      -0.623  -2.714  -3.733  0.00  0.00    +0.049 A 
ATOM     23  C   UNL     1      -0.696  -2.719  -5.116  0.00  0.00    +0.014 A 
ATOM     24  C   UNL     1       0.279  -3.372  -5.854  0.00  0.00    +0.001 A 
ATOM     25  C   UNL     1       1.323  -4.018  -5.218  0.00  0.00    +0.001 A 
ATOM     26  C   UNL     1       1.409  -4.022  -3.835  0.00  0.00    +0.014 A 
ATOM     27  C   UNL     1       0.441  -3.373  -3.085  0.00  0.00    +0.049 A 
ATOM     28  C   UNL     1       0.220  -3.171  -1.637  0.00  0.00    +0.254 C 
ATOM     29  O   UNL     1       0.933  -3.589  -0.746  0.00  0.00    -0.270 OA
ENDBRANCH  18  19
BRANCH  18  30
ATOM     30  C   UNL     1      -1.514  -0.525  -0.092  0.00  0.00    +0.035 C 
BRANCH  30  32
ATOM     31  C   UNL     1      -0.166   1.577  -0.178  0.00  0.00    +0.007 C 
ATOM     32  C   UNL     1      -0.096   0.050  -0.131  0.00  0.00    -0.015 C 
ATOM     33  C   UNL     1       0.666  -0.388   1.122  0.00  0.00    +0.007 C 
ENDBRANCH  30  32
ENDBRANCH  18  30
ENDBRANCH   1  18
TORSDOF 5
