REMARK  Name = ZINC28658715
REMARK  9 active torsions:
REMARK  status: ('A' for Active; 'I' for Inactive)
REMARK    1  A    between atoms: C_1  and  C_2
REMARK    2  A    between atoms: C_2  and  C_3
REMARK    3  A    between atoms: C_3  and  C_28
REMARK    4  A    between atoms: N_6  and  N_10
REMARK    5  A    between atoms: C_11  and  C_13
REMARK    6  A    between atoms: C_13  and  N_14
REMARK    7  A    between atoms: N_14  and  C_15
REMARK    8  A    between atoms: C_20  and  O_21
REMARK    9  A    between atoms: O_21  and  C_22
REMARK                            x       y       z     vdW  Elec       q    Type
REMARK                         _______ _______ _______ _____ _____    ______ ____
ROOT
ATOM      1  C   UNL     1      -4.939  -0.957   4.740  0.00  0.00    +0.199 C 
ENDROOT
BRANCH   1   3
ATOM      2  N   UNL     1      -2.721  -0.993   3.644  0.00  0.00    -0.222 N 
ATOM      3  C   UNL     1      -3.536  -0.435   4.561  0.00  0.00    +0.247 C 
ATOM      4  O   UNL     1      -3.141   0.487   5.243  0.00  0.00    -0.273 OA
ATOM      5  H   UNL     1      -3.080  -1.829   3.026  0.00  0.00    +0.174 HD
BRANCH   2   9
ATOM      6  C   UNL     1       0.450   0.538   2.681  0.00  0.00    +0.111 C 
ATOM      7  C   UNL     1      -1.020   0.257   2.443  0.00  0.00    +0.263 C 
ATOM      8  O   UNL     1      -1.698   0.641   1.514  0.00  0.00    -0.271 OA
ATOM      9  N   UNL     1      -1.417  -0.508   3.478  0.00  0.00    -0.137 N 
ATOM     10  C   UNL     1      -0.413  -0.747   4.329  0.00  0.00    +0.326 C 
ATOM     11  O   UNL     1      -0.527  -1.413   5.339  0.00  0.00    -0.251 OA
ATOM     12  N   UNL     1       0.738  -0.168   3.942  0.00  0.00    -0.284 N 
ATOM     13  C   UNL     1       1.298  -0.029   1.541  0.00  0.00    +0.041 C 
ATOM     14  H   UNL     1       1.751  -0.139   4.369  0.00  0.00    +0.151 HD
BRANCH   6  16
ATOM     15  C   UNL     1       2.177   2.287   3.130  0.00  0.00    +0.006 C 
ATOM     16  C   UNL     1       0.696   2.040   2.837  0.00  0.00    +0.032 C 
ENDBRANCH   6  16
ENDBRANCH   2   9
ENDBRANCH   1   3
BRANCH   1  17
ATOM     17  N   UNL     1      -5.615  -0.189   5.788  0.00  0.00    -0.333 N 
ATOM     18  H   UNL     1      -5.085   0.625   6.304  0.00  0.00    +0.147 HD
BRANCH  17  19
ATOM     19  C   UNL     1      -6.937  -0.492   6.135  0.00  0.00    +0.070 A 
ATOM     20  C   UNL     1      -7.610  -1.515   5.482  0.00  0.00    +0.026 A 
ATOM     21  C   UNL     1      -8.914  -1.815   5.830  0.00  0.00    +0.002 A 
ATOM     22  C   UNL     1      -9.554  -1.092   6.819  0.00  0.00    +0.004 A 
ATOM     23  C   UNL     1      -8.891  -0.068   7.470  0.00  0.00    +0.048 A 
ATOM     24  C   UNL     1      -7.582   0.236   7.132  0.00  0.00    +0.149 A 
BRANCH  24  25
ATOM     25  O   UNL     1      -6.929   1.244   7.771  0.00  0.00    -0.454 OA
BRANCH  25  26
ATOM     26  C   UNL     1      -7.595   1.919   8.744  0.00  0.00    +0.129 A 
ATOM     27  C   UNL     1      -8.335   3.049   8.425  0.00  0.00    +0.046 A 
ATOM     28  C   UNL     1      -9.015   3.730   9.416  0.00  0.00    +0.004 A 
ATOM     29  C   UNL     1      -8.950   3.294  10.726  0.00  0.00    +0.000 A 
ATOM     30  C   UNL     1      -8.209   2.172  11.048  0.00  0.00    +0.004 A 
ATOM     31  C   UNL     1      -7.532   1.483  10.060  0.00  0.00    +0.046 A 
ENDBRANCH  25  26
ENDBRANCH  24  25
ENDBRANCH  17  19
ENDBRANCH   1  17
TORSDOF 7
