REMARK  Name = ZINC00759149
REMARK  6 active torsions:
REMARK  status: ('A' for Active; 'I' for Inactive)
REMARK    1  A    between atoms: C_1  and  C_2
REMARK    2  A    between atoms: C_3  and  C_17
REMARK    3  A    between atoms: C_4  and  C_10
REMARK    4  A    between atoms: C_17  and  O_19
REMARK    5  A    between atoms: O_19  and  C_20
REMARK    6  A    between atoms: C_20  and  C_21
REMARK                            x       y       z     vdW  Elec       q    Type
REMARK                         _______ _______ _______ _____ _____    ______ ____
ROOT
ATOM      1  C   UNL     1       0.626   1.033  -0.282  0.00  0.00    +0.061 C 
ATOM      2  C   UNL     1       0.331  -0.440  -0.167  0.00  0.00    +0.021 C 
ATOM      3  C   UNL     1      -0.949  -0.868  -0.226  0.00  0.00    +0.078 C 
ATOM      4  C   UNL     1      -1.200  -2.358  -0.106  0.00  0.00    +0.145 C 
ATOM      5  N   UNL     1      -0.021  -3.222   0.066  0.00  0.00    -0.288 N 
ATOM      6  C   UNL     1       1.197  -2.645   0.106  0.00  0.00    +0.304 C 
ATOM      7  O   UNL     1       2.177  -3.350   0.248  0.00  0.00    -0.252 OA
ATOM      8  N   UNL     1       1.362  -1.321  -0.011  0.00  0.00    -0.273 N 
ATOM      9  H   UNL     1      -0.117  -4.184   0.149  0.00  0.00    +0.151 HD
ATOM     10  H   UNL     1       2.265  -0.968   0.022  0.00  0.00    +0.156 HD
ENDROOT
BRANCH   4  11
ATOM     11  C   UNL     1      -1.927  -2.808  -1.347  0.00  0.00    -0.004 A 
ATOM     12  C   UNL     1      -1.214  -3.274  -2.436  0.00  0.00    +0.007 A 
ATOM     13  C   UNL     1      -1.881  -3.687  -3.574  0.00  0.00    +0.000 A 
ATOM     14  C   UNL     1      -3.261  -3.633  -3.625  0.00  0.00    +0.001 A 
ATOM     15  C   UNL     1      -3.976  -3.167  -2.538  0.00  0.00    +0.020 A 
ATOM     16  C   UNL     1      -3.309  -2.759  -1.395  0.00  0.00    +0.046 A 
ATOM     17 CL   UNL     1      -4.206  -2.179  -0.027  0.00  0.00    -0.083 Cl
ENDBRANCH   4  11
BRANCH   3  18
ATOM     18  C   UNL     1      -2.018   0.043  -0.394  0.00  0.00    +0.339 C 
ATOM     19  O   UNL     1      -2.694   0.370   0.563  0.00  0.00    -0.245 OA
BRANCH  18  20
ATOM     20  O   UNL     1      -2.287   0.549  -1.615  0.00  0.00    -0.459 OA
BRANCH  20  21
ATOM     21  C   UNL     1      -3.306   1.548  -1.693  0.00  0.00    +0.264 C 
BRANCH  21  22
ATOM     22  C   UNL     1      -3.385   2.086  -3.123  0.00  0.00    +0.156 C 
ATOM     23  C   UNL     1      -4.509   3.147  -3.238  0.00  0.00    +0.037 C 
ATOM     24  C   UNL     1      -4.011   3.973  -4.455  0.00  0.00    +0.031 C 
ATOM     25  C   UNL     1      -2.477   3.915  -4.285  0.00  0.00    +0.160 C 
ATOM     26  O   UNL     1      -2.175   2.780  -3.463  0.00  0.00    -0.373 OA
ENDBRANCH  21  22
ENDBRANCH  20  21
ENDBRANCH  18  20
ENDBRANCH   3  18
TORSDOF 5
