REMARK  Name = ZINC35724244
REMARK  9 active torsions:
REMARK  status: ('A' for Active; 'I' for Inactive)
REMARK    1  A    between atoms: C_1  and  C_2
REMARK    2  A    between atoms: C_2  and  C_3
REMARK    3  A    between atoms: C_2  and  C_4
REMARK    4  A    between atoms: C_2  and  C_5
REMARK    5  A    between atoms: C_9  and  C_23
REMARK    6  A    between atoms: C_11  and  S_14
REMARK    7  A    between atoms: S_14  and  C_15
REMARK    8  A    between atoms: N_19  and  C_20
REMARK    9  A    between atoms: C_23  and  N_24
REMARK                            x       y       z     vdW  Elec       q    Type
REMARK                         _______ _______ _______ _____ _____    ______ ____
ROOT
ATOM      1  C   UNL     1       0.718  -0.497  -1.257  0.00  0.00    -0.004 C 
ATOM      2  C   UNL     1      -0.022   0.009  -2.496  0.00  0.00    +0.004 C 
ATOM      3  C   UNL     1       0.694  -0.484  -3.755  0.00  0.00    +0.003 C 
ATOM      4  C   UNL     1       2.130   0.045  -3.766  0.00  0.00    -0.015 C 
ATOM      5  C   UNL     1       2.870  -0.461  -2.526  0.00  0.00    +0.056 C 
ATOM      6  C   UNL     1       2.154   0.032  -1.268  0.00  0.00    +0.019 C 
ENDROOT
BRANCH   1   8
ATOM      7  C   UNL     1      -0.019   1.526   0.010  0.00  0.00    +0.011 C 
ATOM      8  C   UNL     1       0.002  -0.004   0.002  0.00  0.00    -0.035 C 
ATOM      9  C   UNL     1       0.742  -0.511   1.242  0.00  0.00    +0.011 C 
ATOM     10  C   UNL     1      -1.433  -0.534   0.013  0.00  0.00    +0.011 C 
ENDBRANCH   1   8
BRANCH   5  11
ATOM     11  S   UNL     1       2.894  -2.275  -2.536  0.00  0.00    -0.081 S 
BRANCH  11  12
ATOM     12  C   UNL     1       3.894  -2.696  -1.148  0.00  0.00    +0.210 A 
ATOM     13  N   UNL     1       4.468  -1.855  -0.314  0.00  0.00    -0.102 NA
ATOM     14  N   UNL     1       5.125  -2.492   0.586  0.00  0.00    -0.022 NA
ATOM     15  N   UNL     1       5.022  -3.763   0.400  0.00  0.00    -0.043 NA
ATOM     16  N   UNL     1       4.212  -3.945  -0.734  0.00  0.00    -0.217 N 
BRANCH  16  17
ATOM     17  C   UNL     1       3.800  -5.214  -1.339  0.00  0.00    +0.112 C 
ATOM     18  C   UNL     1       4.120  -6.499  -0.573  0.00  0.00    +0.029 C 
ATOM     19  C   UNL     1       4.904  -6.148  -1.840  0.00  0.00    +0.029 C 
ENDBRANCH  16  17
ENDBRANCH  11  12
ENDBRANCH   5  11
BRANCH   4  20
ATOM     20  C   UNL     1       2.109   1.575  -3.758  0.00  0.00    -0.082 C 
BRANCH  20  21
ATOM     21  N   UNL     1       1.505   2.064  -5.005  0.00  0.00    +0.378 N 
ATOM     22  H   UNL     1       2.048   1.739  -5.791  0.00  0.00    -0.090 HD
ATOM     23  H   UNL     1       0.561   1.715  -5.080  0.00  0.00    -0.090 HD
ATOM     24  H   UNL     1       1.491   3.073  -4.999  0.00  0.00    -0.090 HD
ENDBRANCH  20  21
ENDBRANCH   4  20
TORSDOF 6
