REMARK  Name = ZINC40752850
REMARK  7 active torsions:
REMARK  status: ('A' for Active; 'I' for Inactive)
REMARK    1  A    between atoms: C_1  and  C_2
REMARK    2  A    between atoms: C_2  and  O_3
REMARK    3  A    between atoms: O_3  and  C_4
REMARK    4  A    between atoms: C_4  and  C_6
REMARK    5  A    between atoms: C_14  and  N_30
REMARK    6  A    between atoms: C_15  and  N_19
REMARK    7  A    between atoms: N_19  and  C_20
REMARK                            x       y       z     vdW  Elec       q    Type
REMARK                         _______ _______ _______ _____ _____    ______ ____
ROOT
ATOM      1  C   UNL     1      -0.149  -4.244  -2.553  0.00  0.00    +0.115 C 
ATOM      2  C   UNL     1      -0.017  -2.728  -2.708  0.00  0.00    +0.018 C 
ATOM      3  C   UNL     1       1.460  -2.333  -2.641  0.00  0.00    +0.020 C 
ATOM      4  C   UNL     1       2.216  -3.004  -3.792  0.00  0.00    +0.106 C 
ATOM      5  N   UNL     1       1.976  -4.452  -3.736  0.00  0.00    -0.313 N 
ATOM      6  C   UNL     1       0.589  -4.938  -3.703  0.00  0.00    +0.121 C 
ATOM      7  C   UNL     1       3.039  -5.346  -3.713  0.00  0.00    +0.147 A 
ATOM      8  C   UNL     1       3.521  -5.904  -4.899  0.00  0.00    +0.105 A 
ATOM      9  C   UNL     1       4.592  -6.796  -4.821  0.00  0.00    +0.145 A 
ATOM     10  N   UNL     1       5.108  -7.080  -3.627  0.00  0.00    -0.219 NA
ATOM     11  C   UNL     1       4.623  -6.532  -2.532  0.00  0.00    +0.225 A 
ATOM     12  N   UNL     1       3.617  -5.681  -2.562  0.00  0.00    -0.219 NA
ENDROOT
BRANCH   8  13
ATOM     13  N   UNL     1       2.945  -5.576  -6.137  0.00  0.00    -0.353 N 
ATOM     14  H   UNL     1       2.263  -4.888  -6.188  0.00  0.00    +0.143 HD
ATOM     15  H   UNL     1       3.229  -6.037  -6.942  0.00  0.00    +0.143 HD
ENDBRANCH   8  13
BRANCH   1  16
ATOM     16  C   UNL     1      -1.606  -4.628  -2.587  0.00  0.00    +0.312 C 
ATOM     17  O   UNL     1      -2.013  -5.380  -3.441  0.00  0.00    -0.250 OA
BRANCH  16  18
ATOM     18  O   UNL     1      -2.451  -4.136  -1.668  0.00  0.00    -0.465 OA
BRANCH  18  20
ATOM     19  C   UNL     1      -4.622  -3.884  -0.637  0.00  0.00    +0.048 C 
ATOM     20  C   UNL     1      -3.818  -4.542  -1.759  0.00  0.00    +0.229 C 
ENDBRANCH  18  20
ENDBRANCH  16  18
ENDBRANCH   1  16
BRANCH   9  21
ATOM     21  N   UNL     1       5.110  -7.380  -5.971  0.00  0.00    -0.322 N 
ATOM     22  H   UNL     1       4.728  -7.168  -6.837  0.00  0.00    +0.148 HD
BRANCH  21  23
ATOM     23  C   UNL     1       6.234  -8.315  -5.875  0.00  0.00    +0.034 C 
ATOM     24  C   UNL     1       7.435  -7.606  -5.247  0.00  0.00    +0.029 C 
ATOM     25  C   UNL     1       8.609  -8.582  -5.147  0.00  0.00    -0.008 C 
ATOM     26  C   UNL     1       8.982  -9.075  -6.546  0.00  0.00    +0.007 C 
ATOM     27  C   UNL     1       7.781  -9.784  -7.174  0.00  0.00    -0.008 C 
ATOM     28  C   UNL     1       6.607  -8.808  -7.274  0.00  0.00    +0.029 C 
ATOM     29  C   UNL     1       7.379 -10.977  -6.304  0.00  0.00    +0.007 C 
ATOM     30  C   UNL     1       7.006 -10.483  -4.904  0.00  0.00    -0.008 C 
ATOM     31  C   UNL     1       8.207  -9.774  -4.276  0.00  0.00    +0.007 C 
ATOM     32  C   UNL     1       5.832  -9.507  -5.004  0.00  0.00    +0.029 C 
ENDBRANCH  21  23
ENDBRANCH   9  21
TORSDOF 6
