REMARK  Name = ZINC05342003
REMARK  7 active torsions:
REMARK  status: ('A' for Active; 'I' for Inactive)
REMARK    1  A    between atoms: C_1  and  N_33
REMARK    2  A    between atoms: C_2  and  N_33
REMARK    3  A    between atoms: C_3  and  N_33
REMARK    4  A    between atoms: C_4  and  C_5
REMARK    5  A    between atoms: C_6  and  C_18
REMARK    6  A    between atoms: C_8  and  C_16
REMARK    7  A    between atoms: C_9  and  C_10
REMARK                            x       y       z     vdW  Elec       q    Type
REMARK                         _______ _______ _______ _____ _____    ______ ____
ROOT
ATOM      1  C   UNL     1       2.422   1.044  -0.015  0.00  0.00    +0.010 A 
ATOM      2  C   UNL     1       2.683   0.014   0.895  0.00  0.00    +0.098 A 
ATOM      3  S   UNL     1       4.333  -0.493   0.444  0.00  0.00    -0.066 S 
ATOM      4  C   UNL     1       4.608   0.649  -0.899  0.00  0.00    +0.098 A 
ATOM      5  C   UNL     1       3.411   1.365  -0.940  0.00  0.00    +0.015 A 
ENDROOT
BRANCH   5   6
ATOM      6  C   UNL     1       3.201   2.439  -1.937  0.00  0.00    -0.016 A 
ATOM      7  C   UNL     1       2.223   2.299  -2.922  0.00  0.00    +0.008 A 
ATOM      8  C   UNL     1       2.029   3.306  -3.845  0.00  0.00    +0.001 A 
ATOM      9  C   UNL     1       2.809   4.448  -3.802  0.00  0.00    +0.000 A 
ATOM     10  C   UNL     1       3.785   4.590  -2.830  0.00  0.00    +0.001 A 
ATOM     11  C   UNL     1       3.985   3.592  -1.899  0.00  0.00    +0.008 A 
ENDBRANCH   5   6
BRANCH   1  13
ATOM     12  C   UNL     1      -0.013   1.076   0.008  0.00  0.00    +0.052 C 
ATOM     13  C   UNL     1       1.139   1.762   0.001  0.00  0.00    +0.024 C 
BRANCH  12  16
ATOM     14  C   UNL     1      -1.238   3.215   0.025  0.00  0.00    +0.106 C 
ATOM     15  C   UNL     1      -2.477   1.001   0.019  0.00  0.00    +0.106 C 
ATOM     16  N   UNL     1      -1.216   1.750  -0.342  0.00  0.00    -0.404 NA
ATOM     17  H   UNL     1      -1.205   1.747  -1.368  0.00  0.00    +0.125 HD
ENDBRANCH  12  16
ENDBRANCH   1  13
BRANCH   4  18
ATOM     18  C   UNL     1       5.765   0.792  -1.730  0.00  0.00    +0.107 C 
ATOM     19  N   UNL     1       6.683   0.905  -2.390  0.00  0.00    -0.190 NA
ENDBRANCH   4  18
BRANCH   2  20
ATOM     20  C   UNL     1       1.839  -0.504   1.929  0.00  0.00    +0.107 C 
ATOM     21  N   UNL     1       1.168  -0.915   2.749  0.00  0.00    -0.190 NA
ENDBRANCH   2  20
TORSDOF 5
