REMARK  Name = ZINC64158231
REMARK  8 active torsions:
REMARK  status: ('A' for Active; 'I' for Inactive)
REMARK    1  A    between atoms: C_1  and  C_2
REMARK    2  A    between atoms: C_10  and  C_12
REMARK    3  A    between atoms: C_12  and  N_13
REMARK    4  A    between atoms: N_16  and  C_23
REMARK    5  A    between atoms: C_17  and  C_20
REMARK    6  A    between atoms: C_20  and  C_21
REMARK    7  A    between atoms: C_21  and  O_22
REMARK    8  A    between atoms: C_23  and  C_24
REMARK                            x       y       z     vdW  Elec       q    Type
REMARK                         _______ _______ _______ _____ _____    ______ ____
ROOT
ATOM      1  N   UNL     1      -1.178  -1.454   3.366  0.00  0.00    -0.303 NA
ATOM      2  C   UNL     1      -1.173  -2.717   2.615  0.00  0.00    +0.066 C 
ATOM      3  C   UNL     1      -1.048  -3.888   3.593  0.00  0.00    -0.062 C 
ATOM      4  N   UNL     1      -2.175  -3.862   4.535  0.00  0.00    +0.386 N 
ATOM      5  C   UNL     1      -2.152  -2.605   5.294  0.00  0.00    -0.052 C 
ATOM      6  C   UNL     1      -2.287  -1.424   4.330  0.00  0.00    +0.069 C 
ATOM      7  H   UNL     1      -3.042  -3.930   4.023  0.00  0.00    -0.081 HD
ENDROOT
BRANCH   1   8
ATOM      8  C   UNL     1      -1.240  -0.301   2.457  0.00  0.00    +0.113 C 
BRANCH   8  18
ATOM      9  C   UNL     1      -1.912   2.722   1.501  0.00  0.00    +0.042 C 
ATOM     10  C   UNL     1      -0.741   2.134   2.245  0.00  0.00    -0.040 C 
ATOM     11  C   UNL     1       0.543   2.557   2.206  0.00  0.00    -0.001 A 
ATOM     12  C   UNL     1       1.208   3.649   1.486  0.00  0.00    +0.010 A 
ATOM     13  C   UNL     1       2.538   3.829   1.651  0.00  0.00    +0.001 A 
ATOM     14  C   UNL     1       3.296   3.000   2.490  0.00  0.00    +0.002 A 
ATOM     15  C   UNL     1       2.756   1.976   3.184  0.00  0.00    +0.026 A 
ATOM     16  C   UNL     1       1.365   1.696   3.086  0.00  0.00    +0.043 A 
ATOM     17  N   UNL     1       0.618   0.776   3.647  0.00  0.00    -0.376 N 
ATOM     18  C   UNL     1      -0.765   0.954   3.191  0.00  0.00    +0.120 C 
ATOM     19  H   UNL     1       0.927   0.095   4.264  0.00  0.00    +0.160 HD
ENDBRANCH   8  18
ENDBRANCH   1   8
BRANCH   5  20
ATOM     20  C   UNL     1      -3.316  -2.587   6.287  0.00  0.00    +0.014 C 
BRANCH  20  21
ATOM     21  C   UNL     1      -3.247  -1.315   7.133  0.00  0.00    +0.154 C 
BRANCH  21  22
ATOM     22  O   UNL     1      -4.259  -1.356   8.140  0.00  0.00    -0.395 OA
ATOM     23  H   UNL     1      -4.274  -0.579   8.715  0.00  0.00    +0.209 HD
ENDBRANCH  21  22
ENDBRANCH  20  21
ENDBRANCH   5  20
BRANCH   4  24
ATOM     24  C   UNL     1      -2.064  -4.996   5.462  0.00  0.00    -0.040 C 
BRANCH  24  25
ATOM     25  C   UNL     1      -2.221  -6.286   4.699  0.00  0.00    -0.029 A 
ATOM     26  C   UNL     1      -3.434  -6.948   4.702  0.00  0.00    +0.004 A 
ATOM     27  C   UNL     1      -3.578  -8.131   4.002  0.00  0.00    +0.000 A 
ATOM     28  C   UNL     1      -2.508  -8.654   3.299  0.00  0.00    +0.003 A 
ATOM     29  C   UNL     1      -1.295  -7.994   3.294  0.00  0.00    +0.038 A 
ATOM     30  C   UNL     1      -1.151  -6.805   3.990  0.00  0.00    +0.125 A 
ATOM     31  F   UNL     1       0.034  -6.157   3.983  0.00  0.00    -0.205 F 
ENDBRANCH  24  25
ENDBRANCH   4  24
TORSDOF 7
