REMARK  Name = ZINC09714953
REMARK  6 active torsions:
REMARK  status: ('A' for Active; 'I' for Inactive)
REMARK    1  A    between atoms: C_3  and  N_18
REMARK    2  A    between atoms: C_6  and  C_7
REMARK    3  A    between atoms: N_9  and  C_10
REMARK    4  A    between atoms: C_11  and  C_15
REMARK    5  A    between atoms: N_18  and  S_19
REMARK    6  A    between atoms: S_19  and  C_22
REMARK                            x       y       z     vdW  Elec       q    Type
REMARK                         _______ _______ _______ _____ _____    ______ ____
ROOT
ATOM      1  C   UNL     1       3.455  -3.164  -4.349  0.00  0.00    +0.015 A 
ATOM      2  C   UNL     1       2.464  -3.472  -3.445  0.00  0.00    +0.025 A 
ATOM      3  C   UNL     1       2.113  -2.556  -2.457  0.00  0.00    +0.048 A 
ATOM      4  C   UNL     1       2.758  -1.325  -2.384  0.00  0.00    +0.025 A 
ATOM      5  C   UNL     1       3.754  -1.013  -3.281  0.00  0.00    +0.015 A 
ATOM      6  C   UNL     1       4.109  -1.931  -4.274  0.00  0.00    +0.037 A 
ENDROOT
BRANCH   6   7
ATOM      7  C   UNL     1       5.172  -1.598  -5.241  0.00  0.00    +0.249 C 
ATOM      8  O   UNL     1       5.481  -2.397  -6.104  0.00  0.00    -0.270 OA
ATOM      9  N   UNL     1       5.802  -0.409  -5.168  0.00  0.00    -0.275 N 
ATOM     10  H   UNL     1       5.556   0.229  -4.479  0.00  0.00    +0.156 HD
BRANCH   9  11
ATOM     11  C   UNL     1       6.800  -0.097  -6.076  0.00  0.00    +0.084 A 
ATOM     12  C   UNL     1       7.553   1.069  -6.165  0.00  0.00    +0.065 A 
ATOM     13  C   UNL     1       8.540   1.125  -7.217  0.00  0.00    +0.022 A 
ATOM     14  C   UNL     1       8.639   0.054  -8.025  0.00  0.00    +0.048 A 
ATOM     15  S   UNL     1       7.408  -1.060  -7.380  0.00  0.00    -0.081 S 
BRANCH  12  16
ATOM     16  C   UNL     1       7.357   2.184  -5.234  0.00  0.00    +0.244 C 
ATOM     17  O   UNL     1       6.519   2.103  -4.355  0.00  0.00    -0.270 OA
ATOM     18  N   UNL     1       8.105   3.299  -5.350  0.00  0.00    -0.325 N 
ATOM     19  H   UNL     1       8.774   3.363  -6.050  0.00  0.00    +0.145 HD
ATOM     20  H   UNL     1       7.976   4.037  -4.734  0.00  0.00    +0.145 HD
ENDBRANCH  12  16
ENDBRANCH   9  11
ENDBRANCH   6   7
BRANCH   3  21
ATOM     21  N   UNL     1       1.110  -2.869  -1.546  0.00  0.00    -0.216 N 
ATOM     22  H   UNL     1       0.238  -2.453  -1.622  0.00  0.00    +0.174 HD
BRANCH  21  23
ATOM     23  S   UNL     1       1.406  -3.955  -0.330  0.00  0.00    +0.072 S 
ATOM     24  O   UNL     1       1.970  -5.106  -0.943  0.00  0.00    -0.150 OA
ATOM     25  O   UNL     1       0.226  -4.012   0.459  0.00  0.00    -0.150 OA
BRANCH  23  26
ATOM     26  C   UNL     1       2.663  -3.262   0.692  0.00  0.00    +0.109 A 
ATOM     27  C   UNL     1       2.325  -2.377   1.698  0.00  0.00    +0.031 A 
ATOM     28  C   UNL     1       3.310  -1.832   2.501  0.00  0.00    +0.040 A 
ATOM     29  C   UNL     1       4.636  -2.174   2.296  0.00  0.00    +0.124 A 
ATOM     30  C   UNL     1       4.974  -3.061   1.287  0.00  0.00    +0.040 A 
ATOM     31  C   UNL     1       3.987  -3.604   0.486  0.00  0.00    +0.031 A 
ATOM     32  F   UNL     1       5.600  -1.643   3.079  0.00  0.00    -0.205 F 
ENDBRANCH  23  26
ENDBRANCH  21  23
ENDBRANCH   3  21
TORSDOF 6
