REMARK  Name = ZINC40267401
REMARK  7 active torsions:
REMARK  status: ('A' for Active; 'I' for Inactive)
REMARK    1  A    between atoms: C_1  and  O_2
REMARK    2  A    between atoms: O_2  and  C_3
REMARK    3  A    between atoms: C_6  and  N_11
REMARK    4  A    between atoms: C_7  and  O_9
REMARK    5  A    between atoms: O_9  and  C_10
REMARK    6  A    between atoms: C_17  and  O_28
REMARK    7  A    between atoms: C_19  and  C_21
REMARK                            x       y       z     vdW  Elec       q    Type
REMARK                         _______ _______ _______ _____ _____    ______ ____
ROOT
ATOM      1  N   UNL     1       2.546  -2.497   4.240  0.00  0.00    -0.280 N 
ATOM      2  C   UNL     1       2.160  -2.474   5.549  0.00  0.00    +0.206 A 
ATOM      3  N   UNL     1       3.009  -3.179   6.256  0.00  0.00    -0.237 NA
ATOM      4  C   UNL     1       3.947  -3.670   5.457  0.00  0.00    +0.094 A 
ATOM      5  C   UNL     1       3.677  -3.257   4.176  0.00  0.00    +0.165 A 
ATOM      6  N   UNL     1       4.473  -3.603   3.124  0.00  0.00    -0.197 NA
ATOM      7  C   UNL     1       5.310  -4.588   3.265  0.00  0.00    +0.190 C 
ATOM      8  C   UNL     1       5.423  -5.399   4.522  0.00  0.00    +0.110 C 
ATOM      9  C   UNL     1       5.136  -4.544   5.767  0.00  0.00    +0.080 C 
ENDROOT
BRANCH   9  10
ATOM     10  C   UNL     1       6.329  -3.684   6.099  0.00  0.00    -0.038 A 
ATOM     11  C   UNL     1       6.810  -2.782   5.169  0.00  0.00    +0.007 A 
ATOM     12  C   UNL     1       7.903  -1.993   5.472  0.00  0.00    +0.038 A 
ATOM     13  C   UNL     1       8.516  -2.106   6.709  0.00  0.00    +0.123 A 
ATOM     14  C   UNL     1       8.033  -3.010   7.640  0.00  0.00    +0.038 A 
ATOM     15  C   UNL     1       6.936  -3.794   7.336  0.00  0.00    +0.007 A 
ATOM     16  F   UNL     1       9.585  -1.335   7.006  0.00  0.00    -0.205 F 
ENDBRANCH   9  10
BRANCH   1  20
ATOM     17  C   UNL     1       0.626  -0.619   1.042  0.00  0.00    +0.124 A 
ATOM     18  C   UNL     1       1.202   0.140   2.051  0.00  0.00    +0.048 A 
ATOM     19  C   UNL     1       1.837  -0.481   3.109  0.00  0.00    +0.033 A 
ATOM     20  C   UNL     1       1.900  -1.866   3.164  0.00  0.00    +0.091 A 
ATOM     21  C   UNL     1       1.323  -2.629   2.153  0.00  0.00    +0.147 A 
ATOM     22  C   UNL     1       0.681  -2.003   1.096  0.00  0.00    +0.093 A 
BRANCH  17  24
ATOM     23  C   UNL     1      -0.017   1.425   0.010  0.00  0.00    +0.277 C 
ATOM     24  O   UNL     1       0.002  -0.004   0.002  0.00  0.00    -0.495 OA
ENDBRANCH  17  24
BRANCH  21  25
ATOM     25  O   UNL     1       1.383  -3.986   2.205  0.00  0.00    -0.493 OA
ATOM     26  C   UNL     1       0.769  -4.704   1.133  0.00  0.00    +0.277 C 
ENDBRANCH  21  25
ENDBRANCH   1  20
BRANCH   7  27
ATOM     27  O   UNL     1       6.116  -4.898   2.227  0.00  0.00    -0.495 OA
ATOM     28  H   UNL     1       5.989  -4.336   1.450  0.00  0.00    +0.293 HD
ENDBRANCH   7  27
TORSDOF 5
