REMARK  Name = ZINC22852069
REMARK  5 active torsions:
REMARK  status: ('A' for Active; 'I' for Inactive)
REMARK    1  A    between atoms: C_1  and  C_2
REMARK    2  A    between atoms: N_7  and  C_9
REMARK    3  A    between atoms: C_9  and  C_11
REMARK    4  A    between atoms: C_9  and  C_18
REMARK    5  A    between atoms: C_24  and  C_26
REMARK                            x       y       z     vdW  Elec       q    Type
REMARK                         _______ _______ _______ _____ _____    ______ ____
ROOT
ATOM      1  C   UNL     1       8.378   0.547  -0.074  0.00  0.00    +0.006 C 
ENDROOT
BRANCH   1   2
ATOM      2  C   UNL     1       6.875   0.464  -0.164  0.00  0.00    +0.050 A 
ATOM      3  C   UNL     1       5.981   1.453  -0.275  0.00  0.00    +0.282 A 
ATOM      4  N   UNL     1       4.637   1.178  -0.344  0.00  0.00    -0.169 N 
ATOM      5  C   UNL     1       4.266  -0.138  -0.293  0.00  0.00    +0.200 A 
ATOM      6  S   UNL     1       5.824  -0.980  -0.148  0.00  0.00    -0.050 S 
ATOM      7  N   UNL     1       2.968  -0.233  -0.364  0.00  0.00    -0.197 NA
ATOM      8  C   UNL     1       2.440   0.994  -0.471  0.00  0.00    +0.218 A 
ATOM      9  N   UNL     1       3.410   1.882  -0.461  0.00  0.00    -0.138 NA
ATOM     10  O   UNL     1       6.407   2.744  -0.322  0.00  0.00    -0.265 OA
BRANCH   8  11
ATOM     11  C   UNL     1       0.998   1.301  -0.578  0.00  0.00    +0.173 A 
ATOM     12  C   UNL     1      -0.012   0.391  -0.590  0.00  0.00    +0.053 A 
ATOM     13  C   UNL     1      -1.213   1.119  -0.712  0.00  0.00    +0.042 A 
ATOM     14  C   UNL     1      -0.880   2.424  -0.758  0.00  0.00    +0.196 A 
ATOM     15  O   UNL     1       0.457   2.530  -0.681  0.00  0.00    -0.460 OA
ENDBRANCH   8  11
ENDBRANCH   1   2
BRANCH   1  21
ATOM     16  C   UNL     1      12.309  -1.255   2.267  0.00  0.00    +0.005 C 
ATOM     17  C   UNL     1      10.786  -1.317   2.140  0.00  0.00    -0.031 C 
ATOM     18  C   UNL     1      10.146  -1.005   3.496  0.00  0.00    -0.001 C 
ATOM     19  C   UNL     1       8.622  -1.010   3.345  0.00  0.00    -0.018 C 
ATOM     20  C   UNL     1       8.216   0.012   2.281  0.00  0.00    -0.077 C 
ATOM     21  N   UNL     1       8.853  -0.331   1.003  0.00  0.00    +0.388 N 
ATOM     22  C   UNL     1      10.317  -0.286   1.111  0.00  0.00    -0.074 C 
ATOM     23  H   UNL     1       8.567  -1.363   0.752  0.00  0.00    -0.080 HD
ENDBRANCH   1  21
BRANCH   1  24
ATOM     24  C   UNL     1       8.983   0.110  -1.383  0.00  0.00    -0.056 A 
ATOM     25  C   UNL     1       9.001  -1.230  -1.723  0.00  0.00    +0.003 A 
ATOM     26  C   UNL     1       9.552  -1.631  -2.925  0.00  0.00    +0.015 A 
ATOM     27  C   UNL     1      10.096  -0.692  -3.784  0.00  0.00    +0.018 A 
ATOM     28  C   UNL     1      10.083   0.648  -3.441  0.00  0.00    +0.015 A 
ATOM     29  C   UNL     1       9.527   1.048  -2.240  0.00  0.00    +0.003 A 
ATOM     30 BR   UNL     1      10.858  -1.241  -5.425  0.00  0.00    -0.050 Br
ENDBRANCH   1  24
TORSDOF 4
