REMARK  Name = ZINC08695752
REMARK  11 active torsions:
REMARK  status: ('A' for Active; 'I' for Inactive)
REMARK    1  A    between atoms: C_1  and  N_2
REMARK    2  A    between atoms: N_2  and  C_3
REMARK    3  A    between atoms: N_2  and  C_4
REMARK    4  A    between atoms: C_7  and  N_10
REMARK    5  A    between atoms: C_11  and  C_13
REMARK    6  A    between atoms: C_13  and  C_15
REMARK    7  A    between atoms: C_13  and  N_22
REMARK    8  A    between atoms: N_22  and  C_23
REMARK    9  A    between atoms: C_23  and  C_24
REMARK   10  A    between atoms: C_30  and  C_32
REMARK   11  A    between atoms: C_32  and  N_33
REMARK                            x       y       z     vdW  Elec       q    Type
REMARK                         _______ _______ _______ _____ _____    ______ ____
ROOT
ATOM      1  N   UNL     1       2.828   5.505  -1.334  0.00  0.00    -0.284 N 
ATOM      2  C   UNL     1       1.905   4.526  -1.254  0.00  0.00    +0.234 C 
ATOM      3  O   UNL     1       1.143   4.334  -2.178  0.00  0.00    -0.274 OA
ENDROOT
BRANCH   1   4
ATOM      4  C   UNL     1       2.833   6.415  -2.482  0.00  0.00    +0.166 C 
BRANCH   4   5
ATOM      5  C   UNL     1       2.498   7.832  -2.012  0.00  0.00    +0.023 C 
ATOM      6  C   UNL     1       2.333   8.754  -3.227  0.00  0.00    +0.010 C 
ATOM      7  C   UNL     1       2.178  10.191  -2.726  0.00  0.00    +0.027 C 
ATOM      8  C   UNL     1       1.136  10.253  -1.648  0.00  0.00    -0.031 C 
ATOM      9  C   UNL     1       0.705   9.221  -0.996  0.00  0.00    -0.031 C 
ATOM     10  C   UNL     1       1.180   7.817  -1.234  0.00  0.00    +0.032 C 
ENDBRANCH   4   5
BRANCH   4  12
ATOM     11  N   UNL     1       4.343   6.810  -4.401  0.00  0.00    -0.284 N 
ATOM     12  C   UNL     1       4.197   6.408  -3.123  0.00  0.00    +0.238 C 
ATOM     13  O   UNL     1       5.163   6.040  -2.489  0.00  0.00    -0.273 OA
ATOM     14  H   UNL     1       3.580   7.155  -4.891  0.00  0.00    +0.155 HD
BRANCH  11  18
ATOM     15  C   UNL     1       8.075   6.573  -6.248  0.00  0.00    +0.029 A 
ATOM     16  C   UNL     1       7.985   6.921  -4.907  0.00  0.00    +0.025 A 
ATOM     17  C   UNL     1       6.750   7.000  -4.296  0.00  0.00    +0.025 A 
ATOM     18  C   UNL     1       5.597   6.730  -5.022  0.00  0.00    +0.034 A 
ATOM     19  C   UNL     1       5.687   6.376  -6.362  0.00  0.00    +0.025 A 
ATOM     20  C   UNL     1       6.922   6.303  -6.975  0.00  0.00    +0.025 A 
BRANCH  15  22
ATOM     21  C   UNL     1      10.543   6.779  -6.102  0.00  0.00    +0.129 C 
ATOM     22  N   UNL     1       9.327   6.494  -6.868  0.00  0.00    -0.336 N 
ATOM     23  C   UNL     1       9.422   6.126  -8.283  0.00  0.00    +0.129 C 
ENDBRANCH  15  22
ENDBRANCH  11  18
ENDBRANCH   4  12
ENDBRANCH   1   4
BRANCH   1  24
ATOM     24  C   UNL     1       3.826   5.660  -0.273  0.00  0.00    +0.143 C 
BRANCH  24  25
ATOM     25  C   UNL     1       3.242   6.474   0.852  0.00  0.00    -0.030 A 
ATOM     26  C   UNL     1       3.356   7.852   0.839  0.00  0.00    +0.005 A 
ATOM     27  C   UNL     1       2.816   8.600   1.869  0.00  0.00    +0.000 A 
ATOM     28  C   UNL     1       2.170   7.970   2.916  0.00  0.00    +0.000 A 
ATOM     29  C   UNL     1       2.060   6.592   2.931  0.00  0.00    +0.000 A 
ATOM     30  C   UNL     1       2.596   5.844   1.899  0.00  0.00    +0.005 A 
ENDBRANCH  24  25
ENDBRANCH   1  24
BRANCH   2  31
ATOM     31  C   UNL     1       1.820   3.671  -0.017  0.00  0.00    +0.210 C 
BRANCH  31  32
ATOM     32  N   UNL     1       0.885   2.567  -0.250  0.00  0.00    -0.255 N 
ATOM     33  C   UNL     1      -0.481   2.626   0.016  0.00  0.00    +0.048 A 
ATOM     34  C   UNL     1      -1.273   3.646   0.527  0.00  0.00    +0.024 A 
ATOM     35  C   UNL     1      -2.631   3.452   0.699  0.00  0.00    +0.002 A 
ATOM     36  C   UNL     1      -3.220   2.243   0.365  0.00  0.00    +0.001 A 
ATOM     37  C   UNL     1      -2.452   1.217  -0.144  0.00  0.00    +0.014 A 
ATOM     38  C   UNL     1      -1.082   1.404  -0.327  0.00  0.00    +0.048 A 
ATOM     39  C   UNL     1      -0.004   0.531  -0.829  0.00  0.00    +0.250 C 
ATOM     40  O   UNL     1      -0.102  -0.611  -1.226  0.00  0.00    -0.282 OA
ATOM     41  C   UNL     1       1.237   1.369  -0.747  0.00  0.00    +0.292 C 
ATOM     42  O   UNL     1       2.355   1.027  -1.071  0.00  0.00    -0.266 OA
ENDBRANCH  31  32
ENDBRANCH   2  31
TORSDOF 9
