REMARK  Name = ZINC01067750
REMARK  6 active torsions:
REMARK  status: ('A' for Active; 'I' for Inactive)
REMARK    1  A    between atoms: C_1  and  C_2
REMARK    2  A    between atoms: C_8  and  N_10
REMARK    3  A    between atoms: N_10  and  S_11
REMARK    4  A    between atoms: S_11  and  C_14
REMARK    5  A    between atoms: C_17  and  O_21
REMARK    6  A    between atoms: O_21  and  C_22
REMARK                            x       y       z     vdW  Elec       q    Type
REMARK                         _______ _______ _______ _____ _____    ______ ____
ROOT
ATOM      1  S   UNL     1       1.175   3.995  -0.041  0.00  0.00    +0.060 S 
ATOM      2  O   UNL     1       2.084   4.634  -0.926  0.00  0.00    -0.153 OA
ATOM      3  O   UNL     1      -0.222   4.253  -0.067  0.00  0.00    -0.153 OA
ENDROOT
BRANCH   1   4
ATOM      4  C   UNL     1       1.372   2.261  -0.281  0.00  0.00    +0.125 A 
ATOM      5  C   UNL     1       2.262   1.793  -1.230  0.00  0.00    +0.053 A 
ATOM      6  C   UNL     1       2.419   0.433  -1.420  0.00  0.00    +0.084 A 
ATOM      7  C   UNL     1       1.682  -0.464  -0.657  0.00  0.00    +0.140 A 
ATOM      8  C   UNL     1       0.791   0.009   0.294  0.00  0.00    +0.069 A 
ATOM      9  C   UNL     1       0.637   1.370   0.481  0.00  0.00    +0.071 A 
ATOM     10 CL   UNL     1      -0.479   1.962   1.672  0.00  0.00    -0.081 Cl
ATOM     11 CL   UNL     1       3.537  -0.155  -2.611  0.00  0.00    -0.080 Cl
BRANCH   7  12
ATOM     12  O   UNL     1       1.835  -1.801  -0.842  0.00  0.00    -0.494 OA
ATOM     13  C   UNL     1       1.045  -2.664  -0.021  0.00  0.00    +0.277 C 
ENDBRANCH   7  12
ENDBRANCH   1   4
BRANCH   1  14
ATOM     14  N   UNL     1       1.691   4.339   1.495  0.00  0.00    -0.187 NA
ATOM     15  H   UNL     1       1.059   4.658   2.159  0.00  0.00    +0.148 HD
BRANCH  14  22
ATOM     16  C   UNL     1       3.335   6.630   2.156  0.00  0.00    +0.009 C 
ATOM     17  C   UNL     1       3.525   5.265   2.822  0.00  0.00    +0.005 C 
ATOM     18  C   UNL     1       4.997   5.079   3.194  0.00  0.00    +0.005 C 
ATOM     19  C   UNL     1       5.186   3.714   3.860  0.00  0.00    +0.000 C 
ATOM     20  C   UNL     1       4.762   2.610   2.889  0.00  0.00    +0.002 C 
ATOM     21  C   UNL     1       3.290   2.796   2.517  0.00  0.00    +0.020 C 
ATOM     22  C   UNL     1       3.100   4.161   1.851  0.00  0.00    +0.079 C 
ENDBRANCH  14  22
ENDBRANCH   1  14
TORSDOF 4
