REMARK  Name = ZINC61963631
REMARK  7 active torsions:
REMARK  status: ('A' for Active; 'I' for Inactive)
REMARK    1  A    between atoms: C_5  and  C_7
REMARK    2  A    between atoms: C_7  and  C_8
REMARK    3  A    between atoms: C_7  and  O_24
REMARK    4  A    between atoms: C_8  and  N_9
REMARK    5  A    between atoms: N_12  and  C_13
REMARK    6  A    between atoms: C_13  and  C_14
REMARK    7  A    between atoms: C_13  and  C_19
REMARK                            x       y       z     vdW  Elec       q    Type
REMARK                         _______ _______ _______ _____ _____    ______ ____
ROOT
ATOM      1  N   UNL     1       1.514  -4.161   1.392  0.00  0.00    -0.297 N 
ATOM      2  C   UNL     1       1.657  -4.839   2.548  0.00  0.00    +0.300 C 
ATOM      3  O   UNL     1       1.671  -4.240   3.607  0.00  0.00    -0.253 OA
ATOM      4  N   UNL     1       1.786  -6.180   2.531  0.00  0.00    -0.292 N 
ATOM      5  H   UNL     1       1.503  -4.638   0.548  0.00  0.00    +0.150 HD
ATOM      6  H   UNL     1       1.775  -6.658   1.687  0.00  0.00    +0.151 HD
ENDROOT
BRANCH   1   7
ATOM      7  C   UNL     1       1.375  -2.703   1.411  0.00  0.00    +0.142 C 
BRANCH   7   8
ATOM      8  C   UNL     1       1.228  -2.186  -0.022  0.00  0.00    +0.164 C 
BRANCH   8  13
ATOM      9  C   UNL     1      -0.017   1.378   0.010  0.00  0.00    +0.001 A 
ATOM     10  C   UNL     1       1.171   2.087   0.002  0.00  0.00    +0.003 A 
ATOM     11  C   UNL     1       2.377   1.414  -0.013  0.00  0.00    +0.039 A 
ATOM     12  C   UNL     1       2.397   0.029  -0.021  0.00  0.00    +0.129 A 
ATOM     13  C   UNL     1       1.208  -0.679  -0.013  0.00  0.00    +0.018 A 
ATOM     14  C   UNL     1       0.002  -0.004   0.002  0.00  0.00    +0.009 A 
ATOM     15  F   UNL     1       3.577  -0.630  -0.036  0.00  0.00    -0.205 F 
ENDBRANCH   8  13
BRANCH   8  16
ATOM     16  O   UNL     1       0.008  -2.676  -0.582  0.00  0.00    -0.386 OA
ATOM     17  H   UNL     1      -0.784  -2.404  -0.099  0.00  0.00    +0.210 HD
ENDBRANCH   8  16
ENDBRANCH   7   8
ENDBRANCH   1   7
BRANCH   4  18
ATOM     18  C   UNL     1       1.942  -6.917   3.788  0.00  0.00    +0.114 C 
BRANCH  18  19
ATOM     19  C   UNL     1       3.395  -6.928   4.187  0.00  0.00    +0.010 A 
ATOM     20  C   UNL     1       3.942  -6.794   5.420  0.00  0.00    +0.013 A 
ATOM     21  C   UNL     1       5.318  -6.837   5.550  0.00  0.00    +0.008 A 
ATOM     22  C   UNL     1       6.078  -7.010   4.442  0.00  0.00    +0.045 A 
ATOM     23  S   UNL     1       4.841  -7.128   3.160  0.00  0.00    -0.100 S 
ENDBRANCH  18  19
BRANCH  18  24
ATOM     24  C   UNL     1       1.454  -8.355   3.600  0.00  0.00    +0.014 C 
ATOM     25  C   UNL     1       2.229  -9.030   2.449  0.00  0.00    +0.006 C 
ATOM     26  C   UNL     1       1.170  -9.914   1.745  0.00  0.00    +0.000 C 
ATOM     27  C   UNL     1      -0.104  -9.037   1.808  0.00  0.00    +0.000 C 
ATOM     28  C   UNL     1      -0.030  -8.359   3.192  0.00  0.00    +0.006 C 
ENDBRANCH  18  24
ENDBRANCH   4  18
TORSDOF 7
