REMARK  Name = ZINC02224228
REMARK  6 active torsions:
REMARK  status: ('A' for Active; 'I' for Inactive)
REMARK    1  A    between atoms: C_3  and  C_7
REMARK    2  A    between atoms: C_10  and  S_18
REMARK    3  A    between atoms: N_11  and  C_12
REMARK    4  A    between atoms: S_18  and  C_19
REMARK    5  A    between atoms: C_19  and  C_20
REMARK    6  A    between atoms: C_30  and  C_35
REMARK                            x       y       z     vdW  Elec       q    Type
REMARK                         _______ _______ _______ _____ _____    ______ ____
ROOT
ATOM      1  C   UNL     1      -0.002  -2.833  -1.108  0.00  0.00    +0.230 C 
ATOM      2  O   UNL     1      -1.020  -2.251  -1.415  0.00  0.00    -0.274 OA
ATOM      3  N   UNL     1       1.175  -2.176  -1.104  0.00  0.00    -0.254 N 
ATOM      4  C   UNL     1       1.222  -0.837  -1.452  0.00  0.00    +0.222 A 
ATOM      5  N   UNL     1       0.094  -0.223  -1.784  0.00  0.00    -0.222 NA
ATOM      6  C   UNL     1       0.095   1.054  -2.125  0.00  0.00    +0.127 A 
ATOM      7  C   UNL     1       1.313   1.745  -2.127  0.00  0.00    +0.057 A 
ATOM      8  C   UNL     1       2.481   1.065  -1.766  0.00  0.00    +0.057 A 
ATOM      9  N   UNL     1       2.391  -0.213  -1.441  0.00  0.00    -0.218 NA
ATOM     10  C   UNL     1       3.816   1.754  -1.736  0.00  0.00    +0.065 C 
ATOM     11  C   UNL     1       3.818   2.991  -2.631  0.00  0.00    +0.039 C 
ATOM     12  C   UNL     1       2.658   3.913  -2.233  0.00  0.00    +0.088 C 
ATOM     13  C   UNL     1       1.368   3.165  -2.506  0.00  0.00    +0.167 C 
ATOM     14  O   UNL     1       0.417   3.716  -3.019  0.00  0.00    -0.292 OA
ATOM     15  H   UNL     1       1.990  -2.642  -0.859  0.00  0.00    +0.158 HD
ENDROOT
BRANCH  11  16
ATOM     16  C   UNL     1       5.123   3.727  -2.467  0.00  0.00    -0.006 A 
ATOM     17  C   UNL     1       6.066   4.009  -3.398  0.00  0.00    +0.011 A 
ATOM     18  C   UNL     1       7.196   4.708  -3.017  0.00  0.00    +0.008 A 
ATOM     19  C   UNL     1       7.333   5.081  -1.721  0.00  0.00    +0.045 A 
ATOM     20  S   UNL     1       5.831   4.446  -0.994  0.00  0.00    -0.101 S 
ENDBRANCH  11  16
BRANCH   1  21
ATOM     21  C   UNL     1      -0.052  -4.291  -0.730  0.00  0.00    +0.173 C 
BRANCH  21  22
ATOM     22  S   UNL     1      -1.760  -4.882  -0.831  0.00  0.00    -0.077 S 
BRANCH  22  26
ATOM     23  C   UNL     1      -1.860  -8.662   0.155  0.00  0.00    +0.167 A 
ATOM     24  N   UNL     1      -0.586  -8.368   0.269  0.00  0.00    -0.128 NA
ATOM     25  N   UNL     1      -0.392  -7.133  -0.029  0.00  0.00    -0.122 NA
ATOM     26  C   UNL     1      -1.531  -6.562  -0.352  0.00  0.00    +0.193 A 
ATOM     27  N   UNL     1      -2.505  -7.513  -0.241  0.00  0.00    -0.299 N 
BRANCH  23  30
ATOM     28  C   UNL     1      -4.335 -11.317   1.108  0.00  0.00    +0.020 A 
ATOM     29  C   UNL     1      -3.795 -10.061   0.891  0.00  0.00    +0.014 A 
ATOM     30  C   UNL     1      -2.485  -9.977   0.408  0.00  0.00    +0.037 A 
ATOM     31  C   UNL     1      -1.775 -11.156   0.176  0.00  0.00    +0.122 A 
ATOM     32  N   UNL     1      -2.331 -12.328   0.403  0.00  0.00    -0.263 NA
ATOM     33  C   UNL     1      -3.566 -12.438   0.853  0.00  0.00    +0.111 A 
ENDBRANCH  23  30
BRANCH  27  34
ATOM     34  C   UNL     1      -3.939  -7.345  -0.494  0.00  0.00    +0.091 C 
ATOM     35  C   UNL     1      -4.146  -6.780  -1.901  0.00  0.00    +0.025 C 
ATOM     36  C   UNL     1      -5.642  -6.604  -2.165  0.00  0.00    +0.002 C 
ATOM     37  C   UNL     1      -6.232  -5.639  -1.135  0.00  0.00    +0.000 C 
ATOM     38  C   UNL     1      -6.025  -6.204   0.272  0.00  0.00    +0.002 C 
ATOM     39  C   UNL     1      -4.528  -6.379   0.536  0.00  0.00    +0.025 C 
ENDBRANCH  27  34
ENDBRANCH  22  26
ENDBRANCH  21  22
ENDBRANCH   1  21
TORSDOF 6
