REMARK  Name = ZINC36601249
REMARK  15 active torsions:
REMARK  status: ('A' for Active; 'I' for Inactive)
REMARK    1  A    between atoms: C_1  and  C_2
REMARK    2  A    between atoms: C_5  and  C_7
REMARK    3  A    between atoms: C_7  and  N_8
REMARK    4  A    between atoms: N_8  and  C_9
REMARK    5  A    between atoms: C_9  and  C_11
REMARK    6  A    between atoms: C_9  and  C_18
REMARK    7  A    between atoms: N_20  and  C_21
REMARK    8  A    between atoms: C_21  and  C_22
REMARK    9  A    between atoms: C_21  and  C_23
REMARK   10  A    between atoms: C_21  and  C_24
REMARK   11  A    between atoms: C_24  and  C_25
REMARK   12  A    between atoms: C_25  and  C_26
REMARK   13  A    between atoms: C_25  and  C_27
REMARK   14  A    between atoms: C_25  and  C_28
REMARK   15  A    between atoms: C_29  and  C_31
REMARK                            x       y       z     vdW  Elec       q    Type
REMARK                         _______ _______ _______ _____ _____    ______ ____
ROOT
ATOM      1  C   UNL     1       6.120  -2.743  -1.375  0.00  0.00    +0.193 C 
ENDROOT
BRANCH   1   2
ATOM      2  C   UNL     1       4.851  -2.933  -2.165  0.00  0.00    -0.018 A 
ATOM      3  C   UNL     1       4.416  -4.207  -2.479  0.00  0.00    +0.007 A 
ATOM      4  C   UNL     1       3.252  -4.382  -3.203  0.00  0.00    +0.020 A 
ATOM      5  C   UNL     1       2.522  -3.281  -3.615  0.00  0.00    +0.041 A 
ATOM      6  C   UNL     1       2.958  -2.006  -3.301  0.00  0.00    +0.020 A 
ATOM      7  C   UNL     1       4.119  -1.833  -2.572  0.00  0.00    +0.007 A 
ATOM      8 CL   UNL     1       1.061  -3.499  -4.526  0.00  0.00    -0.084 Cl
ENDBRANCH   1   2
BRANCH   1   9
ATOM      9  C   UNL     1       7.038  -3.914  -1.610  0.00  0.00    +0.239 C 
ATOM     10  O   UNL     1       7.389  -4.606  -0.678  0.00  0.00    -0.273 OA
ATOM     11  N   UNL     1       7.469  -4.193  -2.856  0.00  0.00    -0.308 N 
ATOM     12  H   UNL     1       7.188  -3.640  -3.602  0.00  0.00    +0.149 HD
BRANCH  11  13
ATOM     13  C   UNL     1       8.362  -5.332  -3.085  0.00  0.00    +0.030 C 
ATOM     14  C   UNL     1       9.446  -5.355  -2.006  0.00  0.00    +0.031 C 
ATOM     15  C   UNL     1       7.556  -6.632  -3.026  0.00  0.00    +0.031 C 
BRANCH  13  16
ATOM     16  C   UNL     1       9.015  -5.200  -4.462  0.00  0.00    +0.031 C 
BRANCH  16  17
ATOM     17  C   UNL     1       7.948  -4.852  -5.502  0.00  0.00    -0.036 C 
ATOM     18  C   UNL     1       7.471  -3.415  -5.282  0.00  0.00    +0.010 C 
ATOM     19  C   UNL     1       8.542  -4.983  -6.905  0.00  0.00    +0.010 C 
ATOM     20  C   UNL     1       6.764  -5.810  -5.357  0.00  0.00    +0.010 C 
ENDBRANCH  16  17
ENDBRANCH  13  16
ENDBRANCH  11  13
ENDBRANCH   1   9
BRANCH   1  21
ATOM     21  N   UNL     1       5.798  -2.653   0.051  0.00  0.00    -0.277 N 
ATOM     22  C   UNL     1       5.288  -3.721   0.696  0.00  0.00    +0.237 C 
ATOM     23  O   UNL     1       5.149  -4.774   0.109  0.00  0.00    -0.274 OA
BRANCH  22  24
ATOM     24  C   UNL     1       4.890  -3.608   2.145  0.00  0.00    +0.159 C 
ATOM     25  C   UNL     1       6.131  -3.749   3.053  0.00  0.00    +0.041 C 
ATOM     26  C   UNL     1       6.117  -5.261   3.373  0.00  0.00    +0.098 C 
ATOM     27  C   UNL     1       4.669  -5.663   3.203  0.00  0.00    +0.214 C 
ATOM     28  O   UNL     1       4.178  -6.689   3.624  0.00  0.00    -0.276 OA
ATOM     29  N   UNL     1       4.003  -4.716   2.516  0.00  0.00    -0.304 N 
ATOM     30  H   UNL     1       3.059  -4.760   2.295  0.00  0.00    +0.149 HD
ENDBRANCH  22  24
BRANCH  21  31
ATOM     31  C   UNL     1       6.031  -1.402   0.777  0.00  0.00    +0.183 C 
BRANCH  31  36
ATOM     32  C   UNL     1       2.691   2.018  -0.831  0.00  0.00    +0.086 C 
ATOM     33  C   UNL     1       3.345   0.947   0.004  0.00  0.00    +0.102 A 
ATOM     34  C   UNL     1       2.839   0.407   1.127  0.00  0.00    +0.045 A 
ATOM     35  C   UNL     1       3.776  -0.551   1.578  0.00  0.00    +0.046 A 
ATOM     36  C   UNL     1       4.797  -0.540   0.703  0.00  0.00    +0.122 A 
ATOM     37  O   UNL     1       4.527   0.365  -0.252  0.00  0.00    -0.463 OA
ENDBRANCH  31  36
ENDBRANCH  21  31
ENDBRANCH   1  21
TORSDOF 9
