REMARK  Name = ZINC04210668
REMARK  6 active torsions:
REMARK  status: ('A' for Active; 'I' for Inactive)
REMARK    1  A    between atoms: C_1  and  C_2
REMARK    2  A    between atoms: C_5  and  C_7
REMARK    3  A    between atoms: N_8  and  N_9
REMARK    4  A    between atoms: C_10  and  C_12
REMARK    5  A    between atoms: C_12  and  N_13
REMARK    6  A    between atoms: C_14  and  C_16
REMARK                            x       y       z     vdW  Elec       q    Type
REMARK                         _______ _______ _______ _____ _____    ______ ____
ROOT
ATOM      1  N   UNL     1      -7.190   1.907   0.050  0.00  0.00    -0.302 N 
ATOM      2  C   UNL     1      -8.415   2.470   0.059  0.00  0.00    +0.253 C 
ATOM      3  O   UNL     1      -8.527   3.681   0.066  0.00  0.00    -0.270 OA
ATOM      4  H   UNL     1      -7.100   0.941   0.044  0.00  0.00    +0.150 HD
ENDROOT
BRANCH   2   5
ATOM      5  C   UNL     1      -9.612   1.621   0.061  0.00  0.00    +0.093 A 
ATOM      6  C   UNL     1     -10.920   1.999   0.075  0.00  0.00    +0.068 A 
ATOM      7  C   UNL     1     -11.932   1.021   0.070  0.00  0.00    +0.008 A 
ATOM      8  C   UNL     1     -13.338   1.212   0.078  0.00  0.00    +0.010 A 
ATOM      9  C   UNL     1     -14.184   0.150   0.077  0.00  0.00    +0.001 A 
ATOM     10  C   UNL     1     -13.712  -1.157   0.068  0.00  0.00    +0.001 A 
ATOM     11  C   UNL     1     -12.352  -1.389   0.060  0.00  0.00    +0.016 A 
ATOM     12  C   UNL     1     -11.480  -0.320   0.061  0.00  0.00    +0.021 A 
ATOM     13  S   UNL     1      -9.713  -0.161   0.053  0.00  0.00    -0.082 S 
ATOM     14 CL   UNL     1     -11.338   3.683   0.095  0.00  0.00    -0.082 Cl
ENDBRANCH   2   5
BRANCH   1  15
ATOM     15  C   UNL     1      -5.995   2.754   0.048  0.00  0.00    +0.202 C 
BRANCH  15  17
ATOM     16  N   UNL     1      -3.540   2.451   0.033  0.00  0.00    -0.206 N 
ATOM     17  C   UNL     1      -4.763   1.886   0.037  0.00  0.00    +0.249 C 
ATOM     18  O   UNL     1      -4.873   0.677   0.031  0.00  0.00    -0.272 OA
ATOM     19  H   UNL     1      -3.452   3.417   0.038  0.00  0.00    +0.177 HD
BRANCH  16  21
ATOM     20  C   UNL     1      -1.214   2.189   0.020  0.00  0.00    +0.176 C 
ATOM     21  N   UNL     1      -2.395   1.643   0.023  0.00  0.00    -0.185 NA
BRANCH  20  26
ATOM     22  C   UNL     1       1.715  -1.874  -0.025  0.00  0.00    +0.086 C 
ATOM     23  C   UNL     1       1.274  -0.433  -0.012  0.00  0.00    +0.103 A 
ATOM     24  C   UNL     1       2.093   0.639  -0.015  0.00  0.00    +0.045 A 
ATOM     25  C   UNL     1       1.276   1.784  -0.001  0.00  0.00    +0.051 A 
ATOM     26  C   UNL     1      -0.016   1.344   0.009  0.00  0.00    +0.148 A 
ATOM     27  O   UNL     1       0.002  -0.004   0.002  0.00  0.00    -0.459 OA
ENDBRANCH  20  26
ENDBRANCH  16  21
ENDBRANCH  15  17
ENDBRANCH   1  15
TORSDOF 5
