REMARK  Name = ZINC16809275
REMARK  10 active torsions:
REMARK  status: ('A' for Active; 'I' for Inactive)
REMARK    1  A    between atoms: C_1  and  C_2
REMARK    2  A    between atoms: C_2  and  C_3
REMARK    3  A    between atoms: C_3  and  C_4
REMARK    4  A    between atoms: C_4  and  C_5
REMARK    5  A    between atoms: C_5  and  C_6
REMARK    6  A    between atoms: C_6  and  C_7
REMARK    7  A    between atoms: C_8  and  C_36
REMARK    8  A    between atoms: C_21  and  C_25
REMARK    9  A    between atoms: C_22  and  C_24
REMARK   10  A    between atoms: C_25  and  C_26
REMARK                            x       y       z     vdW  Elec       q    Type
REMARK                         _______ _______ _______ _____ _____    ______ ____
ROOT
ATOM      1  C   UNL     1      -0.009  -0.212   3.167  0.00  0.00    +0.038 A 
ATOM      2  C   UNL     1       0.862   0.732   3.624  0.00  0.00    +0.050 A 
ATOM      3  N   UNL     1       1.594   0.496   4.711  0.00  0.00    -0.221 NA
ATOM      4  C   UNL     1       1.498  -0.642   5.368  0.00  0.00    +0.202 A 
ATOM      5  N   UNL     1       0.646  -1.621   4.960  0.00  0.00    -0.295 N 
ATOM      6  H   UNL     1       0.588  -2.453   5.455  0.00  0.00    +0.172 HD
ATOM      7  C   UNL     1      -0.122  -1.428   3.866  0.00  0.00    +0.256 A 
ATOM      8  O   UNL     1      -0.894  -2.293   3.488  0.00  0.00    -0.267 OA
ATOM      9  N   UNL     1       2.272  -0.843   6.485  0.00  0.00    -0.255 N 
ATOM     10  C   UNL     1       3.136   0.138   6.908  0.00  0.00    +0.202 A 
ATOM     11  N   UNL     1       3.893  -0.072   8.019  0.00  0.00    -0.295 N 
ATOM     12  H   UNL     1       3.821  -0.908   8.506  0.00  0.00    +0.172 HD
ATOM     13  C   UNL     1       4.748   0.885   8.438  0.00  0.00    +0.256 A 
ATOM     14  O   UNL     1       5.437   0.712   9.430  0.00  0.00    -0.267 OA
ATOM     15  C   UNL     1       4.825   2.088   7.713  0.00  0.00    +0.042 A 
ATOM     16  C   UNL     1       4.038   2.243   6.609  0.00  0.00    +0.050 A 
ATOM     17  N   UNL     1       3.214   1.267   6.234  0.00  0.00    -0.221 NA
ATOM     18  C   UNL     1       4.101   3.521   5.814  0.00  0.00    +0.066 C 
ATOM     19  C   UNL     1       0.998   2.045   2.897  0.00  0.00    +0.066 C 
ATOM     20  H   UNL     1       2.208  -1.678   6.976  0.00  0.00    +0.158 HD
ENDROOT
BRANCH   1  21
ATOM     21  C   UNL     1      -0.843   0.044   1.938  0.00  0.00    +0.042 C 
BRANCH  21  22
ATOM     22  C   UNL     1      -0.139  -0.543   0.713  0.00  0.00    +0.005 C 
BRANCH  22  23
ATOM     23  C   UNL     1      -0.985  -0.283  -0.535  0.00  0.00    +0.000 C 
BRANCH  23  24
ATOM     24  C   UNL     1      -0.281  -0.870  -1.760  0.00  0.00    -0.000 C 
BRANCH  24  26
ATOM     25  C   UNL     1      -0.423  -1.197  -4.233  0.00  0.00    +0.004 C 
ATOM     26  C   UNL     1      -1.127  -0.610  -3.008  0.00  0.00    -0.003 C 
ENDBRANCH  24  26
ENDBRANCH  23  24
ENDBRANCH  22  23
ENDBRANCH  21  22
ENDBRANCH   1  21
BRANCH  15  27
ATOM     27  C   UNL     1       5.761   3.186   8.147  0.00  0.00    +0.078 C 
BRANCH  27  28
ATOM     28  C   UNL     1       5.082   4.044   9.184  0.00  0.00    -0.035 A 
ATOM     29  C   UNL     1       3.774   3.832   9.498  0.00  0.00    +0.004 A 
ATOM     30  C   UNL     1       3.130   4.614  10.453  0.00  0.00    +0.001 A 
ATOM     31  C   UNL     1       3.789   5.614  11.101  0.00  0.00    +0.008 A 
ATOM     32  C   UNL     1       5.139   5.863  10.804  0.00  0.00    -0.018 A 
ATOM     33  C   UNL     1       5.796   5.063   9.835  0.00  0.00    -0.014 A 
ATOM     34  C   UNL     1       7.146   5.315   9.535  0.00  0.00    +0.009 A 
ATOM     35  C   UNL     1       7.805   6.315  10.182  0.00  0.00    +0.001 A 
ATOM     36  C   UNL     1       7.160   7.098  11.138  0.00  0.00    +0.001 A 
ATOM     37  C   UNL     1       5.853   6.886  11.452  0.00  0.00    +0.008 A 
ENDBRANCH  27  28
ENDBRANCH  15  27
TORSDOF 7
