REMARK  Name = ZINC40799966
REMARK  5 active torsions:
REMARK  status: ('A' for Active; 'I' for Inactive)
REMARK    1  A    between atoms: C_3  and  N_11
REMARK    2  A    between atoms: C_6  and  C_7
REMARK    3  A    between atoms: C_13  and  N_25
REMARK    4  A    between atoms: C_14  and  O_18
REMARK    5  A    between atoms: O_18  and  C_19
REMARK                            x       y       z     vdW  Elec       q    Type
REMARK                         _______ _______ _______ _____ _____    ______ ____
ROOT
ATOM      1  N   UNL     1       3.583   2.122  -0.021  0.00  0.00    -0.298 N 
ATOM      2  C   UNL     1       4.794   1.446   0.069  0.00  0.00    +0.151 A 
ATOM      3  C   UNL     1       5.995   2.151   0.172  0.00  0.00    +0.128 A 
ATOM      4  C   UNL     1       7.181   1.424   0.259  0.00  0.00    +0.241 A 
ATOM      5  N   UNL     1       7.125   0.095   0.241  0.00  0.00    -0.200 NA
ATOM      6  C   UNL     1       5.971  -0.533   0.142  0.00  0.00    +0.227 A 
ATOM      7  N   UNL     1       4.827   0.116   0.063  0.00  0.00    -0.218 NA
ATOM      8  H   UNL     1       3.572   3.090  -0.094  0.00  0.00    +0.154 HD
ENDROOT
BRANCH   1  11
ATOM      9  C   UNL     1       1.087  -0.465   0.744  0.00  0.00    +0.014 A 
ATOM     10  C   UNL     1       2.276   0.237   0.731  0.00  0.00    +0.024 A 
ATOM     11  C   UNL     1       2.381   1.409  -0.007  0.00  0.00    +0.032 A 
ATOM     12  C   UNL     1       1.288   1.871  -0.730  0.00  0.00    +0.024 A 
ATOM     13  C   UNL     1       0.102   1.164  -0.713  0.00  0.00    +0.014 A 
ATOM     14  C   UNL     1       0.001  -0.002   0.023  0.00  0.00    +0.055 A 
BRANCH  14  15
ATOM     15  C   UNL     1      -1.295  -0.771   0.039  0.00  0.00    +0.417 C 
ATOM     16  F   UNL     1      -2.095  -0.314   1.091  0.00  0.00    -0.166 F 
ATOM     17  F   UNL     1      -1.965  -0.580  -1.174  0.00  0.00    -0.166 F 
ATOM     18  F   UNL     1      -1.027  -2.133   0.214  0.00  0.00    -0.166 F 
ENDBRANCH  14  15
ENDBRANCH   1  11
BRANCH   3  19
ATOM     19  N   UNL     1       6.008   3.555   0.187  0.00  0.00    -0.351 N 
ATOM     20  H   UNL     1       5.175   4.048   0.126  0.00  0.00    +0.143 HD
ATOM     21  H   UNL     1       6.850   4.031   0.260  0.00  0.00    +0.143 HD
ENDBRANCH   3  19
BRANCH   4  22
ATOM     22  O   UNL     1       8.374   2.061   0.361  0.00  0.00    -0.472 OA
BRANCH  22  23
ATOM     23  C   UNL     1       9.542   1.242   0.445  0.00  0.00    +0.175 C 
ATOM     24  C   UNL     1       9.844   0.935   1.914  0.00  0.00    +0.044 C 
ATOM     25  C   UNL     1      11.095   0.058   2.004  0.00  0.00    +0.004 C 
ATOM     26  C   UNL     1      12.282   0.797   1.383  0.00  0.00    +0.000 C 
ATOM     27  C   UNL     1      11.980   1.104  -0.085  0.00  0.00    +0.004 C 
ATOM     28  C   UNL     1      10.729   1.981  -0.176  0.00  0.00    +0.044 C 
ENDBRANCH  22  23
ENDBRANCH   4  22
TORSDOF 5
