REMARK  Name = ZINC41077838
REMARK  8 active torsions:
REMARK  status: ('A' for Active; 'I' for Inactive)
REMARK    1  A    between atoms: C_1  and  O_2
REMARK    2  A    between atoms: O_2  and  C_3
REMARK    3  A    between atoms: C_7  and  C_9
REMARK    4  A    between atoms: C_9  and  O_11
REMARK    5  A    between atoms: O_11  and  C_12
REMARK    6  A    between atoms: C_15  and  C_18
REMARK    7  A    between atoms: C_28  and  S_30
REMARK    8  A    between atoms: S_30  and  C_33
REMARK                            x       y       z     vdW  Elec       q    Type
REMARK                         _______ _______ _______ _____ _____    ______ ____
ROOT
ATOM      1  C   UNL     1      -3.783  -6.134   0.196  0.00  0.00    +0.132 A 
ATOM      2  C   UNL     1      -2.692  -6.962   0.440  0.00  0.00    +0.047 A 
ATOM      3  C   UNL     1      -2.825  -8.323   0.340  0.00  0.00    +0.011 A 
ATOM      4  C   UNL     1      -4.064  -8.880  -0.007  0.00  0.00    -0.024 A 
ATOM      5  C   UNL     1      -5.160  -8.040  -0.251  0.00  0.00    +0.011 A 
ATOM      6  C   UNL     1      -5.016  -6.681  -0.143  0.00  0.00    +0.047 A 
ENDROOT
BRANCH   4   7
ATOM      7  C   UNL     1      -4.213 -10.333  -0.116  0.00  0.00    +0.024 C 
ATOM      8  C   UNL     1      -3.172 -11.098  -0.591  0.00  0.00    +0.081 C 
ATOM      9  C   UNL     1      -3.209 -12.588  -0.552  0.00  0.00    +0.153 C 
ATOM     10  N   UNL     1      -4.308 -13.281  -0.684  0.00  0.00    -0.283 NA
ATOM     11  N   UNL     1      -1.940 -13.175  -0.358  0.00  0.00    -0.150 N 
ATOM     12  C   UNL     1      -0.835 -12.434  -0.716  0.00  0.00    +0.182 C 
ATOM     13  N   UNL     1      -0.806 -11.193  -1.135  0.00  0.00    -0.152 NA
ATOM     14  C   UNL     1      -1.954 -10.484  -1.177  0.00  0.00    +0.273 C 
ATOM     15  O   UNL     1      -1.989  -9.371  -1.676  0.00  0.00    -0.268 OA
ATOM     16  S   UNL     1       0.487 -13.582  -0.439  0.00  0.00    -0.015 S 
ATOM     17  C   UNL     1      -0.498 -14.919   0.223  0.00  0.00    +0.235 C 
ATOM     18  N   UNL     1      -1.705 -14.435   0.149  0.00  0.00    -0.145 NA
ATOM     19  H   UNL     1      -4.277 -14.250  -0.651  0.00  0.00    +0.188 HD
BRANCH  17  20
ATOM     20  S   UNL     1       0.029 -16.490   0.823  0.00  0.00    +0.019 S 
ATOM     21  O   UNL     1       1.323 -16.257   1.360  0.00  0.00    -0.168 OA
ATOM     22  O   UNL     1      -1.033 -16.934   1.656  0.00  0.00    -0.168 OA
ATOM     23  C   UNL     1       0.145 -17.537  -0.654  0.00  0.00    +0.202 C 
ENDBRANCH  17  20
ENDBRANCH   4   7
BRANCH   1  24
ATOM     24  O   UNL     1      -3.645  -4.788   0.296  0.00  0.00    -0.422 OA
BRANCH  24  25
ATOM     25  C   UNL     1      -3.037  -4.138  -0.716  0.00  0.00    +0.345 C 
ATOM     26  O   UNL     1      -2.552  -4.764  -1.636  0.00  0.00    -0.245 OA
BRANCH  25  31
ATOM     27  C   UNL     1      -2.262  -0.604  -1.734  0.00  0.00    +0.121 A 
ATOM     28  C   UNL     1      -2.819   0.107  -0.679  0.00  0.00    +0.045 A 
ATOM     29  C   UNL     1      -3.443  -0.561   0.358  0.00  0.00    +0.004 A 
ATOM     30  C   UNL     1      -3.517  -1.939   0.352  0.00  0.00    +0.015 A 
ATOM     31  C   UNL     1      -2.960  -2.662  -0.705  0.00  0.00    +0.063 A 
ATOM     32  C   UNL     1      -2.336  -1.986  -1.754  0.00  0.00    +0.060 A 
BRANCH  27  34
ATOM     33  C   UNL     1      -1.610   1.485  -2.665  0.00  0.00    +0.277 C 
ATOM     34  O   UNL     1      -1.649   0.059  -2.751  0.00  0.00    -0.495 OA
ENDBRANCH  27  34
ENDBRANCH  25  31
ENDBRANCH  24  25
ENDBRANCH   1  24
TORSDOF 6
