REMARK  Name = ZINC28296804
REMARK  8 active torsions:
REMARK  status: ('A' for Active; 'I' for Inactive)
REMARK    1  A    between atoms: C_1  and  C_2
REMARK    2  A    between atoms: C_2  and  C_4
REMARK    3  A    between atoms: C_2  and  N_10
REMARK    4  A    between atoms: N_10  and  C_11
REMARK    5  A    between atoms: C_11  and  C_12
REMARK    6  A    between atoms: C_12  and  C_14
REMARK    7  A    between atoms: C_12  and  O_29
REMARK    8  A    between atoms: C_14  and  N_15
REMARK                            x       y       z     vdW  Elec       q    Type
REMARK                         _______ _______ _______ _____ _____    ______ ____
ROOT
ATOM      1  C   UNL     1       0.280   6.622   1.113  0.00  0.00    +0.117 C 
ENDROOT
BRANCH   1   2
ATOM      2  O   UNL     1       0.667   7.382  -0.034  0.00  0.00    -0.392 OA
ATOM      3  H   UNL     1       0.685   6.909  -1.027  0.00  0.00    +0.210 HD
ENDBRANCH   1   2
BRANCH   1   4
ATOM      4  C   UNL     1       0.340   7.511   2.357  0.00  0.00    -0.048 C 
BRANCH   4   5
ATOM      5  N   UNL     1       1.710   8.007   2.539  0.00  0.00    +0.385 N 
ATOM      6  H   UNL     1       1.998   8.582   1.646  0.00  0.00    -0.085 HD
ATOM      7  H   UNL     1       2.385   7.146   2.653  0.00  0.00    -0.085 HD
BRANCH   5   9
ATOM      8  C   UNL     1       1.407  10.296   3.356  0.00  0.00    -0.009 C 
ATOM      9  C   UNL     1       1.806   8.866   3.727  0.00  0.00    -0.044 C 
BRANCH   9  10
ATOM     10  C   UNL     1       3.223   8.857   4.240  0.00  0.00    -0.062 A 
ATOM     11  C   UNL     1       4.281   8.879   3.350  0.00  0.00    +0.002 A 
ATOM     12  C   UNL     1       5.580   8.874   3.822  0.00  0.00    +0.000 A 
ATOM     13  C   UNL     1       5.822   8.839   5.182  0.00  0.00    +0.000 A 
ATOM     14  C   UNL     1       4.764   8.812   6.072  0.00  0.00    +0.000 A 
ATOM     15  C   UNL     1       3.465   8.820   5.601  0.00  0.00    +0.002 A 
ENDBRANCH   9  10
ENDBRANCH   5   9
ENDBRANCH   4   5
ENDBRANCH   1   4
BRANCH   1  16
ATOM     16  C   UNL     1      -1.148   6.105   0.924  0.00  0.00    +0.151 C 
BRANCH  16  17
ATOM     17  N   UNL     1      -1.180   5.155  -0.191  0.00  0.00    -0.340 N 
ATOM     18  C   UNL     1      -1.512   5.467  -1.483  0.00  0.00    +0.023 A 
ATOM     19  C   UNL     1      -1.443   4.360  -2.253  0.00  0.00    -0.019 A 
ATOM     20  C   UNL     1      -1.035   3.268  -1.393  0.00  0.00    +0.005 A 
ATOM     21  C   UNL     1      -0.882   3.826  -0.098  0.00  0.00    +0.068 A 
ATOM     22  C   UNL     1      -0.491   3.028   0.976  0.00  0.00    +0.065 A 
ATOM     23  C   UNL     1      -0.265   1.687   0.712  0.00  0.00    +0.022 A 
ATOM     24  C   UNL     1      -0.417   1.148  -0.555  0.00  0.00    +0.002 A 
ATOM     25  C   UNL     1      -0.801   1.910  -1.631  0.00  0.00    +0.010 A 
ATOM     26 CL   UNL     1      -0.297   3.684   2.571  0.00  0.00    -0.081 Cl
ATOM     27  C   UNL     1      -1.744   4.329  -3.730  0.00  0.00    +0.037 C 
ATOM     28  C   UNL     1      -2.514   5.603  -4.098  0.00  0.00    +0.005 C 
ATOM     29  C   UNL     1      -1.778   6.821  -3.533  0.00  0.00    +0.006 C 
ATOM     30  C   UNL     1      -1.902   6.829  -2.006  0.00  0.00    +0.054 C 
ENDBRANCH  16  17
ENDBRANCH   1  16
TORSDOF 7
