REMARK  Name = ZINC23368675
REMARK  3 active torsions:
REMARK  status: ('A' for Active; 'I' for Inactive)
REMARK    1  A    between atoms: C_1  and  C_2
REMARK    2  A    between atoms: C_8  and  C_10
REMARK    3  A    between atoms: C_16  and  C_18
REMARK                            x       y       z     vdW  Elec       q    Type
REMARK                         _______ _______ _______ _____ _____    ______ ____
ROOT
ATOM      1  C   UNL     1      -6.670   2.549   0.700  0.00  0.00    +0.041 C 
ATOM      2  C   UNL     1      -6.913   1.048   0.879  0.00  0.00    +0.029 C 
ATOM      3  C   UNL     1      -6.162   0.280  -0.213  0.00  0.00    +0.109 C 
ATOM      4  N   UNL     1      -4.747   0.670  -0.177  0.00  0.00    -0.297 N 
ATOM      5  C   UNL     1      -4.405   2.097  -0.245  0.00  0.00    +0.109 C 
ATOM      6  C   UNL     1      -5.176   2.845   0.841  0.00  0.00    +0.029 C 
ATOM      7  C   UNL     1      -3.779  -0.263  -0.079  0.00  0.00    +0.253 C 
ATOM      8  O   UNL     1      -2.620   0.075   0.070  0.00  0.00    -0.269 OA
ENDROOT
BRANCH   7   9
ATOM      9  C   UNL     1      -4.124  -1.686  -0.150  0.00  0.00    +0.075 A 
ATOM     10  C   UNL     1      -3.411  -2.781   0.306  0.00  0.00    +0.024 A 
ATOM     11  C   UNL     1      -3.955  -4.046   0.109  0.00  0.00    -0.036 A 
ATOM     12  C   UNL     1      -5.165  -4.094  -0.494  0.00  0.00    -0.006 A 
ATOM     13  S   UNL     1      -5.572  -2.462  -0.850  0.00  0.00    -0.088 S 
ATOM     14  C   UNL     1      -5.981  -5.337  -0.771  0.00  0.00    +0.043 C 
ATOM     15  C   UNL     1      -5.220  -6.153  -1.830  0.00  0.00    +0.005 C 
ATOM     16  C   UNL     1      -4.088  -6.921  -1.189  0.00  0.00    +0.001 C 
ATOM     17  C   UNL     1      -2.901  -6.112  -0.734  0.00  0.00    +0.005 C 
ATOM     18  C   UNL     1      -3.206  -5.313   0.535  0.00  0.00    +0.036 C 
ENDBRANCH   7   9
BRANCH   1  26
ATOM     19  C   UNL     1      -7.508   3.457   5.427  0.00  0.00    +0.086 C 
ATOM     20  C   UNL     1      -7.831   3.740   3.982  0.00  0.00    +0.107 A 
ATOM     21  N   UNL     1      -8.778   4.650   3.684  0.00  0.00    -0.311 N 
ATOM     22  H   UNL     1      -9.306   5.178   4.492  0.00  0.00    +0.170 HD
ATOM     23  C   UNL     1      -9.077   4.914   2.394  0.00  0.00    +0.252 A 
ATOM     24  O   UNL     1      -9.932   5.736   2.108  0.00  0.00    -0.268 OA
ATOM     25  C   UNL     1      -8.377   4.222   1.384  0.00  0.00    +0.093 A 
ATOM     26  C   UNL     1      -7.435   3.310   1.752  0.00  0.00    +0.052 A 
ATOM     27  N   UNL     1      -7.186   3.095   3.046  0.00  0.00    -0.239 NA
ENDBRANCH   1  26
TORSDOF 2
