REMARK  Name = ZINC66972820
REMARK  8 active torsions:
REMARK  status: ('A' for Active; 'I' for Inactive)
REMARK    1  A    between atoms: C_1  and  C_2
REMARK    2  A    between atoms: N_5  and  C_8
REMARK    3  A    between atoms: C_8  and  C_9
REMARK    4  A    between atoms: C_14  and  C_15
REMARK    5  A    between atoms: C_15  and  N_16
REMARK    6  A    between atoms: N_16  and  C_17
REMARK    7  A    between atoms: C_17  and  C_18
REMARK    8  A    between atoms: C_23  and  N_24
REMARK                            x       y       z     vdW  Elec       q    Type
REMARK                         _______ _______ _______ _____ _____    ______ ____
ROOT
ATOM      1  C   UNL     1      -2.307  -3.806   3.848  0.00  0.00    -0.046 C 
ENDROOT
BRANCH   1   7
ATOM      2  C   UNL     1      -0.143  -4.380   2.730  0.00  0.00    -0.063 A 
ATOM      3  C   UNL     1       1.161  -4.838   2.771  0.00  0.00    +0.002 A 
ATOM      4  C   UNL     1       1.718  -5.231   3.973  0.00  0.00    +0.000 A 
ATOM      5  C   UNL     1       0.971  -5.166   5.135  0.00  0.00    +0.000 A 
ATOM      6  C   UNL     1      -0.332  -4.708   5.094  0.00  0.00    +0.002 A 
ATOM      7  C   UNL     1      -0.888  -4.311   3.892  0.00  0.00    -0.063 A 
BRANCH   2   8
ATOM      8  C   UNL     1      -0.750  -3.952   1.419  0.00  0.00    -0.043 C 
BRANCH   8  13
ATOM      9  C   UNL     1      -0.019   1.526   0.010  0.00  0.00    +0.007 C 
ATOM     10  C   UNL     1       0.002  -0.004   0.002  0.00  0.00    -0.018 C 
ATOM     11  C   UNL     1      -1.434  -0.536   0.023  0.00  0.00    -0.016 C 
ATOM     12  C   UNL     1      -1.405  -2.064   0.095  0.00  0.00    -0.078 C 
ATOM     13  N   UNL     1      -0.707  -2.487   1.315  0.00  0.00    +0.382 N 
ATOM     14  C   UNL     1       0.691  -2.042   1.269  0.00  0.00    -0.078 C 
ATOM     15  C   UNL     1       0.743  -0.513   1.242  0.00  0.00    -0.016 C 
ATOM     16  H   UNL     1      -1.162  -2.082   2.119  0.00  0.00    -0.081 HD
ENDBRANCH   8  13
ENDBRANCH   2   8
ENDBRANCH   1   7
BRANCH   1  17
ATOM     17  N   UNL     1      -3.195  -4.881   3.387  0.00  0.00    +0.384 N 
ATOM     18  H   UNL     1      -2.915  -5.177   2.464  0.00  0.00    -0.085 HD
ATOM     19  H   UNL     1      -3.136  -5.663   4.022  0.00  0.00    -0.085 HD
BRANCH  17  20
ATOM     20  C   UNL     1      -4.579  -4.389   3.344  0.00  0.00    -0.044 C 
BRANCH  20  21
ATOM     21  C   UNL     1      -5.490  -5.492   2.871  0.00  0.00    -0.043 A 
ATOM     22  C   UNL     1      -5.909  -5.527   1.555  0.00  0.00    +0.003 A 
ATOM     23  C   UNL     1      -6.745  -6.538   1.120  0.00  0.00    +0.000 A 
ATOM     24  C   UNL     1      -7.165  -7.519   2.001  0.00  0.00    +0.002 A 
ATOM     25  C   UNL     1      -6.750  -7.491   3.317  0.00  0.00    +0.023 A 
ATOM     26  C   UNL     1      -5.905  -6.479   3.756  0.00  0.00    +0.031 A 
BRANCH  26  27
ATOM     27  N   UNL     1      -5.479  -6.450   5.086  0.00  0.00    -0.325 N 
ATOM     28  C   UNL     1      -6.256  -5.742   6.115  0.00  0.00    +0.133 C 
ATOM     29  C   UNL     1      -6.472  -6.692   7.298  0.00  0.00    +0.178 C 
ATOM     30  O   UNL     1      -5.211  -7.225   7.710  0.00  0.00    -0.377 OA
ATOM     31  C   UNL     1      -4.554  -8.011   6.713  0.00  0.00    +0.178 C 
ATOM     32  C   UNL     1      -4.243  -7.133   5.500  0.00  0.00    +0.133 C 
ENDBRANCH  26  27
ENDBRANCH  20  21
ENDBRANCH  17  20
ENDBRANCH   1  17
TORSDOF 7
