REMARK  Name = ZINC44649529
REMARK  9 active torsions:
REMARK  status: ('A' for Active; 'I' for Inactive)
REMARK    1  A    between atoms: C_1  and  C_2
REMARK    2  A    between atoms: C_2  and  C_4
REMARK    3  A    between atoms: C_2  and  S_15
REMARK    4  A    between atoms: C_4  and  C_6
REMARK    5  A    between atoms: S_15  and  C_16
REMARK    6  A    between atoms: C_20  and  C_29
REMARK    7  A    between atoms: N_21  and  C_22
REMARK    8  A    between atoms: C_22  and  C_23
REMARK    9  A    between atoms: C_29  and  N_30
REMARK                            x       y       z     vdW  Elec       q    Type
REMARK                         _______ _______ _______ _____ _____    ______ ____
ROOT
ATOM      1  C   UNL     1       2.582  -0.025   1.234  0.00  0.00    +0.237 C 
ATOM      2  N   UNL     1       3.122  -0.517  -0.046  0.00  0.00    -0.238 N 
ATOM      3  N   UNL     1       3.416   0.622  -0.806  0.00  0.00    -0.176 NA
ATOM      4  C   UNL     1       3.132   1.699  -0.172  0.00  0.00    +0.101 C 
ATOM      5  N   UNL     1       2.615   1.440   1.092  0.00  0.00    -0.286 N 
ATOM      6  H   UNL     1       3.249  -1.442  -0.308  0.00  0.00    +0.171 HD
ENDROOT
BRANCH   1   7
ATOM      7  S   UNL     1       0.879  -0.605   1.472  0.00  0.00    -0.107 S 
BRANCH   7   9
ATOM      8  C   UNL     1      -0.019   1.526   0.010  0.00  0.00    +0.027 C 
ATOM      9  C   UNL     1       0.002  -0.004   0.002  0.00  0.00    +0.117 C 
BRANCH   9  10
ATOM     10  C   UNL     1      -1.412  -0.526   0.013  0.00  0.00    +0.174 C 
ATOM     11  O   UNL     1      -1.940  -0.828   1.064  0.00  0.00    -0.291 OA
BRANCH  10  12
ATOM     12  C   UNL     1      -2.122  -0.663  -1.199  0.00  0.00    +0.024 C 
ATOM     13  C   UNL     1      -3.418  -1.118  -1.361  0.00  0.00    +0.006 A 
ATOM     14  C   UNL     1      -4.402  -1.567  -0.449  0.00  0.00    +0.010 A 
ATOM     15  C   UNL     1      -5.615  -1.963  -0.895  0.00  0.00    +0.001 A 
ATOM     16  C   UNL     1      -5.958  -1.952  -2.257  0.00  0.00    +0.002 A 
ATOM     17  C   UNL     1      -5.091  -1.543  -3.209  0.00  0.00    +0.026 A 
ATOM     18  C   UNL     1      -3.748  -1.093  -2.808  0.00  0.00    +0.043 A 
ATOM     19  N   UNL     1      -2.734  -0.656  -3.499  0.00  0.00    -0.380 N 
ATOM     20  C   UNL     1      -1.628  -0.339  -2.591  0.00  0.00    +0.152 C 
ATOM     21  H   UNL     1      -2.716  -0.554  -4.464  0.00  0.00    +0.160 HD
ENDBRANCH  10  12
ENDBRANCH   9  10
ENDBRANCH   7   9
ENDBRANCH   1   7
BRANCH   5  22
ATOM     22  C   UNL     1       2.185   2.427   2.086  0.00  0.00    +0.144 C 
BRANCH  22  23
ATOM     23  C   UNL     1       3.350   2.789   2.971  0.00  0.00    -0.030 A 
ATOM     24  C   UNL     1       3.592   2.066   4.124  0.00  0.00    +0.005 A 
ATOM     25  C   UNL     1       4.661   2.398   4.936  0.00  0.00    +0.000 A 
ATOM     26  C   UNL     1       5.487   3.452   4.594  0.00  0.00    +0.000 A 
ATOM     27  C   UNL     1       5.246   4.174   3.440  0.00  0.00    +0.000 A 
ATOM     28  C   UNL     1       4.179   3.839   2.626  0.00  0.00    +0.005 A 
ENDBRANCH  22  23
ENDBRANCH   5  22
BRANCH   4  29
ATOM     29  C   UNL     1       3.337   3.084  -0.730  0.00  0.00    -0.004 C 
BRANCH  29  30
ATOM     30  N   UNL     1       3.900   2.988  -2.083  0.00  0.00    +0.384 N 
ATOM     31  C   UNL     1       5.237   2.386  -2.013  0.00  0.00    -0.078 C 
ATOM     32  C   UNL     1       5.795   2.210  -3.427  0.00  0.00    -0.019 C 
ATOM     33  C   UNL     1       5.885   3.578  -4.109  0.00  0.00    -0.004 C 
ATOM     34  C   UNL     1       4.498   4.229  -4.110  0.00  0.00    -0.019 C 
ATOM     35  C   UNL     1       3.988   4.331  -2.671  0.00  0.00    -0.078 C 
ATOM     36  H   UNL     1       3.303   2.410  -2.655  0.00  0.00    -0.081 HD
ENDBRANCH  29  30
ENDBRANCH   4  29
TORSDOF 8
