REMARK  Name = ZINC06436527
REMARK  7 active torsions:
REMARK  status: ('A' for Active; 'I' for Inactive)
REMARK    1  A    between atoms: C_1  and  C_2
REMARK    2  A    between atoms: C_4  and  C_8
REMARK    3  A    between atoms: C_5  and  C_7
REMARK    4  A    between atoms: N_10  and  N_11
REMARK    5  A    between atoms: C_12  and  C_14
REMARK    6  A    between atoms: C_14  and  S_15
REMARK    7  A    between atoms: S_15  and  C_16
REMARK                            x       y       z     vdW  Elec       q    Type
REMARK                         _______ _______ _______ _____ _____    ______ ____
ROOT
ATOM      1  N   UNL     1       5.681   1.688  -0.041  0.00  0.00    -0.233 N 
ATOM      2  C   UNL     1       6.382   2.839  -0.042  0.00  0.00    +0.239 C 
ATOM      3  O   UNL     1       5.801   3.903  -0.032  0.00  0.00    -0.273 OA
ATOM      4  H   UNL     1       6.147   0.836  -0.050  0.00  0.00    +0.173 HD
ENDROOT
BRANCH   1   7
ATOM      5  C   UNL     1       3.580   0.569  -0.028  0.00  0.00    +0.263 C 
ATOM      6  O   UNL     1       4.163  -0.498  -0.038  0.00  0.00    -0.269 OA
ATOM      7  N   UNL     1       4.281   1.720  -0.029  0.00  0.00    -0.230 N 
ATOM      8  H   UNL     1       3.816   2.571  -0.021  0.00  0.00    +0.173 HD
BRANCH   5  12
ATOM      9  C   UNL     1      -1.256   2.195   0.020  0.00  0.00    +0.086 C 
ATOM     10  C   UNL     1      -0.016   1.338   0.009  0.00  0.00    +0.103 A 
ATOM     11  C   UNL     1       1.246   1.795  -0.000  0.00  0.00    +0.057 A 
ATOM     12  C   UNL     1       2.107   0.603  -0.015  0.00  0.00    +0.079 A 
ATOM     13  C   UNL     1       1.257  -0.464  -0.012  0.00  0.00    +0.114 A 
ATOM     14  O   UNL     1       0.002  -0.004   0.002  0.00  0.00    -0.464 OA
ATOM     15  C   UNL     1       1.664  -1.915  -0.025  0.00  0.00    +0.087 C 
ENDBRANCH   5  12
ENDBRANCH   1   7
BRANCH   2  16
ATOM     16  C   UNL     1       7.889   2.804  -0.056  0.00  0.00    +0.171 C 
BRANCH  16  17
ATOM     17  S   UNL     1       8.533   4.499  -0.053  0.00  0.00    -0.115 S 
BRANCH  17  18
ATOM     18  C   UNL     1      10.283   4.290  -0.070  0.00  0.00    +0.017 A 
ATOM     19  C   UNL     1      10.833   3.025  -0.081  0.00  0.00    +0.015 A 
ATOM     20  C   UNL     1      12.213   2.850  -0.095  0.00  0.00    +0.002 A 
ATOM     21  C   UNL     1      13.057   3.919  -0.097  0.00  0.00    +0.008 A 
ATOM     22  C   UNL     1      12.538   5.224  -0.085  0.00  0.00    -0.015 A 
ATOM     23  C   UNL     1      11.134   5.416  -0.078  0.00  0.00    +0.014 A 
ATOM     24  C   UNL     1      10.617   6.722  -0.060  0.00  0.00    +0.050 A 
ATOM     25  C   UNL     1      11.470   7.785  -0.062  0.00  0.00    +0.020 A 
ATOM     26  C   UNL     1      12.850   7.596  -0.076  0.00  0.00    +0.002 A 
ATOM     27  C   UNL     1      13.386   6.345  -0.087  0.00  0.00    +0.008 A 
ATOM     28 CL   UNL     1       8.900   6.979  -0.044  0.00  0.00    -0.083 Cl
ENDBRANCH  17  18
ENDBRANCH  16  17
ENDBRANCH   2  16
TORSDOF 5
