REMARK  Name = ZINC67373744
REMARK  3 active torsions:
REMARK  status: ('A' for Active; 'I' for Inactive)
REMARK    1  A    between atoms: C_6  and  C_7
REMARK    2  A    between atoms: C_7  and  C_9
REMARK    3  A    between atoms: C_7  and  O_24
REMARK                            x       y       z     vdW  Elec       q    Type
REMARK                         _______ _______ _______ _____ _____    ______ ____
ROOT
ATOM      1  C   UNL     1      -1.538  -1.253  -1.427  0.00  0.00    +0.025 C 
ATOM      2  C   UNL     1      -0.481  -2.213  -1.978  0.00  0.00    +0.025 C 
ATOM      3  C   UNL     1      -0.876  -2.643  -3.394  0.00  0.00    +0.107 C 
ATOM      4  N   UNL     1      -2.236  -3.198  -3.357  0.00  0.00    -0.315 N 
ATOM      5  C   UNL     1      -3.312  -2.393  -2.765  0.00  0.00    +0.107 C 
ATOM      6  C   UNL     1      -2.890  -1.966  -1.355  0.00  0.00    +0.025 C 
ATOM      7  C   UNL     1      -2.498  -4.455  -3.872  0.00  0.00    +0.133 A 
ATOM      8  C   UNL     1      -2.880  -4.611  -5.233  0.00  0.00    +0.048 A 
ATOM      9  C   UNL     1      -3.059  -3.608  -6.268  0.00  0.00    +0.021 A 
ATOM     10  C   UNL     1      -3.428  -3.995  -7.498  0.00  0.00    +0.048 A 
ATOM     11  S   UNL     1      -3.563  -5.767  -7.354  0.00  0.00    -0.077 S 
ATOM     12  C   UNL     1      -3.121  -5.940  -5.646  0.00  0.00    +0.113 A 
ATOM     13  N   UNL     1      -2.995  -6.952  -4.811  0.00  0.00    -0.228 NA
ATOM     14  C   UNL     1      -2.638  -6.745  -3.559  0.00  0.00    +0.224 A 
ATOM     15  N   UNL     1      -2.391  -5.528  -3.105  0.00  0.00    -0.220 NA
ENDROOT
BRANCH   1  16
ATOM     16  C   UNL     1      -1.128  -0.794  -0.026  0.00  0.00    +0.148 C 
BRANCH  16  22
ATOM     17  C   UNL     1       0.084   1.395  -0.082  0.00  0.00    +0.007 A 
ATOM     18  C   UNL     1       1.248   2.136  -0.161  0.00  0.00    +0.020 A 
ATOM     19  C   UNL     1       2.469   1.496  -0.270  0.00  0.00    +0.041 A 
ATOM     20  C   UNL     1       2.526   0.114  -0.300  0.00  0.00    +0.020 A 
ATOM     21  C   UNL     1       1.361  -0.626  -0.221  0.00  0.00    +0.007 A 
ATOM     22  C   UNL     1       0.141   0.014  -0.112  0.00  0.00    -0.019 A 
ATOM     23 CL   UNL     1       3.931   2.427  -0.369  0.00  0.00    -0.084 Cl
ENDBRANCH  16  22
BRANCH  16  24
ATOM     24  O   UNL     1      -0.910  -1.937   0.804  0.00  0.00    -0.387 OA
ATOM     25  H   UNL     1      -0.216  -2.529   0.484  0.00  0.00    +0.210 HD
ENDBRANCH  16  24
ENDBRANCH   1  16
TORSDOF 3
