REMARK  Name = ZINC02178857
REMARK  7 active torsions:
REMARK  status: ('A' for Active; 'I' for Inactive)
REMARK    1  A    between atoms: C_1  and  C_2
REMARK    2  A    between atoms: C_9  and  C_17
REMARK    3  A    between atoms: C_14  and  C_16
REMARK    4  A    between atoms: C_26  and  O_27
REMARK    5  A    between atoms: O_27  and  C_28
REMARK    6  A    between atoms: C_28  and  C_29
REMARK    7  A    between atoms: C_29  and  O_30
REMARK                            x       y       z     vdW  Elec       q    Type
REMARK                         _______ _______ _______ _____ _____    ______ ____
ROOT
ATOM      1  C   UNL     1       0.717  -0.787  -0.966  0.00  0.00    +0.045 C 
ATOM      2  C   UNL     1       0.622  -2.057  -0.159  0.00  0.00    -0.029 A 
ATOM      3  C   UNL     1       0.594  -3.283  -0.799  0.00  0.00    +0.005 A 
ATOM      4  C   UNL     1       0.507  -4.457  -0.072  0.00  0.00    +0.001 A 
ATOM      5  C   UNL     1       0.454  -4.419   1.310  0.00  0.00    +0.012 A 
ATOM      6  C   UNL     1       0.485  -3.197   1.959  0.00  0.00    +0.021 A 
ATOM      7  C   UNL     1       0.568  -1.998   1.222  0.00  0.00    +0.041 A 
ATOM      8  N   UNL     1       0.572  -0.781   1.902  0.00  0.00    -0.318 N 
ATOM      9  C   UNL     1       1.133  -0.672   3.256  0.00  0.00    +0.226 C 
ATOM     10  N   UNL     1       0.759  -1.859   4.027  0.00  0.00    -0.238 N 
ATOM     11  C   UNL     1       0.448  -3.062   3.428  0.00  0.00    +0.073 A 
ATOM     12  C   UNL     1       0.160  -3.948   4.406  0.00  0.00    +0.052 A 
ATOM     13  C   UNL     1       0.269  -3.279   5.630  0.00  0.00    +0.061 A 
ATOM     14  N   UNL     1       0.636  -2.034   5.400  0.00  0.00    -0.174 NA
ATOM     15  C   UNL     1       0.031  -3.888   6.988  0.00  0.00    +0.067 C 
ATOM     16  H   UNL     1       0.199   0.006   1.475  0.00  0.00    +0.148 HD
ENDROOT
BRANCH   9  17
ATOM     17  C   UNL     1       2.635  -0.576   3.173  0.00  0.00    +0.044 A 
ATOM     18  C   UNL     1       3.238   0.526   2.544  0.00  0.00    -0.008 A 
ATOM     19  C   UNL     1       2.466   1.558   1.982  0.00  0.00    +0.009 A 
ATOM     20  C   UNL     1       3.085   2.611   1.381  0.00  0.00    +0.001 A 
ATOM     21  C   UNL     1       4.475   2.683   1.313  0.00  0.00    +0.001 A 
ATOM     22  C   UNL     1       5.254   1.703   1.847  0.00  0.00    +0.008 A 
ATOM     23  C   UNL     1       4.652   0.600   2.476  0.00  0.00    -0.017 A 
ATOM     24  C   UNL     1       5.426  -0.430   3.038  0.00  0.00    +0.012 A 
ATOM     25  C   UNL     1       4.811  -1.484   3.640  0.00  0.00    +0.046 A 
ATOM     26  C   UNL     1       3.417  -1.556   3.713  0.00  0.00    +0.128 A 
BRANCH  26  27
ATOM     27  O   UNL     1       2.832  -2.619   4.326  0.00  0.00    -0.489 OA
BRANCH  27  28
ATOM     28  C   UNL     1       3.702  -3.592   4.907  0.00  0.00    +0.256 C 
BRANCH  28  29
ATOM     29  C   UNL     1       2.878  -4.786   5.394  0.00  0.00    +0.196 C 
BRANCH  29  30
ATOM     30  O   UNL     1       2.308  -5.460   4.270  0.00  0.00    -0.392 OA
ATOM     31  H   UNL     1       1.760  -6.222   4.505  0.00  0.00    +0.210 HD
ENDBRANCH  29  30
ENDBRANCH  28  29
ENDBRANCH  27  28
ENDBRANCH  26  27
ENDBRANCH   9  17
TORSDOF 5
