REMARK  Name = ZINC63980613
REMARK  6 active torsions:
REMARK  status: ('A' for Active; 'I' for Inactive)
REMARK    1  A    between atoms: C_1  and  N_2
REMARK    2  A    between atoms: C_5  and  C_7
REMARK    3  A    between atoms: C_15  and  N_19
REMARK    4  A    between atoms: N_19  and  C_20
REMARK    5  A    between atoms: C_20  and  C_21
REMARK    6  A    between atoms: C_21  and  C_22
REMARK                            x       y       z     vdW  Elec       q    Type
REMARK                         _______ _______ _______ _____ _____    ______ ____
ROOT
ATOM      1  C   UNL     1      -0.018   1.461   0.010  0.00  0.00    +0.172 C 
ATOM      2  N   UNL     1       0.002  -0.004   0.002  0.00  0.00    -0.270 N 
ATOM      3  C   UNL     1       0.007  -0.768  -1.103  0.00  0.00    +0.043 A 
ATOM      4  C   UNL     1       0.025  -2.061  -0.696  0.00  0.00    +0.004 A 
ATOM      5  C   UNL     1       0.032  -2.024   0.708  0.00  0.00    +0.151 A 
ATOM      6  N   UNL     1       0.023  -0.748   1.054  0.00  0.00    -0.166 NA
ATOM      7  C   UNL     1       0.032  -3.247  -1.621  0.00  0.00    +0.023 C 
ATOM      8  C   UNL     1      -0.390  -2.772  -3.018  0.00  0.00    -0.067 C 
ATOM      9  C   UNL     1       0.429  -1.538  -3.407  0.00  0.00    -0.009 C 
ATOM     10  C   UNL     1      -0.001  -0.342  -2.548  0.00  0.00    +0.054 C 
ENDROOT
BRANCH   5  11
ATOM     11  C   UNL     1       0.053  -3.185   1.621  0.00  0.00    +0.267 C 
ATOM     12  O   UNL     1       0.065  -4.314   1.169  0.00  0.00    -0.268 OA
ATOM     13  N   UNL     1       0.058  -2.994   2.955  0.00  0.00    -0.296 N 
ATOM     14  C   UNL     1       0.038  -1.689   3.634  0.00  0.00    +0.108 C 
ATOM     15  C   UNL     1       0.080  -1.962   5.152  0.00  0.00    +0.020 C 
ATOM     16  C   UNL     1       0.691  -3.385   5.233  0.00  0.00    +0.020 C 
ATOM     17  C   UNL     1       0.078  -4.057   3.976  0.00  0.00    +0.108 C 
ENDBRANCH   5  11
BRANCH   8  18
ATOM     18  N   UNL     1      -0.153  -3.845  -3.992  0.00  0.00    +0.381 N 
ATOM     19  H   UNL     1       0.838  -4.025  -4.059  0.00  0.00    -0.086 HD
ATOM     20  H   UNL     1      -0.627  -4.683  -3.692  0.00  0.00    -0.086 HD
BRANCH  18  21
ATOM     21  C   UNL     1      -0.666  -3.435  -5.306  0.00  0.00    -0.078 C 
BRANCH  21  22
ATOM     22  C   UNL     1      -0.418  -4.552  -6.322  0.00  0.00    +0.014 C 
BRANCH  22  23
ATOM     23  C   UNL     1      -0.945  -4.131  -7.670  0.00  0.00    -0.043 C 
ATOM     24  C   UNL     1      -0.243  -3.562  -8.675  0.00  0.00    -0.001 A 
ATOM     25  C   UNL     1       1.167  -3.177  -8.810  0.00  0.00    +0.010 A 
ATOM     26  C   UNL     1       1.586  -2.612  -9.966  0.00  0.00    +0.001 A 
ATOM     27  C   UNL     1       0.709  -2.386 -11.035  0.00  0.00    +0.002 A 
ATOM     28  C   UNL     1      -0.600  -2.712 -10.987  0.00  0.00    +0.026 A 
ATOM     29  C   UNL     1      -1.148  -3.313  -9.820  0.00  0.00    +0.043 A 
ATOM     30  N   UNL     1      -2.363  -3.713  -9.533  0.00  0.00    -0.380 N 
ATOM     31  C   UNL     1      -2.364  -4.267  -8.174  0.00  0.00    +0.144 C 
ATOM     32  H   UNL     1      -3.132  -3.656 -10.121  0.00  0.00    +0.160 HD
ENDBRANCH  22  23
ENDBRANCH  21  22
ENDBRANCH  18  21
ENDBRANCH   8  18
TORSDOF 5
