REMARK  Name = ZINC05013835
REMARK  11 active torsions:
REMARK  status: ('A' for Active; 'I' for Inactive)
REMARK    1  A    between atoms: C_1  and  C_2
REMARK    2  A    between atoms: C_4  and  O_24
REMARK    3  A    between atoms: C_5  and  S_10
REMARK    4  A    between atoms: C_6  and  C_9
REMARK    5  A    between atoms: S_10  and  N_13
REMARK    6  A    between atoms: N_13  and  C_14
REMARK    7  A    between atoms: C_16  and  C_22
REMARK    8  A    between atoms: C_16  and  C_23
REMARK    9  A    between atoms: C_18  and  C_20
REMARK   10  A    between atoms: C_18  and  C_21
REMARK   11  A    between atoms: O_24  and  C_25
REMARK                            x       y       z     vdW  Elec       q    Type
REMARK                         _______ _______ _______ _____ _____    ______ ____
ROOT
ATOM      1  S   UNL     1       0.886  -5.567   0.680  0.00  0.00    +0.062 S 
ATOM      2  O   UNL     1       0.362  -6.113   1.883  0.00  0.00    -0.153 OA
ATOM      3  O   UNL     1       0.278  -5.790  -0.585  0.00  0.00    -0.153 OA
ENDROOT
BRANCH   1   8
ATOM      4  C   UNL     1       1.111   0.417   1.453  0.00  0.00    +0.045 C 
ATOM      5  C   UNL     1       1.055  -1.077   1.262  0.00  0.00    -0.028 A 
ATOM      6  C   UNL     1       0.906  -1.907   2.357  0.00  0.00    +0.052 A 
ATOM      7  C   UNL     1       0.854  -3.281   2.181  0.00  0.00    +0.147 A 
ATOM      8  C   UNL     1       0.951  -3.820   0.907  0.00  0.00    +0.151 A 
ATOM      9  C   UNL     1       1.099  -2.987  -0.185  0.00  0.00    -0.002 A 
ATOM     10  C   UNL     1       1.145  -1.615  -0.008  0.00  0.00    +0.049 A 
ATOM     11 CL   UNL     1       1.325  -0.570  -1.383  0.00  0.00    -0.083 Cl
ATOM     12  C   UNL     1       1.204  -3.572  -1.570  0.00  0.00    +0.047 C 
BRANCH   7  13
ATOM     13  O   UNL     1       0.709  -4.100   3.257  0.00  0.00    -0.493 OA
ATOM     14  C   UNL     1       0.616  -3.476   4.539  0.00  0.00    +0.277 C 
ENDBRANCH   7  13
ENDBRANCH   1   8
BRANCH   1  15
ATOM     15  N   UNL     1       2.447  -6.103   0.557  0.00  0.00    -0.187 NA
ATOM     16  H   UNL     1       2.762  -6.494  -0.273  0.00  0.00    +0.148 HD
BRANCH  15  17
ATOM     17  C   UNL     1       3.356  -5.987   1.704  0.00  0.00    +0.074 C 
ATOM     18  C   UNL     1       4.201  -4.721   1.550  0.00  0.00    +0.007 C 
ATOM     19  C   UNL     1       5.162  -4.592   2.731  0.00  0.00    -0.072 C 
ATOM     20  N   UNL     1       5.974  -5.786   2.910  0.00  0.00    +0.386 N 
ATOM     21  C   UNL     1       5.300  -7.074   2.869  0.00  0.00    -0.072 C 
ATOM     22  C   UNL     1       4.297  -7.191   1.726  0.00  0.00    +0.007 C 
ATOM     23  C   UNL     1       4.616  -7.398   4.200  0.00  0.00    -0.010 C 
ATOM     24  C   UNL     1       6.381  -8.158   2.643  0.00  0.00    -0.010 C 
ATOM     25  C   UNL     1       4.394  -4.223   3.999  0.00  0.00    -0.010 C 
ATOM     26  C   UNL     1       6.120  -3.419   2.417  0.00  0.00    -0.010 C 
ATOM     27  H   UNL     1       6.709  -5.785   2.197  0.00  0.00    -0.084 HD
ATOM     28  H   UNL     1       6.467  -5.709   3.803  0.00  0.00    -0.084 HD
ENDBRANCH  15  17
ENDBRANCH   1  15
TORSDOF 4
