REMARK  Name = ZINC32969726
REMARK  4 active torsions:
REMARK  status: ('A' for Active; 'I' for Inactive)
REMARK    1  A    between atoms: C_4  and  C_7
REMARK    2  A    between atoms: C_15  and  C_16
REMARK    3  A    between atoms: C_19  and  S_21
REMARK    4  A    between atoms: S_21  and  C_22
REMARK                            x       y       z     vdW  Elec       q    Type
REMARK                         _______ _______ _______ _____ _____    ______ ____
ROOT
ATOM      1  C   UNL     1       0.675   3.435  -2.181  0.00  0.00    +0.056 C 
ATOM      2  C   UNL     1      -0.516   3.586  -2.798  0.00  0.00    +0.072 C 
ATOM      3  S   UNL     1      -1.385   2.106  -2.299  0.00  0.00    -0.062 S 
ATOM      4  C   UNL     1      -0.089   1.386  -1.325  0.00  0.00    +0.163 C 
ATOM      5  N   UNL     1      -0.054   0.243  -0.688  0.00  0.00    -0.154 NA
ATOM      6  C   UNL     1       1.093  -0.144  -0.092  0.00  0.00    +0.273 C 
ATOM      7  O   UNL     1       1.129  -1.140   0.615  0.00  0.00    -0.268 OA
ATOM      8  C   UNL     1       2.304   0.671  -0.319  0.00  0.00    +0.082 C 
ATOM      9  C   UNL     1       3.582   0.127  -0.225  0.00  0.00    +0.062 C 
ATOM     10  C   UNL     1       2.087   2.102  -0.653  0.00  0.00    +0.136 C 
ATOM     11  N   UNL     1       2.904   3.057  -0.287  0.00  0.00    -0.284 NA
ATOM     12  N   UNL     1       0.912   2.333  -1.403  0.00  0.00    -0.233 N 
ATOM     13  H   UNL     1       3.804   2.817   0.298  0.00  0.00    +0.188 HD
ENDROOT
BRANCH   1  17
ATOM     14  C   UNL     1       3.695   6.386  -2.651  0.00  0.00    +0.000 A 
ATOM     15  C   UNL     1       3.955   5.073  -3.001  0.00  0.00    +0.001 A 
ATOM     16  C   UNL     1       2.979   4.110  -2.851  0.00  0.00    +0.010 A 
ATOM     17  C   UNL     1       1.727   4.463  -2.345  0.00  0.00    -0.003 A 
ATOM     18  C   UNL     1       1.469   5.790  -2.000  0.00  0.00    +0.010 A 
ATOM     19  C   UNL     1       2.456   6.742  -2.150  0.00  0.00    +0.001 A 
ENDBRANCH   1  17
BRANCH   9  20
ATOM     20  C   UNL     1       3.758  -1.258  -0.283  0.00  0.00    +0.130 A 
ATOM     21  C   UNL     1       4.950  -1.941  -0.063  0.00  0.00    +0.050 A 
ATOM     22  C   UNL     1       4.673  -3.295  -0.221  0.00  0.00    +0.057 A 
ATOM     23  C   UNL     1       3.332  -3.402  -0.530  0.00  0.00    +0.167 A 
ATOM     24  O   UNL     1       2.797  -2.170  -0.558  0.00  0.00    -0.449 OA
BRANCH  23  25
ATOM     25  S   UNL     1       2.464  -4.905  -0.831  0.00  0.00    -0.051 S 
BRANCH  25  26
ATOM     26  C   UNL     1       2.688  -5.044  -2.573  0.00  0.00    +0.023 A 
ATOM     27  C   UNL     1       3.488  -4.144  -3.247  0.00  0.00    +0.016 A 
ATOM     28  C   UNL     1       3.670  -4.245  -4.622  0.00  0.00    +0.002 A 
ATOM     29  C   UNL     1       3.066  -5.231  -5.341  0.00  0.00    +0.008 A 
ATOM     30  C   UNL     1       2.243  -6.168  -4.694  0.00  0.00    -0.017 A 
ATOM     31  C   UNL     1       2.054  -6.080  -3.293  0.00  0.00    -0.004 A 
ATOM     32  C   UNL     1       1.236  -7.020  -2.647  0.00  0.00    +0.009 A 
ATOM     33  C   UNL     1       0.641  -8.007  -3.373  0.00  0.00    +0.001 A 
ATOM     34  C   UNL     1       0.831  -8.098  -4.750  0.00  0.00    +0.001 A 
ATOM     35  C   UNL     1       1.607  -7.196  -5.411  0.00  0.00    +0.008 A 
ENDBRANCH  25  26
ENDBRANCH  23  25
ENDBRANCH   9  20
TORSDOF 4
