REMARK  Name = ZINC20181306
REMARK  15 active torsions:
REMARK  status: ('A' for Active; 'I' for Inactive)
REMARK    1  A    between atoms: C_1  and  C_2
REMARK    2  A    between atoms: C_5  and  C_8
REMARK    3  A    between atoms: N_12  and  C_20
REMARK    4  A    between atoms: C_20  and  C_21
REMARK    5  A    between atoms: N_23  and  C_24
REMARK    6  A    between atoms: C_24  and  C_25
REMARK    7  A    between atoms: C_25  and  N_26
REMARK    8  A    between atoms: N_26  and  C_27
REMARK    9  A    between atoms: N_26  and  C_31
REMARK   10  A    between atoms: C_27  and  C_28
REMARK   11  A    between atoms: C_28  and  C_29
REMARK   12  A    between atoms: C_28  and  C_30
REMARK   13  A    between atoms: C_31  and  C_32
REMARK   14  A    between atoms: C_32  and  C_33
REMARK   15  A    between atoms: C_32  and  C_34
REMARK                            x       y       z     vdW  Elec       q    Type
REMARK                         _______ _______ _______ _____ _____    ______ ____
ROOT
ATOM      1  C   UNL     1       0.689   1.618   0.446  0.00  0.00    +0.028 C 
ATOM      2  C   UNL     1       1.044   2.916   0.604  0.00  0.00    +0.076 C 
ATOM      3  C   UNL     1       2.403   3.402   0.277  0.00  0.00    +0.258 C 
ATOM      4  O   UNL     1       3.348   2.638   0.340  0.00  0.00    -0.269 OA
ATOM      5  N   UNL     1       2.600   4.672  -0.087  0.00  0.00    -0.257 N 
ATOM      6  C   UNL     1       1.623   5.637  -0.295  0.00  0.00    +0.051 A 
ATOM      7  C   UNL     1       1.944   6.754  -1.065  0.00  0.00    +0.024 A 
ATOM      8  C   UNL     1       1.004   7.735  -1.300  0.00  0.00    +0.002 A 
ATOM      9  C   UNL     1      -0.273   7.624  -0.778  0.00  0.00    +0.001 A 
ATOM     10  C   UNL     1      -0.608   6.524  -0.012  0.00  0.00    +0.017 A 
ATOM     11  C   UNL     1       0.334   5.536   0.230  0.00  0.00    +0.034 A 
ATOM     12  S   UNL     1      -0.093   4.134   1.218  0.00  0.00    -0.082 S 
ENDROOT
BRANCH   1  17
ATOM     13  C   UNL     1       4.242  -2.028  -2.222  0.00  0.00    +0.044 C 
ATOM     14  C   UNL     1       3.311  -1.072  -1.523  0.00  0.00    -0.050 A 
ATOM     15  C   UNL     1       2.579  -1.501  -0.428  0.00  0.00    +0.004 A 
ATOM     16  C   UNL     1       1.725  -0.632   0.217  0.00  0.00    +0.008 A 
ATOM     17  C   UNL     1       1.598   0.685  -0.236  0.00  0.00    -0.024 A 
ATOM     18  C   UNL     1       2.337   1.109  -1.347  0.00  0.00    +0.008 A 
ATOM     19  C   UNL     1       3.192   0.230  -1.977  0.00  0.00    +0.004 A 
ENDBRANCH   1  17
BRANCH   5  20
ATOM     20  C   UNL     1       3.990   5.089  -0.288  0.00  0.00    +0.209 C 
BRANCH  20  21
ATOM     21  C   UNL     1       4.413   4.767  -1.698  0.00  0.00    +0.231 C 
ATOM     22  O   UNL     1       3.630   4.240  -2.460  0.00  0.00    -0.274 OA
ATOM     23  N   UNL     1       5.660   5.064  -2.113  0.00  0.00    -0.316 N 
ATOM     24  H   UNL     1       6.370   5.542  -1.422  0.00  0.00    +0.149 HD
BRANCH  23  25
ATOM     25  C   UNL     1       6.071   4.750  -3.484  0.00  0.00    +0.086 C 
BRANCH  25  26
ATOM     26  C   UNL     1       7.522   5.186  -3.694  0.00  0.00    -0.060 C 
BRANCH  26  27
ATOM     27  N   UNL     1       7.970   4.771  -5.030  0.00  0.00    +0.381 N 
ATOM     28  H   UNL     1       7.258   5.175  -5.765  0.00  0.00    -0.082 HD
BRANCH  27  29
ATOM     29  C   UNL     1       9.297   5.323  -5.335  0.00  0.00    -0.076 C 
BRANCH  29  30
ATOM     30  C   UNL     1       9.553   5.230  -6.841  0.00  0.00    -0.034 C 
ATOM     31  C   UNL     1       8.561   6.128  -7.583  0.00  0.00    +0.005 C 
ATOM     32  C   UNL     1      10.981   5.689  -7.144  0.00  0.00    +0.005 C 
ENDBRANCH  29  30
ENDBRANCH  27  29
BRANCH  27  33
ATOM     33  C   UNL     1       7.967   3.308  -5.155  0.00  0.00    -0.076 C 
BRANCH  33  34
ATOM     34  C   UNL     1       8.528   2.685  -3.875  0.00  0.00    -0.034 C 
ATOM     35  C   UNL     1       8.393   1.163  -3.947  0.00  0.00    +0.005 C 
ATOM     36  C   UNL     1      10.005   3.060  -3.732  0.00  0.00    +0.005 C 
ENDBRANCH  33  34
ENDBRANCH  27  33
ENDBRANCH  26  27
ENDBRANCH  25  26
ENDBRANCH  23  25
ENDBRANCH  20  21
ENDBRANCH   5  20
TORSDOF 10
