REMARK  Name = ZINC36266775
REMARK  7 active torsions:
REMARK  status: ('A' for Active; 'I' for Inactive)
REMARK    1  A    between atoms: C_1  and  N_2
REMARK    2  A    between atoms: N_2  and  C_3
REMARK    3  A    between atoms: N_2  and  S_9
REMARK    4  A    between atoms: S_9  and  N_12
REMARK    5  A    between atoms: N_12  and  C_13
REMARK    6  A    between atoms: C_13  and  C_14
REMARK    7  A    between atoms: C_14  and  N_21
REMARK                            x       y       z     vdW  Elec       q    Type
REMARK                         _______ _______ _______ _____ _____    ______ ____
ROOT
ATOM      1  N   UNL     1       0.934  -2.319  -1.790  0.00  0.00    -0.181 NA
ATOM      2  H   UNL     1       1.121  -2.306  -2.742  0.00  0.00    +0.149 HD
ENDROOT
BRANCH   1   3
ATOM      3  S   UNL     1      -0.572  -1.908  -1.236  0.00  0.00    +0.097 S 
ATOM      4  O   UNL     1      -0.963  -2.929  -0.328  0.00  0.00    -0.141 OA
ATOM      5  O   UNL     1      -1.345  -1.567  -2.378  0.00  0.00    -0.141 OA
BRANCH   3   7
ATOM      6  C   UNL     1      -0.571   0.785  -0.987  0.00  0.00    +0.133 C 
ATOM      7  N   UNL     1      -0.405  -0.522  -0.346  0.00  0.00    -0.167 NA
BRANCH   7   8
ATOM      8  C   UNL     1      -0.090  -0.602   1.083  0.00  0.00    +0.081 C 
ATOM      9  C   UNL     1      -1.268  -0.061   1.895  0.00  0.00    +0.020 C 
ATOM     10  C   UNL     1      -0.939  -0.144   3.388  0.00  0.00    +0.002 C 
ATOM     11  C   UNL     1       0.310   0.689   3.682  0.00  0.00    +0.000 C 
ATOM     12  C   UNL     1       1.488   0.148   2.869  0.00  0.00    +0.002 C 
ATOM     13  C   UNL     1       1.159   0.231   1.377  0.00  0.00    +0.020 C 
ENDBRANCH   7   8
ENDBRANCH   3   7
ENDBRANCH   1   3
BRANCH   1  14
ATOM     14  C   UNL     1       1.984  -2.702  -0.843  0.00  0.00    +0.094 C 
BRANCH  14  15
ATOM     15  C   UNL     1       3.085  -3.463  -1.583  0.00  0.00    -0.057 C 
ATOM     16  C   UNL     1       3.494  -4.668  -0.779  0.00  0.00    -0.012 C 
ATOM     17  C   UNL     1       3.223  -4.492   0.727  0.00  0.00    -0.001 C 
ATOM     18  C   UNL     1       3.592  -3.087   1.240  0.00  0.00    -0.000 C 
ATOM     19  C   UNL     1       4.889  -2.586   0.665  0.00  0.00    -0.000 C 
ATOM     20  C   UNL     1       4.576  -1.735  -0.583  0.00  0.00    -0.001 C 
ATOM     21  C   UNL     1       4.316  -2.551  -1.760  0.00  0.00    -0.012 C 
BRANCH  15  22
ATOM     22  N   UNL     1       2.592  -3.888  -2.900  0.00  0.00    +0.383 N 
ATOM     23  H   UNL     1       2.327  -3.076  -3.437  0.00  0.00    -0.089 HD
ATOM     24  H   UNL     1       3.321  -4.390  -3.386  0.00  0.00    -0.089 HD
ATOM     25  H   UNL     1       1.791  -4.490  -2.781  0.00  0.00    -0.089 HD
ENDBRANCH  15  22
ENDBRANCH  14  15
ENDBRANCH   1  14
TORSDOF 6
