REMARK  Name = ZINC36007188
REMARK  12 active torsions:
REMARK  status: ('A' for Active; 'I' for Inactive)
REMARK    1  A    between atoms: C_1  and  C_2
REMARK    2  A    between atoms: C_2  and  C_3
REMARK    3  A    between atoms: C_2  and  C_4
REMARK    4  A    between atoms: C_4  and  C_6
REMARK    5  A    between atoms: C_4  and  N_16
REMARK    6  A    between atoms: C_17  and  C_19
REMARK    7  A    between atoms: C_19  and  N_20
REMARK    8  A    between atoms: C_24  and  C_26
REMARK    9  A    between atoms: C_29  and  O_34
REMARK   10  A    between atoms: C_31  and  O_32
REMARK   11  A    between atoms: O_32  and  C_33
REMARK   12  A    between atoms: O_34  and  C_35
REMARK                            x       y       z     vdW  Elec       q    Type
REMARK                         _______ _______ _______ _____ _____    ______ ____
ROOT
ATOM      1  N   UNL     1       1.451  -2.389   2.679  0.00  0.00    -0.310 N 
ATOM      2  C   UNL     1       0.261  -2.992   2.873  0.00  0.00    +0.197 C 
ATOM      3  O   UNL     1      -0.629  -2.405   3.451  0.00  0.00    -0.278 OA
ATOM      4  H   UNL     1       2.163  -2.858   2.216  0.00  0.00    +0.149 HD
ENDROOT
BRANCH   1   5
ATOM      5  C   UNL     1       1.669  -1.025   3.167  0.00  0.00    +0.106 C 
BRANCH   5   6
ATOM      6  C   UNL     1       3.142  -0.803   3.396  0.00  0.00    -0.023 A 
ATOM      7  C   UNL     1       4.064  -1.308   2.498  0.00  0.00    +0.009 A 
ATOM      8  C   UNL     1       5.416  -1.108   2.706  0.00  0.00    +0.050 A 
ATOM      9  C   UNL     1       5.851  -0.400   3.816  0.00  0.00    +0.162 A 
ATOM     10  C   UNL     1       4.924   0.110   4.718  0.00  0.00    +0.162 A 
ATOM     11  C   UNL     1       3.569  -0.091   4.501  0.00  0.00    +0.055 A 
ATOM     12  O   UNL     1       5.329   0.814   5.809  0.00  0.00    -0.485 OA
ATOM     13  C   UNL     1       6.703   0.681   6.188  0.00  0.00    +0.270 C 
ATOM     14  C   UNL     1       7.565   0.818   4.926  0.00  0.00    +0.270 C 
ATOM     15  O   UNL     1       7.185  -0.215   4.010  0.00  0.00    -0.485 OA
ENDBRANCH   5   6
BRANCH   5  17
ATOM     16  C   UNL     1       1.387   1.401   2.638  0.00  0.00    +0.009 C 
ATOM     17  C   UNL     1       1.159  -0.024   2.129  0.00  0.00    +0.008 C 
ATOM     18  C   UNL     1       1.915  -0.223   0.814  0.00  0.00    +0.009 C 
ENDBRANCH   5  17
ENDBRANCH   1   5
BRANCH   2  19
ATOM     19  C   UNL     1       0.036  -4.395   2.371  0.00  0.00    +0.019 C 
BRANCH  19  20
ATOM     20  N   UNL     1      -1.329  -4.821   2.704  0.00  0.00    +0.390 N 
ATOM     21  C   UNL     1      -1.469  -4.940   4.171  0.00  0.00    -0.077 C 
ATOM     22  C   UNL     1      -2.408  -6.154   4.382  0.00  0.00    -0.020 C 
ATOM     23  C   UNL     1      -1.946  -7.107   3.249  0.00  0.00    -0.012 C 
ATOM     24  C   UNL     1      -1.599  -6.138   2.099  0.00  0.00    -0.033 C 
ATOM     25  H   UNL     1      -1.992  -4.145   2.356  0.00  0.00    -0.080 HD
BRANCH  24  26
ATOM     26  C   UNL     1      -0.376  -6.627   1.367  0.00  0.00    -0.019 A 
ATOM     27  C   UNL     1       0.551  -7.415   2.022  0.00  0.00    +0.009 A 
ATOM     28  C   UNL     1       1.674  -7.865   1.355  0.00  0.00    +0.046 A 
ATOM     29  C   UNL     1       1.873  -7.526   0.024  0.00  0.00    +0.124 A 
ATOM     30  C   UNL     1       0.945  -6.735  -0.636  0.00  0.00    +0.091 A 
ATOM     31  C   UNL     1      -0.184  -6.290   0.035  0.00  0.00    +0.125 A 
BRANCH  31  32
ATOM     32  O   UNL     1      -1.099  -5.520  -0.610  0.00  0.00    -0.495 OA
ATOM     33  C   UNL     1      -0.837  -5.212  -1.981  0.00  0.00    +0.277 C 
ENDBRANCH  31  32
BRANCH  29  34
ATOM     34  O   UNL     1       2.978  -7.968  -0.633  0.00  0.00    -0.495 OA
ATOM     35  C   UNL     1       3.893  -8.778   0.109  0.00  0.00    +0.277 C 
ENDBRANCH  29  34
ENDBRANCH  24  26
ENDBRANCH  19  20
ENDBRANCH   2  19
TORSDOF 8
