REMARK  Name = ZINC36962095
REMARK  9 active torsions:
REMARK  status: ('A' for Active; 'I' for Inactive)
REMARK    1  A    between atoms: C_1  and  O_2
REMARK    2  A    between atoms: O_2  and  C_3
REMARK    3  A    between atoms: C_5  and  C_13
REMARK    4  A    between atoms: C_6  and  O_11
REMARK    5  A    between atoms: C_8  and  O_9
REMARK    6  A    between atoms: O_9  and  C_10
REMARK    7  A    between atoms: O_11  and  C_12
REMARK    8  A    between atoms: C_13  and  C_15
REMARK    9  A    between atoms: C_13  and  N_22
REMARK                            x       y       z     vdW  Elec       q    Type
REMARK                         _______ _______ _______ _____ _____    ______ ____
ROOT
ATOM      1  C   UNL     1       1.128  -0.371  -0.754  0.00  0.00    +0.162 A 
ATOM      2  C   UNL     1       1.502   0.318  -1.896  0.00  0.00    +0.055 A 
ATOM      3  C   UNL     1       1.996  -0.369  -2.989  0.00  0.00    -0.012 A 
ATOM      4  C   UNL     1       2.117  -1.750  -2.946  0.00  0.00    +0.126 A 
ATOM      5  C   UNL     1       1.743  -2.444  -1.805  0.00  0.00    +0.095 A 
ATOM      6  C   UNL     1       1.254  -1.756  -0.706  0.00  0.00    +0.165 A 
ENDROOT
BRANCH   1   8
ATOM      7  C   UNL     1       0.541   1.726   0.203  0.00  0.00    +0.277 C 
ATOM      8  O   UNL     1       0.643   0.306   0.322  0.00  0.00    -0.491 OA
ENDBRANCH   1   8
BRANCH   6   9
ATOM      9  O   UNL     1       0.893  -2.434   0.416  0.00  0.00    -0.491 OA
ATOM     10  C   UNL     1       1.050  -3.854   0.394  0.00  0.00    +0.277 C 
ENDBRANCH   6   9
BRANCH   4  11
ATOM     11  O   UNL     1       2.602  -2.423  -4.023  0.00  0.00    -0.495 OA
ATOM     12  C   UNL     1       2.699  -3.844  -3.909  0.00  0.00    +0.277 C 
ENDBRANCH   4  11
BRANCH   3  13
ATOM     13  C   UNL     1       2.401   0.384  -4.230  0.00  0.00    -0.008 C 
BRANCH  13  14
ATOM     14  C   UNL     1       1.813   1.771  -4.192  0.00  0.00    -0.035 A 
ATOM     15  C   UNL     1       2.548   2.832  -3.696  0.00  0.00    +0.026 A 
ATOM     16  C   UNL     1       1.988   4.067  -3.676  0.00  0.00    +0.056 A 
ATOM     17  S   UNL     1       0.374   3.752  -4.372  0.00  0.00    -0.074 S 
ATOM     18  C   UNL     1       0.556   1.998  -4.649  0.00  0.00    +0.058 A 
ATOM     19 BR   UNL     1      -0.682   0.774  -5.385  0.00  0.00    -0.042 Br
ATOM     20 BR   UNL     1       2.725   5.698  -3.067  0.00  0.00    -0.043 Br
ENDBRANCH  13  14
BRANCH  13  21
ATOM     21  N   UNL     1       3.866   0.475  -4.290  0.00  0.00    +0.385 N 
ATOM     22  H   UNL     1       4.207   0.963  -3.475  0.00  0.00    -0.089 HD
ATOM     23  H   UNL     1       4.261  -0.453  -4.316  0.00  0.00    -0.089 HD
ATOM     24  H   UNL     1       4.138   0.979  -5.121  0.00  0.00    -0.089 HD
ENDBRANCH  13  21
ENDBRANCH   3  13
TORSDOF 6
