REMARK  Name = ZINC63362784
REMARK  10 active torsions:
REMARK  status: ('A' for Active; 'I' for Inactive)
REMARK    1  A    between atoms: C_1  and  C_2
REMARK    2  A    between atoms: C_2  and  C_3
REMARK    3  A    between atoms: C_6  and  C_9
REMARK    4  A    between atoms: C_9  and  N_10
REMARK    5  A    between atoms: C_11  and  C_13
REMARK    6  A    between atoms: C_13  and  C_15
REMARK    7  A    between atoms: C_13  and  N_16
REMARK    8  A    between atoms: C_19  and  C_37
REMARK    9  A    between atoms: C_25  and  O_30
REMARK   10  A    between atoms: O_30  and  C_31
REMARK                            x       y       z     vdW  Elec       q    Type
REMARK                         _______ _______ _______ _____ _____    ______ ____
ROOT
ATOM      1  N   UNL     1       4.948  -0.205  -8.727  0.00  0.00    -0.212 N 
ATOM      2  C   UNL     1       6.231   0.079  -9.029  0.00  0.00    +0.249 C 
ATOM      3  O   UNL     1       6.997   0.771  -8.393  0.00  0.00    -0.273 OA
ATOM      4  C   UNL     1       6.519  -0.646 -10.326  0.00  0.00    +0.136 C 
ATOM      5  C   UNL     1       6.873   0.362 -11.426  0.00  0.00    +0.139 C 
ATOM      6  C   UNL     1       6.611  -0.339 -12.753  0.00  0.00    -0.034 C 
ATOM      7  C   UNL     1       7.758  -0.309 -13.424  0.00  0.00    +0.003 A 
ATOM      8  C   UNL     1       8.117  -0.769 -14.774  0.00  0.00    +0.055 A 
ATOM      9  C   UNL     1       9.412  -0.594 -15.155  0.00  0.00    +0.121 A 
ATOM     10  C   UNL     1      10.396  -0.010 -14.344  0.00  0.00    +0.047 A 
ATOM     11  C   UNL     1      10.173   0.453 -13.087  0.00  0.00    +0.029 A 
ATOM     12  C   UNL     1       8.806   0.321 -12.564  0.00  0.00    +0.043 A 
ATOM     13  N   UNL     1       8.301   0.688 -11.411  0.00  0.00    -0.375 N 
ATOM     14  C   UNL     1       5.288  -0.972 -13.108  0.00  0.00    +0.052 C 
ATOM     15  C   UNL     1       4.906  -1.912 -11.947  0.00  0.00    +0.115 C 
ATOM     16  N   UNL     1       5.205  -1.228 -10.685  0.00  0.00    -0.269 N 
ATOM     17  C   UNL     1       4.379  -0.978  -9.661  0.00  0.00    +0.313 C 
ATOM     18  O   UNL     1       3.242  -1.402  -9.590  0.00  0.00    -0.252 OA
ATOM     19  C   UNL     1       7.595  -1.719 -10.155  0.00  0.00    +0.044 C 
ATOM     20  H   UNL     1       8.782   1.099 -10.676  0.00  0.00    +0.160 HD
ENDROOT
BRANCH   1  21
ATOM     21  C   UNL     1       4.263   0.268  -7.522  0.00  0.00    +0.168 C 
ATOM     22  C   UNL     1       3.049   1.109  -7.923  0.00  0.00    +0.038 C 
BRANCH  21  24
ATOM     23  N   UNL     1       3.149  -0.719  -5.546  0.00  0.00    -0.310 N 
ATOM     24  C   UNL     1       3.808  -0.914  -6.705  0.00  0.00    +0.234 C 
ATOM     25  O   UNL     1       4.034  -2.041  -7.092  0.00  0.00    -0.274 OA
ATOM     26  H   UNL     1       2.969   0.182  -5.236  0.00  0.00    +0.149 HD
BRANCH  23  27
ATOM     27  C   UNL     1       2.707  -1.868  -4.752  0.00  0.00    +0.139 C 
BRANCH  27  31
ATOM     28  C   UNL     1       0.707  -0.490  -1.238  0.00  0.00    -0.048 A 
ATOM     29  C   UNL     1      -0.011  -0.719  -2.397  0.00  0.00    +0.004 A 
ATOM     30  C   UNL     1       0.636  -1.164  -3.534  0.00  0.00    +0.005 A 
ATOM     31  C   UNL     1       2.002  -1.381  -3.513  0.00  0.00    -0.030 A 
ATOM     32  C   UNL     1       2.720  -1.152  -2.354  0.00  0.00    +0.005 A 
ATOM     33  C   UNL     1       2.073  -0.702  -1.218  0.00  0.00    +0.004 A 
BRANCH  28  35
ATOM     34  C   UNL     1      -0.019   1.526   0.010  0.00  0.00    +0.009 C 
ATOM     35  C   UNL     1       0.002  -0.004   0.002  0.00  0.00    +0.032 C 
ENDBRANCH  28  35
ENDBRANCH  27  31
ENDBRANCH  23  27
ENDBRANCH  21  24
ENDBRANCH   1  21
BRANCH   9  36
ATOM     36  O   UNL     1       9.774  -1.009 -16.398  0.00  0.00    -0.495 OA
ATOM     37  C   UNL     1      11.138  -0.815 -16.775  0.00  0.00    +0.277 C 
ENDBRANCH   9  36
TORSDOF 6
