REMARK  Name = ZINC15068636
REMARK  5 active torsions:
REMARK  status: ('A' for Active; 'I' for Inactive)
REMARK    1  A    between atoms: C_1  and  N_2
REMARK    2  A    between atoms: C_4  and  C_7
REMARK    3  A    between atoms: C_7  and  N_8
REMARK    4  A    between atoms: C_19  and  N_57
REMARK    5  A    between atoms: C_23  and  N_57
REMARK                            x       y       z     vdW  Elec       q    Type
REMARK                         _______ _______ _______ _____ _____    ______ ____
ROOT
ATOM      1  N   UNL     1       4.474   1.292  -0.829  0.00  0.00    -0.294 N 
ATOM      2  C   UNL     1       4.722   0.066  -1.358  0.00  0.00    +0.203 A 
ATOM      3  N   UNL     1       5.082  -0.072  -2.606  0.00  0.00    -0.230 NA
ATOM      4  C   UNL     1       5.228   0.987  -3.397  0.00  0.00    +0.116 A 
ATOM      5  C   UNL     1       5.000   2.295  -2.939  0.00  0.00    +0.076 A 
ATOM      6  C   UNL     1       4.601   2.411  -1.567  0.00  0.00    +0.263 A 
ATOM      7  O   UNL     1       4.380   3.505  -1.076  0.00  0.00    -0.267 OA
ATOM      8  C   UNL     1       5.201   3.361  -3.919  0.00  0.00    -0.023 A 
ATOM      9  C   UNL     1       5.581   2.988  -5.160  0.00  0.00    -0.006 A 
ATOM     10  S   UNL     1       5.693   1.220  -5.093  0.00  0.00    -0.073 S 
ATOM     11  C   UNL     1       5.848   3.880  -6.334  0.00  0.00    +0.027 C 
ATOM     12  C   UNL     1       5.269   5.269  -6.028  0.00  0.00    -0.066 C 
ATOM     13  C   UNL     1       5.713   5.688  -4.624  0.00  0.00    -0.011 C 
ATOM     14  C   UNL     1       4.996   4.834  -3.577  0.00  0.00    +0.035 C 
ENDROOT
BRANCH  12  15
ATOM     15  N   UNL     1       5.776   6.239  -7.017  0.00  0.00    +0.383 N 
ATOM     16  H   UNL     1       5.885   5.771  -7.925  0.00  0.00    -0.085 HD
ATOM     17  H   UNL     1       6.686   6.597  -6.705  0.00  0.00    -0.085 HD
BRANCH  15  18
ATOM     18  C   UNL     1       4.833   7.364  -7.160  0.00  0.00    -0.071 C 
ATOM     19  C   UNL     1       3.729   6.968  -8.161  0.00  0.00    -0.016 C 
ATOM     20  C   UNL     1       2.538   7.861  -7.937  0.00  0.00    -0.002 C 
ATOM     21  C   UNL     1       2.540   9.091  -8.865  0.00  0.00    -0.000 C 
ATOM     22  C   UNL     1       3.937   9.725  -9.013  0.00  0.00    -0.000 C 
ATOM     23  C   UNL     1       4.681   9.791  -7.707  0.00  0.00    -0.002 C 
ATOM     24  C   UNL     1       5.576   8.540  -7.589  0.00  0.00    -0.016 C 
ENDBRANCH  15  18
ENDBRANCH  12  15
BRANCH   1  25
ATOM     25  C   UNL     1       4.066   1.400   0.574  0.00  0.00    +0.164 C 
BRANCH  25  29
ATOM     26  C   UNL     1      -0.621  -0.322   1.005  0.00  0.00    +0.172 C 
ATOM     27  N   UNL     1       0.525   0.579   0.855  0.00  0.00    -0.274 N 
ATOM     28  C   UNL     1       1.823   0.212   0.814  0.00  0.00    +0.113 A 
ATOM     29  C   UNL     1       2.564   1.335   0.666  0.00  0.00    +0.010 A 
ATOM     30  C   UNL     1       1.688   2.425   0.615  0.00  0.00    +0.139 A 
ATOM     31  N   UNL     1       0.466   1.973   0.728  0.00  0.00    -0.180 NA
ENDBRANCH  25  29
ENDBRANCH   1  25
TORSDOF 4
