REMARK  Name = ZINC20494780
REMARK  3 active torsions:
REMARK  status: ('A' for Active; 'I' for Inactive)
REMARK    1  A    between atoms: C_4  and  C_7
REMARK    2  A    between atoms: C_14  and  C_25
REMARK    3  A    between atoms: N_16  and  C_19
REMARK                            x       y       z     vdW  Elec       q    Type
REMARK                         _______ _______ _______ _____ _____    ______ ____
ROOT
ATOM      1  C   UNL     1       7.395  -1.175   0.003  0.00  0.00    +0.050 C 
ATOM      2  N   UNL     1       8.018  -1.745  -1.009  0.00  0.00    -0.382 N 
ATOM      3  C   UNL     1       7.246  -2.433  -2.039  0.00  0.00    +0.131 C 
ATOM      4  C   UNL     1       6.765  -3.826  -1.621  0.00  0.00    +0.122 C 
ATOM      5  N   UNL     1       6.224  -3.777  -0.257  0.00  0.00    -0.338 N 
ATOM      6  C   UNL     1       5.447  -2.683   0.093  0.00  0.00    +0.098 C 
ATOM      7  C   UNL     1       5.964  -1.432   0.183  0.00  0.00    +0.027 C 
ATOM      8  C   UNL     1       4.833  -0.498   0.486  0.00  0.00    +0.146 C 
ATOM      9  N   UNL     1       3.637  -1.348   0.611  0.00  0.00    -0.255 N 
ATOM     10  C   UNL     1       4.007  -2.624   0.378  0.00  0.00    +0.266 C 
ATOM     11  O   UNL     1       3.260  -3.583   0.401  0.00  0.00    -0.268 OA
ATOM     12  H   UNL     1       6.439  -4.591   0.450  0.00  0.00    +0.146 HD
ATOM     13  H   UNL     1       9.115  -1.702  -1.074  0.00  0.00    +0.160 HD
ENDROOT
BRANCH   8  14
ATOM     14  C   UNL     1       4.655   0.490  -0.637  0.00  0.00    -0.018 A 
ATOM     15  C   UNL     1       4.025   0.101  -1.805  0.00  0.00    +0.009 A 
ATOM     16  C   UNL     1       3.855   1.005  -2.837  0.00  0.00    +0.050 A 
ATOM     17  C   UNL     1       4.326   2.301  -2.707  0.00  0.00    +0.166 A 
ATOM     18  C   UNL     1       4.965   2.692  -1.533  0.00  0.00    +0.167 A 
ATOM     19  C   UNL     1       5.127   1.782  -0.501  0.00  0.00    +0.055 A 
ATOM     20  O   UNL     1       5.332   4.001  -1.651  0.00  0.00    -0.453 OA
ATOM     21  C   UNL     1       4.551   4.523  -2.743  0.00  0.00    +0.466 C 
ATOM     22  O   UNL     1       4.292   3.366  -3.560  0.00  0.00    -0.453 OA
ENDBRANCH   8  14
BRANCH   1  26
ATOM     23  C   UNL     1       9.496   1.363   2.690  0.00  0.00    +0.000 A 
ATOM     24  C   UNL     1       8.200   0.977   2.979  0.00  0.00    +0.001 A 
ATOM     25  C   UNL     1       7.513   0.154   2.110  0.00  0.00    +0.010 A 
ATOM     26  C   UNL     1       8.128  -0.289   0.940  0.00  0.00    -0.002 A 
ATOM     27  C   UNL     1       9.437   0.099   0.657  0.00  0.00    +0.010 A 
ATOM     28  C   UNL     1      10.112   0.927   1.530  0.00  0.00    +0.001 A 
ENDBRANCH   1  26
BRANCH   9  29
ATOM     29  C   UNL     1       2.344  -0.908   0.910  0.00  0.00    +0.038 A 
ATOM     30  C   UNL     1       1.300  -1.821   0.992  0.00  0.00    +0.023 A 
ATOM     31  C   UNL     1       0.024  -1.384   1.288  0.00  0.00    +0.002 A 
ATOM     32  C   UNL     1      -0.215  -0.039   1.504  0.00  0.00    +0.000 A 
ATOM     33  C   UNL     1       0.822   0.872   1.424  0.00  0.00    +0.002 A 
ATOM     34  C   UNL     1       2.100   0.442   1.128  0.00  0.00    +0.023 A 
ENDBRANCH   9  29
TORSDOF 3
