REMARK  Name = ZINC09953087
REMARK  11 active torsions:
REMARK  status: ('A' for Active; 'I' for Inactive)
REMARK    1  A    between atoms: C_1  and  C_2
REMARK    2  A    between atoms: C_2  and  C_4
REMARK    3  A    between atoms: C_2  and  N_70
REMARK    4  A    between atoms: C_7  and  S_16
REMARK    5  A    between atoms: N_8  and  C_9
REMARK    6  A    between atoms: S_16  and  C_17
REMARK    7  A    between atoms: C_17  and  C_19
REMARK    8  A    between atoms: C_17  and  C_20
REMARK    9  A    between atoms: N_22  and  C_23
REMARK   10  A    between atoms: C_23  and  C_24
REMARK   11  A    between atoms: C_24  and  C_25
REMARK                            x       y       z     vdW  Elec       q    Type
REMARK                         _______ _______ _______ _____ _____    ______ ____
ROOT
ATOM      1  C   UNL     1       0.067   1.449   0.201  0.00  0.00    +0.125 A 
ATOM      2  N   UNL     1       0.234   0.158   0.236  0.00  0.00    -0.135 NA
ATOM      3  N   UNL     1       1.478  -0.123   0.398  0.00  0.00    -0.122 NA
ATOM      4  C   UNL     1       2.180   0.984   0.475  0.00  0.00    +0.197 A 
ATOM      5  N   UNL     1       1.300   2.025   0.351  0.00  0.00    -0.275 N 
ENDROOT
BRANCH   5   6
ATOM      6  C   UNL     1       1.600   3.395   0.374  0.00  0.00    +0.050 A 
ATOM      7  C   UNL     1       1.400   4.169  -0.760  0.00  0.00    +0.029 A 
ATOM      8  C   UNL     1       1.690   5.519  -0.735  0.00  0.00    +0.040 A 
ATOM      9  C   UNL     1       2.192   6.098   0.419  0.00  0.00    +0.124 A 
ATOM     10  C   UNL     1       2.397   5.327   1.550  0.00  0.00    +0.040 A 
ATOM     11  C   UNL     1       2.103   3.978   1.530  0.00  0.00    +0.029 A 
ATOM     12  F   UNL     1       2.482   7.418   0.440  0.00  0.00    -0.205 F 
ENDBRANCH   5   6
BRANCH   1  14
ATOM     13  C   UNL     1      -1.704   2.040  -1.432  0.00  0.00    -0.005 C 
ATOM     14  C   UNL     1      -1.241   2.176   0.020  0.00  0.00    -0.002 C 
BRANCH  14  20
ATOM     15  C   UNL     1      -3.535   2.295   0.784  0.00  0.00    -0.078 C 
ATOM     16  C   UNL     1      -4.599   1.574   1.615  0.00  0.00    -0.019 C 
ATOM     17  C   UNL     1      -4.158   1.542   3.081  0.00  0.00    -0.004 C 
ATOM     18  C   UNL     1      -2.797   0.848   3.182  0.00  0.00    -0.019 C 
ATOM     19  C   UNL     1      -1.786   1.590   2.305  0.00  0.00    -0.078 C 
ATOM     20  N   UNL     1      -2.256   1.565   0.904  0.00  0.00    +0.386 N 
ATOM     21  H   UNL     1      -2.401   0.589   0.619  0.00  0.00    -0.081 HD
ENDBRANCH  14  20
ENDBRANCH   1  14
BRANCH   4  22
ATOM     22  S   UNL     1       3.924   1.106   0.697  0.00  0.00    -0.073 S 
BRANCH  22  23
ATOM     23  C   UNL     1       4.355  -0.650   0.772  0.00  0.00    +0.137 C 
ATOM     24  C   UNL     1       3.723  -1.278   2.016  0.00  0.00    +0.029 C 
BRANCH  23  25
ATOM     25  C   UNL     1       5.853  -0.797   0.841  0.00  0.00    +0.226 C 
ATOM     26  O   UNL     1       6.531   0.105   1.285  0.00  0.00    -0.275 OA
ATOM     27  N   UNL     1       6.439  -1.931   0.408  0.00  0.00    -0.314 N 
ATOM     28  H   UNL     1       5.897  -2.652   0.052  0.00  0.00    +0.149 HD
BRANCH  27  29
ATOM     29  C   UNL     1       7.896  -2.073   0.475  0.00  0.00    +0.108 C 
BRANCH  29  30
ATOM     30  C   UNL     1       8.300  -3.443  -0.075  0.00  0.00    +0.049 C 
BRANCH  30  31
ATOM     31  C   UNL     1       9.798  -3.590  -0.006  0.00  0.00    -0.072 C 
ATOM     32  C   UNL     1      10.303  -4.186   1.026  0.00  0.00    -0.028 C 
ATOM     33  C   UNL     1      11.773  -4.398   1.239  0.00  0.00    +0.027 C 
ATOM     34  C   UNL     1      12.529  -4.211  -0.078  0.00  0.00    +0.004 C 
ATOM     35  C   UNL     1      12.075  -2.892  -0.715  0.00  0.00    +0.005 C 
ATOM     36  C   UNL     1      10.612  -3.042  -1.142  0.00  0.00    +0.030 C 
ENDBRANCH  30  31
ENDBRANCH  29  30
ENDBRANCH  27  29
ENDBRANCH  23  25
ENDBRANCH  22  23
ENDBRANCH   4  22
TORSDOF 9
