REMARK  Name = ZINC16033033
REMARK  7 active torsions:
REMARK  status: ('A' for Active; 'I' for Inactive)
REMARK    1  A    between atoms: C_1  and  C_2
REMARK    2  A    between atoms: C_17  and  C_20
REMARK    3  A    between atoms: C_20  and  C_22
REMARK    4  A    between atoms: C_20  and  O_23
REMARK    5  A    between atoms: N_26  and  C_29
REMARK    6  A    between atoms: C_29  and  C_30
REMARK    7  A    between atoms: C_30  and  C_31
REMARK                            x       y       z     vdW  Elec       q    Type
REMARK                         _______ _______ _______ _____ _____    ______ ____
ROOT
ATOM      1  C   UNL     1      -0.323   1.663  -0.199  0.00  0.00    +0.044 C 
ATOM      2  C   UNL     1      -0.158   0.168  -0.114  0.00  0.00    -0.049 A 
ATOM      3  C   UNL     1      -0.092  -0.590  -1.270  0.00  0.00    +0.011 A 
ATOM      4  C   UNL     1       0.059  -1.956  -1.192  0.00  0.00    +0.005 A 
ATOM      5  C   UNL     1       0.147  -2.591   0.044  0.00  0.00    +0.057 A 
ATOM      6  C   UNL     1       0.081  -1.821   1.204  0.00  0.00    +0.063 A 
ATOM      7  C   UNL     1      -0.065  -0.450   1.120  0.00  0.00    +0.025 A 
ATOM      8 CL   UNL     1       0.188  -2.586   2.758  0.00  0.00    -0.082 Cl
ATOM      9  N   UNL     1       0.295  -3.969  -0.130  0.00  0.00    -0.282 N 
ATOM     10  C   UNL     1       0.314  -4.317  -1.431  0.00  0.00    +0.243 C 
ATOM     11  O   UNL     1       0.429  -5.439  -1.879  0.00  0.00    -0.273 OA
ATOM     12  C   UNL     1       0.163  -3.046  -2.221  0.00  0.00    +0.136 C 
ATOM     13  C   UNL     1      -1.076  -3.088  -3.123  0.00  0.00    +0.122 C 
ATOM     14  C   UNL     1      -0.654  -2.313  -4.402  0.00  0.00    +0.109 C 
ATOM     15  C   UNL     1       0.795  -1.858  -4.130  0.00  0.00    +0.096 C 
ATOM     16  N   UNL     1       1.311  -2.830  -3.121  0.00  0.00    -0.293 NA
ATOM     17  C   UNL     1      -0.665  -3.377  -5.476  0.00  0.00    +0.227 C 
ATOM     18  O   UNL     1      -0.385  -3.199  -6.641  0.00  0.00    -0.275 OA
ATOM     19  N   UNL     1      -1.033  -4.546  -4.939  0.00  0.00    -0.241 N 
ATOM     20  C   UNL     1      -1.300  -4.502  -3.613  0.00  0.00    +0.228 C 
ATOM     21  O   UNL     1      -1.655  -5.433  -2.924  0.00  0.00    -0.275 OA
ATOM     22  H   UNL     1       0.374  -4.602   0.601  0.00  0.00    +0.155 HD
ATOM     23  H   UNL     1       2.096  -2.442  -2.619  0.00  0.00    +0.124 HD
ENDROOT
BRANCH  15  24
ATOM     24  C   UNL     1       1.630  -1.946  -5.409  0.00  0.00    +0.129 C 
ATOM     25  C   UNL     1       1.116  -0.923  -6.425  0.00  0.00    +0.039 C 
BRANCH  24  26
ATOM     26  O   UNL     1       2.999  -1.669  -5.105  0.00  0.00    -0.390 OA
ATOM     27  H   UNL     1       3.148  -0.792  -4.727  0.00  0.00    +0.210 HD
ENDBRANCH  24  26
ENDBRANCH  15  24
BRANCH  19  28
ATOM     28  C   UNL     1      -1.145  -5.778  -5.723  0.00  0.00    +0.121 C 
BRANCH  28  29
ATOM     29  C   UNL     1       0.198  -6.512  -5.714  0.00  0.00    +0.054 C 
BRANCH  29  30
ATOM     30  C   UNL     1       0.082  -7.779  -6.522  0.00  0.00    -0.046 A 
ATOM     31  C   UNL     1      -0.309  -8.956  -5.910  0.00  0.00    +0.004 A 
ATOM     32  C   UNL     1      -0.414 -10.118  -6.650  0.00  0.00    +0.000 A 
ATOM     33  C   UNL     1      -0.130 -10.104  -8.003  0.00  0.00    +0.000 A 
ATOM     34  C   UNL     1       0.260  -8.928  -8.615  0.00  0.00    +0.000 A 
ATOM     35  C   UNL     1       0.362  -7.765  -7.875  0.00  0.00    +0.004 A 
ENDBRANCH  29  30
ENDBRANCH  28  29
ENDBRANCH  19  28
TORSDOF 5
