REMARK  Name = ZINC32641052
REMARK  7 active torsions:
REMARK  status: ('A' for Active; 'I' for Inactive)
REMARK    1  A    between atoms: C_1  and  C_2
REMARK    2  A    between atoms: C_5  and  N_9
REMARK    3  A    between atoms: C_6  and  C_8
REMARK    4  A    between atoms: C_20  and  S_21
REMARK    5  A    between atoms: S_21  and  C_22
REMARK    6  A    between atoms: C_22  and  C_23
REMARK    7  A    between atoms: C_28  and  C_29
REMARK                            x       y       z     vdW  Elec       q    Type
REMARK                         _______ _______ _______ _____ _____    ______ ____
ROOT
ATOM      1  N   UNL     1      -2.818   1.561   0.055  0.00  0.00    -0.273 N 
ATOM      2  C   UNL     1      -3.448   0.287  -0.334  0.00  0.00    +0.128 C 
ATOM      3  C   UNL     1      -4.462  -0.123   0.762  0.00  0.00    +0.191 C 
ATOM      4  S   UNL     1      -6.023   0.621   0.119  0.00  0.00    -0.027 S 
ATOM      5  O   UNL     1      -6.066   1.998   0.464  0.00  0.00    -0.174 OA
ATOM      6  O   UNL     1      -7.118  -0.223   0.448  0.00  0.00    -0.174 OA
ATOM      7  C   UNL     1      -5.641   0.453  -1.679  0.00  0.00    +0.194 C 
ATOM      8  C   UNL     1      -4.105   0.611  -1.680  0.00  0.00    +0.151 C 
ATOM      9  N   UNL     1      -3.767   2.022  -1.918  0.00  0.00    -0.256 NA
ATOM     10  C   UNL     1      -3.064   2.479  -0.932  0.00  0.00    +0.157 C 
ENDROOT
BRANCH   1  15
ATOM     11  C   UNL     1       0.139   2.505   4.803  0.00  0.00    +0.044 C 
ATOM     12  C   UNL     1      -0.647   2.252   3.543  0.00  0.00    -0.050 A 
ATOM     13  C   UNL     1      -2.013   2.465   3.527  0.00  0.00    +0.005 A 
ATOM     14  C   UNL     1      -2.736   2.233   2.373  0.00  0.00    +0.024 A 
ATOM     15  C   UNL     1      -2.089   1.790   1.227  0.00  0.00    +0.039 A 
ATOM     16  C   UNL     1      -0.718   1.572   1.248  0.00  0.00    -0.029 A 
ATOM     17  C   UNL     1      -0.001   1.806   2.405  0.00  0.00    +0.008 A 
ATOM     18  C   UNL     1      -0.013   1.086   0.008  0.00  0.00    +0.045 C 
ENDBRANCH   1  15
BRANCH  10  19
ATOM     19  S   UNL     1      -2.474   4.138  -0.865  0.00  0.00    -0.086 S 
BRANCH  19  20
ATOM     20  C   UNL     1      -3.136   4.771  -2.426  0.00  0.00    +0.112 C 
BRANCH  20  21
ATOM     21  C   UNL     1      -2.746   6.217  -2.588  0.00  0.00    -0.034 A 
ATOM     22  C   UNL     1      -3.573   7.215  -2.107  0.00  0.00    +0.005 A 
ATOM     23  C   UNL     1      -3.212   8.541  -2.252  0.00  0.00    +0.000 A 
ATOM     24  C   UNL     1      -2.029   8.871  -2.887  0.00  0.00    +0.000 A 
ATOM     25  C   UNL     1      -1.205   7.873  -3.373  0.00  0.00    +0.003 A 
ATOM     26  C   UNL     1      -1.563   6.546  -3.224  0.00  0.00    -0.046 A 
ATOM     27  C   UNL     1      -0.665   5.459  -3.754  0.00  0.00    +0.044 C 
ENDBRANCH  20  21
ENDBRANCH  19  20
ENDBRANCH  10  19
TORSDOF 4
