REMARK  Name = ZINC62944898
REMARK  3 active torsions:
REMARK  status: ('A' for Active; 'I' for Inactive)
REMARK    1  A    between atoms: N_10  and  C_12
REMARK    2  A    between atoms: C_13  and  C_20
REMARK    3  A    between atoms: C_20  and  O_21
REMARK                            x       y       z     vdW  Elec       q    Type
REMARK                         _______ _______ _______ _____ _____    ______ ____
ROOT
ATOM      1  C   UNL     1      -0.475   0.552  -0.125  0.00  0.00    +0.000 A 
ATOM      2  C   UNL     1       0.594   1.427  -0.068  0.00  0.00    +0.000 A 
ATOM      3  C   UNL     1       1.878   0.925  -0.026  0.00  0.00    +0.005 A 
ATOM      4  C   UNL     1       2.102  -0.444  -0.055  0.00  0.00    -0.027 A 
ATOM      5  C   UNL     1       1.046  -1.319  -0.153  0.00  0.00    -0.043 A 
ATOM      6  C   UNL     1      -0.251  -0.806  -0.164  0.00  0.00    +0.004 A 
ATOM      7  C   UNL     1       1.163  -2.817  -0.313  0.00  0.00    +0.037 C 
ATOM      8  C   UNL     1       2.406  -3.388   0.362  0.00  0.00    +0.024 C 
ATOM      9  C   UNL     1       3.582  -3.322  -0.628  0.00  0.00    +0.107 C 
ATOM     10  N   UNL     1       3.808  -1.929  -0.974  0.00  0.00    -0.309 N 
ATOM     11  C   UNL     1       3.520  -0.929   0.057  0.00  0.00    +0.142 C 
ENDROOT
BRANCH  10  12
ATOM     12  C   UNL     1       4.282  -1.558  -2.241  0.00  0.00    +0.147 A 
ATOM     13  C   UNL     1       5.578  -1.452  -2.600  0.00  0.00    +0.091 A 
ATOM     14  N   UNL     1       5.614  -1.060  -3.942  0.00  0.00    -0.293 N 
ATOM     15  C   UNL     1       6.557  -0.777  -4.905  0.00  0.00    +0.101 A 
ATOM     16  C   UNL     1       6.191  -0.418  -6.134  0.00  0.00    +0.067 A 
ATOM     17  S   UNL     1       4.409  -0.456  -6.013  0.00  0.00    -0.058 S 
ATOM     18  C   UNL     1       4.300  -0.954  -4.310  0.00  0.00    +0.179 A 
ATOM     19  N   UNL     1       3.523  -1.253  -3.307  0.00  0.00    -0.206 NA
BRANCH  13  20
ATOM     20  C   UNL     1       6.771  -1.708  -1.716  0.00  0.00    +0.213 C 
BRANCH  20  21
ATOM     21  O   UNL     1       7.141  -0.498  -1.052  0.00  0.00    -0.389 OA
ATOM     22  H   UNL     1       7.904  -0.589  -0.465  0.00  0.00    +0.210 HD
ENDBRANCH  20  21
ENDBRANCH  13  20
ENDBRANCH  10  12
TORSDOF 3
