REMARK  Name = ZINC39863063
REMARK  6 active torsions:
REMARK  status: ('A' for Active; 'I' for Inactive)
REMARK    1  A    between atoms: C_1  and  O_2
REMARK    2  A    between atoms: O_2  and  C_3
REMARK    3  A    between atoms: C_5  and  C_10
REMARK    4  A    between atoms: C_8  and  O_9
REMARK    5  A    between atoms: N_14  and  C_24
REMARK    6  A    between atoms: N_16  and  C_17
REMARK                            x       y       z     vdW  Elec       q    Type
REMARK                         _______ _______ _______ _____ _____    ______ ____
ROOT
ATOM      1  C   UNL     1       2.238   0.049   4.324  0.00  0.00    +0.028 C 
ATOM      2  C   UNL     1       2.931  -0.519   5.344  0.00  0.00    +0.078 C 
ATOM      3  C   UNL     1       3.450   0.097   6.580  0.00  0.00    +0.259 C 
ATOM      4  O   UNL     1       3.289   1.280   6.818  0.00  0.00    -0.269 OA
ATOM      5  N   UNL     1       4.098  -0.695   7.418  0.00  0.00    -0.243 N 
ATOM      6  C   UNL     1       4.270  -2.030   7.131  0.00  0.00    +0.170 C 
ATOM      7  N   UNL     1       4.883  -2.949   7.848  0.00  0.00    -0.206 NA
ATOM      8  S   UNL     1       3.453  -2.215   5.555  0.00  0.00    -0.049 S 
ENDROOT
BRANCH   1  11
ATOM      9  C   UNL     1       0.861  -0.945   0.980  0.00  0.00    +0.162 A 
ATOM     10  C   UNL     1       1.089  -0.225   2.137  0.00  0.00    +0.057 A 
ATOM     11  C   UNL     1       1.990  -0.711   3.092  0.00  0.00    -0.020 A 
ATOM     12  C   UNL     1       2.655  -1.923   2.869  0.00  0.00    +0.012 A 
ATOM     13  C   UNL     1       2.421  -2.633   1.712  0.00  0.00    +0.050 A 
ATOM     14  C   UNL     1       1.523  -2.153   0.768  0.00  0.00    +0.158 A 
BRANCH   9  16
ATOM     15  C   UNL     1      -0.657   0.768   0.333  0.00  0.00    +0.277 C 
ATOM     16  O   UNL     1      -0.014  -0.477   0.050  0.00  0.00    -0.491 OA
ENDBRANCH   9  16
BRANCH  14  17
ATOM     17  O   UNL     1       1.292  -2.861  -0.368  0.00  0.00    -0.503 OA
ATOM     18  H   UNL     1       1.883  -2.635  -1.099  0.00  0.00    +0.292 HD
ENDBRANCH  14  17
ENDBRANCH   1  11
BRANCH   7  19
ATOM     19  C   UNL     1       5.582  -2.590   8.962  0.00  0.00    +0.155 A 
ATOM     20  C   UNL     1       4.985  -2.699  10.223  0.00  0.00    +0.048 A 
ATOM     21  C   UNL     1       5.708  -2.331  11.341  0.00  0.00    +0.005 A 
ATOM     22  C   UNL     1       7.006  -1.865  11.170  0.00  0.00    +0.020 A 
ATOM     23  C   UNL     1       7.536  -1.782   9.897  0.00  0.00    +0.113 A 
ATOM     24  N   UNL     1       6.830  -2.143   8.844  0.00  0.00    -0.236 NA
ENDBRANCH   7  19
BRANCH   5  25
ATOM     25  C   UNL     1       4.639  -0.145   8.663  0.00  0.00    +0.084 C 
ATOM     26  C   UNL     1       3.532   0.593   9.418  0.00  0.00    +0.023 C 
ATOM     27  C   UNL     1       4.097   1.167  10.719  0.00  0.00    +0.002 C 
ATOM     28  C   UNL     1       5.231   2.142  10.396  0.00  0.00    +0.000 C 
ATOM     29  C   UNL     1       6.338   1.404   9.641  0.00  0.00    +0.002 C 
ATOM     30  C   UNL     1       5.773   0.830   8.340  0.00  0.00    +0.023 C 
ENDBRANCH   5  25
TORSDOF 5
