REMARK  Name = ZINC63540962
REMARK  14 active torsions:
REMARK  status: ('A' for Active; 'I' for Inactive)
REMARK    1  A    between atoms: C_1  and  C_2
REMARK    2  A    between atoms: C_2  and  C_3
REMARK    3  A    between atoms: C_2  and  C_4
REMARK    4  A    between atoms: C_4  and  O_5
REMARK    5  A    between atoms: O_5  and  C_6
REMARK    6  A    between atoms: C_6  and  C_8
REMARK    7  A    between atoms: C_11  and  O_14
REMARK    8  A    between atoms: O_14  and  C_15
REMARK    9  A    between atoms: C_15  and  C_16
REMARK   10  A    between atoms: C_18  and  C_24
REMARK   11  A    between atoms: C_21  and  O_22
REMARK   12  A    between atoms: O_22  and  C_23
REMARK   13  A    between atoms: C_31  and  O_36
REMARK   14  A    between atoms: O_36  and  C_37
REMARK                            x       y       z     vdW  Elec       q    Type
REMARK                         _______ _______ _______ _____ _____    ______ ____
ROOT
ATOM      1  C   UNL     1      -2.375   0.769  10.744  0.00  0.00    +0.032 A 
ATOM      2  C   UNL     1      -3.551   1.460  10.522  0.00  0.00    +0.015 A 
ATOM      3  C   UNL     1      -4.331   1.860  11.590  0.00  0.00    -0.028 A 
ATOM      4  C   UNL     1      -3.937   1.571  12.884  0.00  0.00    +0.009 A 
ATOM      5  C   UNL     1      -2.763   0.880  13.111  0.00  0.00    +0.046 A 
ATOM      6  C   UNL     1      -1.980   0.473  12.040  0.00  0.00    +0.126 A 
ENDROOT
BRANCH   3   7
ATOM      7  C   UNL     1      -5.613   2.614  11.345  0.00  0.00    +0.111 C 
ATOM      8  C   UNL     1      -5.607   3.916  12.150  0.00  0.00    +0.128 C 
ATOM      9  C   UNL     1      -5.642   3.509  13.619  0.00  0.00    -0.035 C 
ATOM     10  C   UNL     1      -4.614   4.112  14.199  0.00  0.00    +0.003 A 
ATOM     11  C   UNL     1      -4.174   4.176  15.601  0.00  0.00    +0.055 A 
ATOM     12  C   UNL     1      -3.041   4.888  15.854  0.00  0.00    +0.121 A 
ATOM     13  C   UNL     1      -2.292   5.546  14.868  0.00  0.00    +0.047 A 
ATOM     14  C   UNL     1      -2.610   5.557  13.548  0.00  0.00    +0.029 A 
ATOM     15  C   UNL     1      -3.820   4.825  13.150  0.00  0.00    +0.043 A 
ATOM     16  N   UNL     1      -4.378   4.686  11.965  0.00  0.00    -0.376 N 
ATOM     17  C   UNL     1      -6.654   2.519  14.142  0.00  0.00    +0.048 C 
ATOM     18  C   UNL     1      -6.632   1.327  13.168  0.00  0.00    +0.086 C 
ATOM     19  N   UNL     1      -6.758   1.802  11.786  0.00  0.00    -0.307 NA
ATOM     20  H   UNL     1      -7.626   2.298  11.652  0.00  0.00    +0.123 HD
ATOM     21  H   UNL     1      -4.041   5.024  11.120  0.00  0.00    +0.160 HD
BRANCH  12  22
ATOM     22  O   UNL     1      -2.610   4.965  17.141  0.00  0.00    -0.495 OA
ATOM     23  C   UNL     1      -1.419   5.717  17.382  0.00  0.00    +0.277 C 
ENDBRANCH  12  22
ENDBRANCH   3   7
BRANCH   6  24
ATOM     24  O   UNL     1      -0.827  -0.212  12.261  0.00  0.00    -0.495 OA
ATOM     25  C   UNL     1      -0.483  -0.482  13.621  0.00  0.00    +0.277 C 
ENDBRANCH   6  24
BRANCH   1  26
ATOM     26  C   UNL     1      -1.524   0.334   9.578  0.00  0.00    +0.268 C 
BRANCH  26  27
ATOM     27  O   UNL     1      -2.137   0.754   8.358  0.00  0.00    -0.487 OA
BRANCH  27  31
ATOM     28  C   UNL     1      -0.181  -0.204   4.851  0.00  0.00    +0.059 A 
ATOM     29  C   UNL     1      -1.388   0.501   4.811  0.00  0.00    +0.018 A 
ATOM     30  C   UNL     1      -2.037   0.818   5.983  0.00  0.00    +0.046 A 
ATOM     31  C   UNL     1      -1.494   0.439   7.205  0.00  0.00    +0.121 A 
ATOM     32  C   UNL     1      -0.295  -0.262   7.250  0.00  0.00    +0.046 A 
ATOM     33  C   UNL     1       0.358  -0.588   6.082  0.00  0.00    +0.018 A 
BRANCH  28  34
ATOM     34  C   UNL     1       0.517  -0.546   3.599  0.00  0.00    +0.339 C 
ATOM     35  O   UNL     1       1.563  -1.163   3.635  0.00  0.00    -0.245 OA
BRANCH  34  36
ATOM     36  O   UNL     1      -0.004  -0.174   2.413  0.00  0.00    -0.461 OA
BRANCH  36  37
ATOM     37  C   UNL     1       0.726  -0.539   1.240  0.00  0.00    +0.235 C 
BRANCH  37  39
ATOM     38  C   UNL     1      -0.036   1.495   0.005  0.00  0.00    +0.010 C 
ATOM     39  C   UNL     1      -0.016  -0.035   0.000  0.00  0.00    +0.020 C 
ATOM     40  C   UNL     1       0.698  -0.532  -1.258  0.00  0.00    +0.010 C 
ENDBRANCH  37  39
ENDBRANCH  36  37
ENDBRANCH  34  36
ENDBRANCH  28  34
ENDBRANCH  27  31
ENDBRANCH  26  27
ENDBRANCH   1  26
TORSDOF 10
