REMARK  Name = ZINC04712075
REMARK  10 active torsions:
REMARK  status: ('A' for Active; 'I' for Inactive)
REMARK    1  A    between atoms: C_1  and  C_2
REMARK    2  A    between atoms: C_2  and  C_3
REMARK    3  A    between atoms: C_2  and  C_4
REMARK    4  A    between atoms: C_4  and  C_5
REMARK    5  A    between atoms: C_5  and  N_6
REMARK    6  A    between atoms: C_7  and  C_9
REMARK    7  A    between atoms: C_11  and  S_19
REMARK    8  A    between atoms: S_19  and  C_20
REMARK    9  A    between atoms: C_24  and  S_26
REMARK   10  A    between atoms: S_26  and  C_27
REMARK                            x       y       z     vdW  Elec       q    Type
REMARK                         _______ _______ _______ _____ _____    ______ ____
ROOT
ATOM      1  C   UNL     1       1.287  -2.096  -0.032  0.00  0.00    +0.048 A 
ATOM      2  C   UNL     1       0.064  -2.751  -0.036  0.00  0.00    +0.048 A 
ATOM      3  C   UNL     1      -1.120  -2.000  -0.017  0.00  0.00    +0.103 A 
ATOM      4  N   UNL     1      -1.118  -0.685   0.005  0.00  0.00    -0.240 NA
ATOM      5  C   UNL     1       0.011   0.027   0.010  0.00  0.00    +0.073 A 
ATOM      6  C   UNL     1       1.265  -0.633  -0.007  0.00  0.00    +0.013 A 
ATOM      7  C   UNL     1       2.446   0.116  -0.001  0.00  0.00    +0.011 A 
ATOM      8  C   UNL     1       2.381   1.478   0.022  0.00  0.00    +0.001 A 
ATOM      9  C   UNL     1       1.151   2.132   0.038  0.00  0.00    +0.002 A 
ATOM     10  C   UNL     1      -0.017   1.433   0.033  0.00  0.00    +0.028 A 
ENDROOT
BRANCH   1  12
ATOM     11  N   UNL     1       2.554  -4.191   0.044  0.00  0.00    -0.311 N 
ATOM     12  C   UNL     1       2.561  -2.846  -0.050  0.00  0.00    +0.245 C 
ATOM     13  O   UNL     1       3.616  -2.250  -0.151  0.00  0.00    -0.270 OA
ATOM     14  H   UNL     1       1.712  -4.666   0.124  0.00  0.00    +0.149 HD
BRANCH  11  15
ATOM     15  C   UNL     1       3.816  -4.934   0.025  0.00  0.00    +0.105 C 
BRANCH  15  16
ATOM     16  C   UNL     1       3.528  -6.431   0.146  0.00  0.00    +0.022 C 
BRANCH  16  18
ATOM     17  C   UNL     1       4.569  -8.692   0.372  0.00  0.00    +0.007 C 
ATOM     18  C   UNL     1       4.847  -7.207   0.127  0.00  0.00    -0.016 C 
ATOM     19  C   UNL     1       5.521  -7.033  -1.236  0.00  0.00    +0.007 C 
ENDBRANCH  16  18
ENDBRANCH  15  16
ENDBRANCH  11  15
ENDBRANCH   1  12
BRANCH   3  20
ATOM     20  S   UNL     1      -2.664  -2.849  -0.022  0.00  0.00    -0.070 S 
BRANCH  20  21
ATOM     21  C   UNL     1      -3.858  -1.559  -0.144  0.00  0.00    +0.015 A 
ATOM     22  C   UNL     1      -4.302  -0.910   1.003  0.00  0.00    +0.015 A 
ATOM     23  C   UNL     1      -5.234   0.104   0.908  0.00  0.00    +0.002 A 
ATOM     24  C   UNL     1      -5.737   0.471  -0.325  0.00  0.00    +0.015 A 
ATOM     25  C   UNL     1      -5.303  -0.176  -1.476  0.00  0.00    +0.009 A 
ATOM     26  C   UNL     1      -4.362  -1.193  -1.385  0.00  0.00    +0.029 A 
BRANCH  25  27
ATOM     27  S   UNL     1      -5.945   0.292  -3.048  0.00  0.00    -0.129 S 
ATOM     28  C   UNL     1      -7.112   1.627  -2.665  0.00  0.00    +0.090 C 
ENDBRANCH  25  27
ENDBRANCH  20  21
ENDBRANCH   3  20
TORSDOF 7
