REMARK  Name = ZINC44167408
REMARK  5 active torsions:
REMARK  status: ('A' for Active; 'I' for Inactive)
REMARK    1  A    between atoms: C_6  and  C_7
REMARK    2  A    between atoms: C_12  and  C_15
REMARK    3  A    between atoms: N_17  and  C_18
REMARK    4  A    between atoms: C_18  and  C_19
REMARK    5  A    between atoms: C_19  and  C_20
REMARK                            x       y       z     vdW  Elec       q    Type
REMARK                         _______ _______ _______ _____ _____    ______ ____
ROOT
ATOM      1  C   UNL     1      -1.272  -0.766  -0.024  0.00  0.00    -0.030 C 
ATOM      2  C   UNL     1      -1.553  -1.230   1.410  0.00  0.00    +0.058 C 
ATOM      3  S   UNL     1      -3.157  -2.091   1.427  0.00  0.00    -0.163 S 
ATOM      4  C   UNL     1      -2.992  -3.267   0.048  0.00  0.00    +0.062 C 
ATOM      5  C   UNL     1      -2.495  -2.498  -1.183  0.00  0.00    +0.027 C 
ATOM      6  N   UNL     1      -1.174  -1.927  -0.911  0.00  0.00    +0.392 N 
ATOM      7  H   UNL     1      -0.752  -1.644  -1.782  0.00  0.00    -0.084 HD
ATOM      8  H   UNL     1      -0.593  -2.628  -0.475  0.00  0.00    -0.084 HD
ENDROOT
BRANCH   1  14
ATOM      9  C   UNL     1       0.012   1.382  -0.064  0.00  0.00    +0.005 A 
ATOM     10  C   UNL     1       1.201   2.085  -0.095  0.00  0.00    +0.038 A 
ATOM     11  C   UNL     1       2.407   1.405  -0.117  0.00  0.00    +0.123 A 
ATOM     12  C   UNL     1       2.419   0.020  -0.110  0.00  0.00    +0.038 A 
ATOM     13  C   UNL     1       1.229  -0.681  -0.080  0.00  0.00    +0.005 A 
ATOM     14  C   UNL     1       0.026  -0.001  -0.057  0.00  0.00    -0.060 A 
ATOM     15  F   UNL     1       3.570   2.091  -0.147  0.00  0.00    -0.205 F 
ENDBRANCH   1  14
BRANCH   5  16
ATOM     16  C   UNL     1      -3.463  -1.389  -1.505  0.00  0.00    +0.200 C 
ATOM     17  O   UNL     1      -3.052  -0.329  -1.927  0.00  0.00    -0.278 OA
ATOM     18  N   UNL     1      -4.786  -1.575  -1.324  0.00  0.00    -0.316 N 
ATOM     19  H   UNL     1      -5.115  -2.423  -0.986  0.00  0.00    +0.149 HD
BRANCH  18  20
ATOM     20  C   UNL     1      -5.727  -0.497  -1.637  0.00  0.00    +0.109 C 
BRANCH  20  21
ATOM     21  C   UNL     1      -7.154  -0.965  -1.344  0.00  0.00    +0.055 C 
BRANCH  21  22
ATOM     22  C   UNL     1      -8.122   0.144  -1.666  0.00  0.00    -0.027 A 
ATOM     23  C   UNL     1      -8.546   1.003  -0.669  0.00  0.00    +0.006 A 
ATOM     24  C   UNL     1      -9.434   2.020  -0.964  0.00  0.00    +0.020 A 
ATOM     25  C   UNL     1      -9.899   2.180  -2.257  0.00  0.00    +0.042 A 
ATOM     26  C   UNL     1      -9.475   1.322  -3.255  0.00  0.00    +0.040 A 
ATOM     27  C   UNL     1      -8.582   0.306  -2.961  0.00  0.00    +0.046 A 
ATOM     28 CL   UNL     1      -8.045  -0.768  -4.214  0.00  0.00    -0.083 Cl
ATOM     29 CL   UNL     1     -11.014   3.458  -2.627  0.00  0.00    -0.083 Cl
ENDBRANCH  21  22
ENDBRANCH  20  21
ENDBRANCH  18  20
ENDBRANCH   5  16
TORSDOF 5
