REMARK  Name = ZINC03130759
REMARK  8 active torsions:
REMARK  status: ('A' for Active; 'I' for Inactive)
REMARK    1  A    between atoms: C_1  and  N_2
REMARK    2  A    between atoms: N_2  and  C_3
REMARK    3  A    between atoms: N_6  and  C_7
REMARK    4  A    between atoms: C_7  and  C_9
REMARK    5  A    between atoms: C_7  and  N_13
REMARK    6  A    between atoms: N_13  and  C_14
REMARK    7  A    between atoms: C_14  and  N_16
REMARK    8  A    between atoms: N_16  and  C_17
REMARK                            x       y       z     vdW  Elec       q    Type
REMARK                         _______ _______ _______ _____ _____    ______ ____
ROOT
ATOM      1  N   UNL     1       3.604  -0.888   0.165  0.00  0.00    -0.305 N 
ATOM      2  H   UNL     1       4.435  -0.388   0.159  0.00  0.00    +0.150 HD
ENDROOT
BRANCH   1   3
ATOM      3  C   UNL     1       2.426  -0.239   0.078  0.00  0.00    +0.136 C 
ATOM      4  S   UNL     1       0.960  -1.122   0.088  0.00  0.00    -0.019 S 
BRANCH   3   5
ATOM      5  N   UNL     1       2.403   1.105  -0.015  0.00  0.00    -0.296 N 
ATOM      6  H   UNL     1       3.234   1.601  -0.084  0.00  0.00    +0.154 HD
BRANCH   5   7
ATOM      7  C   UNL     1       1.179   1.786  -0.014  0.00  0.00    +0.051 A 
ATOM      8  C   UNL     1       0.142   1.353  -0.829  0.00  0.00    +0.026 A 
ATOM      9  C   UNL     1      -1.062   2.030  -0.830  0.00  0.00    +0.022 A 
ATOM     10  C   UNL     1      -1.239   3.132  -0.012  0.00  0.00    +0.042 A 
ATOM     11  C   UNL     1      -0.208   3.566   0.801  0.00  0.00    +0.041 A 
ATOM     12  C   UNL     1       1.001   2.896   0.802  0.00  0.00    +0.063 A 
ATOM     13 CL   UNL     1       2.296   3.442   1.822  0.00  0.00    -0.082 Cl
ATOM     14 CL   UNL     1      -2.757   3.975  -0.012  0.00  0.00    -0.083 Cl
ENDBRANCH   5   7
ENDBRANCH   3   5
ENDBRANCH   1   3
BRANCH   1  15
ATOM     15  C   UNL     1       3.630  -2.349   0.267  0.00  0.00    +0.212 C 
BRANCH  15  21
ATOM     16  C   UNL     1       2.219  -4.078   4.598  0.00  0.00    +0.133 C 
ATOM     17  N   UNL     1       3.273  -3.566   3.718  0.00  0.00    -0.292 N 
ATOM     18  C   UNL     1       4.645  -3.441   4.215  0.00  0.00    +0.133 C 
ATOM     19  C   UNL     1       2.979  -3.209   2.452  0.00  0.00    +0.303 C 
ATOM     20  O   UNL     1       1.840  -3.312   2.040  0.00  0.00    -0.253 OA
ATOM     21  N   UNL     1       3.949  -2.737   1.643  0.00  0.00    -0.277 N 
ATOM     22  H   UNL     1       4.857  -2.655   1.972  0.00  0.00    +0.152 HD
ENDBRANCH  15  21
BRANCH  15  23
ATOM     23  C   UNL     1       4.694  -2.908  -0.680  0.00  0.00    +0.225 C 
ATOM     24 CL   UNL     1       6.308  -2.246  -0.228  0.00  0.00    -0.080 Cl
ATOM     25 CL   UNL     1       4.725  -4.707  -0.555  0.00  0.00    -0.080 Cl
ATOM     26 CL   UNL     1       4.301  -2.431  -2.374  0.00  0.00    -0.080 Cl
ENDBRANCH  15  23
ENDBRANCH   1  15
TORSDOF 6
