REMARK  Name = ZINC59169402
REMARK  13 active torsions:
REMARK  status: ('A' for Active; 'I' for Inactive)
REMARK    1  A    between atoms: C_1  and  C_2
REMARK    2  A    between atoms: C_5  and  C_30
REMARK    3  A    between atoms: C_6  and  N_8
REMARK    4  A    between atoms: N_8  and  C_9
REMARK    5  A    between atoms: C_9  and  N_11
REMARK    6  A    between atoms: N_11  and  C_12
REMARK    7  A    between atoms: N_11  and  C_23
REMARK    8  A    between atoms: C_12  and  C_13
REMARK    9  A    between atoms: C_16  and  C_19
REMARK   10  A    between atoms: C_19  and  C_20
REMARK   11  A    between atoms: C_19  and  C_21
REMARK   12  A    between atoms: C_19  and  C_22
REMARK   13  A    between atoms: C_23  and  C_24
REMARK                            x       y       z     vdW  Elec       q    Type
REMARK                         _______ _______ _______ _____ _____    ______ ____
ROOT
ATOM      1  N   UNL     1       0.266  -2.819   4.717  0.00  0.00    -0.306 N 
ENDROOT
BRANCH   1   2
ATOM      2  C   UNL     1       0.149  -2.135   3.562  0.00  0.00    +0.138 C 
ATOM      3  S   UNL     1       0.127  -0.423   3.580  0.00  0.00    -0.018 S 
BRANCH   2   4
ATOM      4  N   UNL     1       0.051  -2.797   2.392  0.00  0.00    -0.297 N 
ATOM      5  H   UNL     1      -0.015  -3.765   2.387  0.00  0.00    +0.154 HD
BRANCH   4  11
ATOM      6  C   UNL     1       1.918   0.768  -0.431  0.00  0.00    +0.044 C 
ATOM      7  C   UNL     1       0.940  -0.357  -0.210  0.00  0.00    -0.049 A 
ATOM      8  C   UNL     1       0.035  -0.690  -1.201  0.00  0.00    +0.004 A 
ATOM      9  C   UNL     1      -0.865  -1.721  -1.002  0.00  0.00    +0.005 A 
ATOM     10  C   UNL     1      -0.862  -2.422   0.188  0.00  0.00    -0.029 A 
ATOM     11  C   UNL     1       0.046  -2.090   1.185  0.00  0.00    +0.036 A 
ATOM     12  C   UNL     1       0.951  -1.057   0.980  0.00  0.00    +0.027 A 
ATOM     13  C   UNL     1      -1.842  -3.546   0.405  0.00  0.00    +0.045 C 
ENDBRANCH   4  11
ENDBRANCH   2   4
ENDBRANCH   1   2
BRANCH   1  14
ATOM     14  C   UNL     1       0.373  -2.099   5.988  0.00  0.00    +0.142 C 
BRANCH  14  15
ATOM     15  C   UNL     1      -1.006  -1.872   6.554  0.00  0.00    -0.030 A 
ATOM     16  C   UNL     1      -1.709  -0.729   6.224  0.00  0.00    +0.005 A 
ATOM     17  C   UNL     1      -2.973  -0.521   6.744  0.00  0.00    +0.004 A 
ATOM     18  C   UNL     1      -3.534  -1.456   7.592  0.00  0.00    -0.042 A 
ATOM     19  C   UNL     1      -2.831  -2.600   7.921  0.00  0.00    +0.004 A 
ATOM     20  C   UNL     1      -1.569  -2.810   7.399  0.00  0.00    +0.005 A 
BRANCH  18  21
ATOM     21  C   UNL     1      -4.911  -1.229   8.159  0.00  0.00    -0.013 C 
ATOM     22  C   UNL     1      -5.921  -1.115   7.016  0.00  0.00    +0.015 C 
ATOM     23  C   UNL     1      -5.292  -2.405   9.061  0.00  0.00    +0.015 C 
ATOM     24  C   UNL     1      -4.919   0.064   8.978  0.00  0.00    +0.015 C 
ENDBRANCH  18  21
ENDBRANCH  14  15
ENDBRANCH   1  14
BRANCH   1  25
ATOM     25  C   UNL     1       0.285  -4.284   4.701  0.00  0.00    +0.138 C 
BRANCH  25  26
ATOM     26  C   UNL     1       1.728  -4.773   4.563  0.00  0.00    +0.136 C 
ATOM     27  C   UNL     1       1.749  -6.311   4.424  0.00  0.00    +0.035 C 
ATOM     28  C   UNL     1       2.990  -6.702   5.272  0.00  0.00    +0.031 C 
ATOM     29  C   UNL     1       2.932  -5.630   6.390  0.00  0.00    +0.160 C 
ATOM     30  O   UNL     1       2.471  -4.433   5.740  0.00  0.00    -0.375 OA
ENDBRANCH  25  26
ENDBRANCH   1  25
TORSDOF 8
