REMARK  Name = ZINC63041482
REMARK  8 active torsions:
REMARK  status: ('A' for Active; 'I' for Inactive)
REMARK    1  A    between atoms: C_1  and  C_2
REMARK    2  A    between atoms: C_2  and  C_4
REMARK    3  A    between atoms: C_4  and  C_6
REMARK    4  A    between atoms: C_4  and  C_18
REMARK    5  A    between atoms: C_9  and  S_12
REMARK    6  A    between atoms: S_12  and  C_15
REMARK    7  A    between atoms: C_18  and  C_19
REMARK    8  A    between atoms: C_18  and  C_20
REMARK                            x       y       z     vdW  Elec       q    Type
REMARK                         _______ _______ _______ _____ _____    ______ ____
ROOT
ATOM      1  C   UNL     1       2.188  -0.092   1.170  0.00  0.00    -0.043 A 
ATOM      2  C   UNL     1       3.097  -0.863   0.469  0.00  0.00    +0.006 A 
ATOM      3  C   UNL     1       4.423  -0.479   0.403  0.00  0.00    +0.027 A 
ATOM      4  C   UNL     1       4.840   0.676   1.037  0.00  0.00    +0.094 A 
ATOM      5  C   UNL     1       3.932   1.447   1.738  0.00  0.00    +0.027 A 
ATOM      6  C   UNL     1       2.604   1.065   1.800  0.00  0.00    +0.006 A 
ENDROOT
BRANCH   4   7
ATOM      7  S   UNL     1       6.531   1.165   0.954  0.00  0.00    +0.058 S 
ATOM      8  O   UNL     1       6.742   1.942   2.125  0.00  0.00    -0.164 OA
ATOM      9  O   UNL     1       7.249  -0.044   0.748  0.00  0.00    -0.164 OA
BRANCH   7  10
ATOM     10  C   UNL     1       6.641   2.215  -0.521  0.00  0.00    +0.485 C 
ATOM     11  F   UNL     1       6.259   1.479  -1.647  0.00  0.00    -0.183 F 
ATOM     12  F   UNL     1       5.790   3.316  -0.374  0.00  0.00    -0.183 F 
ENDBRANCH   7  10
ENDBRANCH   4   7
BRANCH   1  13
ATOM     13  C   UNL     1       0.742  -0.511   1.242  0.00  0.00    +0.035 C 
BRANCH  13  15
ATOM     14  C   UNL     1       0.181   1.292  -0.395  0.00  0.00    +0.020 C 
ATOM     15  C   UNL     1       0.055  -0.202  -0.090  0.00  0.00    +0.061 C 
ATOM     16 BR   UNL     1       0.911  -1.238  -1.525  0.00  0.00    -0.088 Br
ENDBRANCH  13  15
BRANCH  13  17
ATOM     17  C   UNL     1       0.659  -2.013   1.522  0.00  0.00    -0.009 C 
ATOM     18  C   UNL     1       1.347  -2.321   2.854  0.00  0.00    +0.008 C 
ATOM     19  C   UNL     1      -0.809  -2.438   1.595  0.00  0.00    +0.008 C 
ENDBRANCH  13  17
ENDBRANCH   1  13
TORSDOF 5
