REMARK  Name = ZINC65464659
REMARK  3 active torsions:
REMARK  status: ('A' for Active; 'I' for Inactive)
REMARK    1  A    between atoms: C_3  and  O_25
REMARK    2  A    between atoms: C_8  and  C_11
REMARK    3  A    between atoms: C_11  and  N_12
REMARK                            x       y       z     vdW  Elec       q    Type
REMARK                         _______ _______ _______ _____ _____    ______ ____
ROOT
ATOM      1  C   UNL     1      -2.351  -2.953   0.008  0.00  0.00    +0.121 C 
ENDROOT
BRANCH   1   2
ATOM      2  N   UNL     1      -2.771  -3.218  -1.375  0.00  0.00    -0.295 NA
ATOM      3  C   UNL     1      -3.178  -1.978  -2.048  0.00  0.00    +0.103 C 
ATOM      4  C   UNL     1      -3.433  -2.266  -3.531  0.00  0.00    +0.123 C 
ATOM      5  N   UNL     1      -4.396  -3.373  -3.633  0.00  0.00    -0.297 N 
ATOM      6  C   UNL     1      -4.124  -4.603  -2.874  0.00  0.00    +0.123 C 
ATOM      7  C   UNL     1      -3.841  -4.223  -1.416  0.00  0.00    +0.103 C 
ATOM      8  C   UNL     1      -5.528  -3.261  -4.422  0.00  0.00    +0.218 A 
ATOM      9  N   UNL     1      -5.737  -2.140  -5.096  0.00  0.00    -0.221 NA
ATOM     10  C   UNL     1      -6.809  -1.999  -5.859  0.00  0.00    +0.136 A 
ATOM     11  C   UNL     1      -7.717  -3.043  -5.949  0.00  0.00    +0.077 A 
ATOM     12  C   UNL     1      -7.467  -4.203  -5.230  0.00  0.00    +0.136 A 
ATOM     13  N   UNL     1      -6.373  -4.279  -4.490  0.00  0.00    -0.221 NA
ATOM     14 CL   UNL     1      -9.137  -2.902  -6.938  0.00  0.00    -0.080 Cl
ENDBRANCH   1   2
BRANCH   1  22
ATOM     15  C   UNL     1      -0.017   1.400   0.010  0.00  0.00    +0.013 A 
ATOM     16  C   UNL     1       1.153   2.093   0.002  0.00  0.00    +0.046 A 
ATOM     17  C   UNL     1       2.382   1.424  -0.013  0.00  0.00    +0.119 A 
ATOM     18  C   UNL     1       2.435   0.049  -0.022  0.00  0.00    +0.073 A 
ATOM     19  C   UNL     1       1.242  -0.692  -0.014  0.00  0.00    +0.074 A 
ATOM     20  C   UNL     1       0.002  -0.004   0.002  0.00  0.00    +0.001 A 
ATOM     21  C   UNL     1      -1.191  -0.750   0.009  0.00  0.00    +0.016 A 
ATOM     22  C   UNL     1      -1.099  -2.114   0.000  0.00  0.00    -0.015 A 
ATOM     23  C   UNL     1       0.151  -2.727  -0.015  0.00  0.00    +0.116 A 
ATOM     24  N   UNL     1       1.261  -2.029  -0.022  0.00  0.00    -0.255 NA
BRANCH  17  25
ATOM     25  O   UNL     1       3.536   2.140  -0.021  0.00  0.00    -0.507 OA
ATOM     26  H   UNL     1       3.879   2.343   0.860  0.00  0.00    +0.292 HD
ENDBRANCH  17  25
ENDBRANCH   1  22
TORSDOF 3
