REMARK  Name = ZINC08846385
REMARK  16 active torsions:
REMARK  status: ('A' for Active; 'I' for Inactive)
REMARK    1  A    between atoms: C_1  and  C_2
REMARK    2  A    between atoms: C_2  and  O_3
REMARK    3  A    between atoms: O_3  and  C_4
REMARK    4  A    between atoms: C_7  and  C_13
REMARK    5  A    between atoms: C_8  and  O_10
REMARK    6  A    between atoms: O_10  and  C_11
REMARK    7  A    between atoms: C_11  and  C_12
REMARK    8  A    between atoms: C_20  and  N_38
REMARK    9  A    between atoms: C_21  and  C_36
REMARK   10  A    between atoms: C_22  and  C_24
REMARK   11  A    between atoms: C_27  and  O_33
REMARK   12  A    between atoms: C_28  and  O_30
REMARK   13  A    between atoms: O_30  and  C_31
REMARK   14  A    between atoms: C_31  and  C_32
REMARK   15  A    between atoms: O_33  and  C_34
REMARK   16  A    between atoms: C_34  and  C_35
REMARK                            x       y       z     vdW  Elec       q    Type
REMARK                         _______ _______ _______ _____ _____    ______ ____
ROOT
ATOM      1  C   UNL     1       1.137  -6.040   1.752  0.00  0.00    +0.077 A 
ATOM      2  C   UNL     1       0.572  -6.793   2.727  0.00  0.00    +0.054 A 
ATOM      3  C   UNL     1       0.933  -8.137   2.506  0.00  0.00    +0.245 A 
ATOM      4  N   UNL     1       1.683  -8.190   1.442  0.00  0.00    -0.135 NA
ATOM      5  N   UNL     1       1.830  -6.889   0.935  0.00  0.00    -0.273 N 
ATOM      6  H   UNL     1       2.335  -6.638   0.147  0.00  0.00    +0.189 HD
ATOM      7  O   UNL     1       0.517  -9.139   3.327  0.00  0.00    -0.421 OA
ATOM      8  C   UNL     1      -0.024  -8.788   4.511  0.00  0.00    +0.201 C 
ATOM      9  C   UNL     1      -0.418  -7.537   4.831  0.00  0.00    +0.098 C 
ATOM     10  C   UNL     1      -0.299  -6.371   3.882  0.00  0.00    +0.102 C 
ENDROOT
BRANCH   1  14
ATOM     11  C   UNL     1       0.802  -1.824   1.306  0.00  0.00    +0.124 A 
ATOM     12  C   UNL     1       0.258  -2.670   0.348  0.00  0.00    +0.046 A 
ATOM     13  C   UNL     1       0.365  -4.037   0.489  0.00  0.00    +0.017 A 
ATOM     14  C   UNL     1       1.021  -4.574   1.597  0.00  0.00    +0.042 A 
ATOM     15  C   UNL     1       1.569  -3.720   2.562  0.00  0.00    +0.133 A 
ATOM     16  C   UNL     1       1.461  -2.349   2.408  0.00  0.00    +0.092 A 
BRANCH  11  17
ATOM     17  O   UNL     1       0.693  -0.477   1.160  0.00  0.00    -0.492 OA
BRANCH  17  19
ATOM     18  C   UNL     1      -0.019   1.526   0.010  0.00  0.00    +0.048 C 
ATOM     19  C   UNL     1       0.002  -0.004   0.002  0.00  0.00    +0.225 C 
ENDBRANCH  17  19
ENDBRANCH  11  17
BRANCH  15  20
ATOM     20  O   UNL     1       2.210  -4.236   3.643  0.00  0.00    -0.491 OA
BRANCH  20  21
ATOM     21  C   UNL     1       2.744  -3.304   4.585  0.00  0.00    +0.226 C 
ATOM     22  C   UNL     1       3.423  -4.065   5.726  0.00  0.00    +0.048 C 
ENDBRANCH  20  21
ENDBRANCH  15  20
ENDBRANCH   1  14
BRANCH  10  23
ATOM     23  C   UNL     1      -1.666  -5.988   3.374  0.00  0.00    -0.031 A 
ATOM     24  C   UNL     1      -2.439  -6.918   2.704  0.00  0.00    +0.008 A 
ATOM     25  C   UNL     1      -3.693  -6.571   2.237  0.00  0.00    +0.050 A 
ATOM     26  C   UNL     1      -4.177  -5.289   2.440  0.00  0.00    +0.162 A 
ATOM     27  C   UNL     1      -3.399  -4.353   3.115  0.00  0.00    +0.162 A 
ATOM     28  C   UNL     1      -2.146  -4.708   3.585  0.00  0.00    +0.054 A 
BRANCH  27  29
ATOM     29  O   UNL     1      -3.871  -3.093   3.317  0.00  0.00    -0.489 OA
BRANCH  29  30
ATOM     30  C   UNL     1      -3.018  -2.186   4.017  0.00  0.00    +0.226 C 
ATOM     31  C   UNL     1      -3.713  -0.829   4.147  0.00  0.00    +0.048 C 
ENDBRANCH  29  30
ENDBRANCH  27  29
BRANCH  26  32
ATOM     32  O   UNL     1      -5.410  -4.946   1.980  0.00  0.00    -0.489 OA
BRANCH  32  33
ATOM     33  C   UNL     1      -6.152  -5.957   1.296  0.00  0.00    +0.226 C 
ATOM     34  C   UNL     1      -7.503  -5.389   0.857  0.00  0.00    +0.048 C 
ENDBRANCH  32  33
ENDBRANCH  26  32
ENDBRANCH  10  23
BRANCH   8  35
ATOM     35  N   UNL     1      -0.185  -9.770   5.456  0.00  0.00    -0.328 N 
ATOM     36  H   UNL     1       0.087 -10.680   5.261  0.00  0.00    +0.145 HD
ATOM     37  H   UNL     1      -0.571  -9.554   6.319  0.00  0.00    +0.145 HD
ENDBRANCH   8  35
BRANCH   9  38
ATOM     38  C   UNL     1      -0.974  -7.307   6.130  0.00  0.00    +0.101 C 
ATOM     39  N   UNL     1      -1.415  -7.125   7.161  0.00  0.00    -0.191 NA
ENDBRANCH   9  38
TORSDOF 12
