REMARK  Name = ZINC13264917
REMARK  10 active torsions:
REMARK  status: ('A' for Active; 'I' for Inactive)
REMARK    1  A    between atoms: C_1  and  C_2
REMARK    2  A    between atoms: C_7  and  O_8
REMARK    3  A    between atoms: O_8  and  C_9
REMARK    4  A    between atoms: C_9  and  C_10
REMARK    5  A    between atoms: C_10  and  C_11
REMARK    6  A    between atoms: C_11  and  C_12
REMARK    7  A    between atoms: N_14  and  N_15
REMARK    8  A    between atoms: N_15  and  S_16
REMARK    9  A    between atoms: S_16  and  C_19
REMARK   10  A    between atoms: C_21  and  C_27
REMARK                            x       y       z     vdW  Elec       q    Type
REMARK                         _______ _______ _______ _____ _____    ______ ____
ROOT
ATOM      1  C   UNL     1       2.313   5.837  -0.410  0.00  0.00    +0.228 C 
ATOM      2  O   UNL     1       1.159   6.210  -0.374  0.00  0.00    -0.274 OA
ATOM      3  N   UNL     1       3.313   6.727  -0.263  0.00  0.00    -0.232 N 
ATOM      4  H   UNL     1       4.236   6.429  -0.291  0.00  0.00    +0.171 HD
ENDROOT
BRANCH   3   5
ATOM      5  N   UNL     1       3.021   8.084  -0.067  0.00  0.00    -0.108 NA
ATOM      6  H   UNL     1       2.469   8.558  -0.708  0.00  0.00    +0.172 HD
BRANCH   5   7
ATOM      7  S   UNL     1       3.620   8.877   1.257  0.00  0.00    +0.075 S 
ATOM      8  O   UNL     1       3.285  10.248   1.095  0.00  0.00    -0.152 OA
ATOM      9  O   UNL     1       3.221   8.125   2.395  0.00  0.00    -0.152 OA
BRANCH   7  10
ATOM     10  C   UNL     1       5.377   8.775   1.176  0.00  0.00    +0.126 A 
ATOM     11  C   UNL     1       6.071   8.081   2.144  0.00  0.00    +0.046 A 
ATOM     12  C   UNL     1       7.464   8.000   2.079  0.00  0.00    +0.083 A 
ATOM     13  C   UNL     1       8.146   8.624   1.030  0.00  0.00    +0.057 A 
ATOM     14  C   UNL     1       7.438   9.316   0.067  0.00  0.00    +0.042 A 
ATOM     15  C   UNL     1       6.057   9.387   0.136  0.00  0.00    +0.069 A 
ATOM     16 CL   UNL     1       5.175  10.254  -1.082  0.00  0.00    -0.081 Cl
ATOM     17 CL   UNL     1       9.877   8.531   0.939  0.00  0.00    -0.083 Cl
BRANCH  12  18
ATOM     18  C   UNL     1       8.212   7.258   3.111  0.00  0.00    +0.388 C 
ATOM     19  O   UNL     1       9.424   7.189   3.052  0.00  0.00    -0.241 OA
ATOM     20  O   UNL     1       7.552   6.657   4.120  0.00  0.00    -0.241 OA
ENDBRANCH  12  18
ENDBRANCH   7  10
ENDBRANCH   5   7
ENDBRANCH   3   5
BRANCH   1  21
ATOM     21  C   UNL     1       2.627   4.378  -0.620  0.00  0.00    +0.100 C 
BRANCH  21  22
ATOM     22  C   UNL     1       1.323   3.590  -0.758  0.00  0.00    +0.050 C 
BRANCH  22  23
ATOM     23  C   UNL     1       1.642   2.109  -0.971  0.00  0.00    +0.229 C 
BRANCH  23  24
ATOM     24  O   UNL     1       0.424   1.373  -1.100  0.00  0.00    -0.492 OA
BRANCH  24  31
ATOM     25  C   UNL     1      -1.973  -0.102  -1.345  0.00  0.00    +0.047 C 
ATOM     26  C   UNL     1      -0.612  -0.744  -1.424  0.00  0.00    -0.007 A 
ATOM     27  C   UNL     1      -0.501  -2.106  -1.628  0.00  0.00    +0.027 A 
ATOM     28  C   UNL     1       0.748  -2.697  -1.694  0.00  0.00    +0.041 A 
ATOM     29  C   UNL     1       1.889  -1.925  -1.562  0.00  0.00    +0.023 A 
ATOM     30  C   UNL     1       1.782  -0.562  -1.363  0.00  0.00    +0.047 A 
ATOM     31  C   UNL     1       0.531   0.032  -1.296  0.00  0.00    +0.123 A 
ATOM     32 CL   UNL     1       0.885  -4.410  -1.944  0.00  0.00    -0.084 Cl
ENDBRANCH  24  31
ENDBRANCH  23  24
ENDBRANCH  22  23
ENDBRANCH  21  22
ENDBRANCH   1  21
TORSDOF 9
