REMARK  Name = ZINC27415684
REMARK  12 active torsions:
REMARK  status: ('A' for Active; 'I' for Inactive)
REMARK    1  A    between atoms: C_1  and  C_2
REMARK    2  A    between atoms: C_2  and  C_31
REMARK    3  A    between atoms: C_3  and  C_4
REMARK    4  A    between atoms: C_4  and  C_5
REMARK    5  A    between atoms: C_7  and  C_12
REMARK    6  A    between atoms: C_10  and  O_11
REMARK    7  A    between atoms: C_12  and  C_13
REMARK    8  A    between atoms: C_13  and  C_27
REMARK    9  A    between atoms: C_14  and  C_20
REMARK   10  A    between atoms: C_23  and  O_26
REMARK   11  A    between atoms: C_27  and  O_29
REMARK   12  A    between atoms: O_29  and  C_30
REMARK                            x       y       z     vdW  Elec       q    Type
REMARK                         _______ _______ _______ _____ _____    ______ ____
ROOT
ATOM      1  C   UNL     1      -0.530  -2.165   7.571  0.00  0.00    +0.242 C 
ATOM      2  C   UNL     1      -0.006  -3.092   8.643  0.00  0.00    +0.068 C 
ATOM      3  C   UNL     1       1.242  -2.663   8.946  0.00  0.00    +0.270 C 
ATOM      4  C   UNL     1       1.551  -1.497   8.118  0.00  0.00    +0.381 C 
ATOM      5  O   UNL     1       2.596  -0.876   8.149  0.00  0.00    -0.241 OA
ATOM      6  O   UNL     1       0.508  -1.213   7.316  0.00  0.00    -0.435 OA
ATOM      7  O   UNL     1       2.071  -3.222   9.868  0.00  0.00    -0.280 OA
ENDROOT
BRANCH   2   8
ATOM      8  C   UNL     1      -0.711  -4.235   9.239  0.00  0.00    -0.013 A 
ATOM      9  C   UNL     1      -1.034  -5.348   8.454  0.00  0.00    +0.012 A 
ATOM     10  C   UNL     1      -1.695  -6.417   9.018  0.00  0.00    +0.046 A 
ATOM     11  C   UNL     1      -2.042  -6.391  10.364  0.00  0.00    +0.117 A 
ATOM     12  C   UNL     1      -1.724  -5.288  11.147  0.00  0.00    +0.046 A 
ATOM     13  C   UNL     1      -1.058  -4.217  10.595  0.00  0.00    +0.012 A 
BRANCH  11  14
ATOM     14  O   UNL     1      -2.695  -7.447  10.914  0.00  0.00    -0.507 OA
ATOM     15  H   UNL     1      -2.109  -8.123  11.281  0.00  0.00    +0.292 HD
ENDBRANCH  11  14
ENDBRANCH   2   8
BRANCH   1  16
ATOM     16  C   UNL     1      -1.770  -1.460   8.057  0.00  0.00    +0.356 C 
ATOM     17  O   UNL     1      -2.862  -1.890   7.769  0.00  0.00    -0.246 OA
BRANCH  16  18
ATOM     18  O   UNL     1      -1.662  -0.354   8.810  0.00  0.00    -0.465 OA
ATOM     19  C   UNL     1      -2.878   0.263   9.236  0.00  0.00    +0.280 C 
ENDBRANCH  16  18
ENDBRANCH   1  16
BRANCH   1  20
ATOM     20  C   UNL     1      -0.841  -2.956   6.299  0.00  0.00    +0.100 C 
BRANCH  20  23
ATOM     21  C   UNL     1      -0.864  -0.562   3.381  0.00  0.00    -0.002 A 
ATOM     22  C   UNL     1      -0.421  -1.425   4.364  0.00  0.00    +0.011 A 
ATOM     23  C   UNL     1      -1.326  -2.014   5.228  0.00  0.00    -0.042 A 
ATOM     24  C   UNL     1      -2.677  -1.740   5.110  0.00  0.00    +0.007 A 
ATOM     25  C   UNL     1      -3.124  -0.877   4.129  0.00  0.00    +0.046 A 
ATOM     26  C   UNL     1      -2.217  -0.281   3.264  0.00  0.00    +0.120 A 
BRANCH  26  27
ATOM     27  O   UNL     1      -2.655   0.573   2.301  0.00  0.00    -0.506 OA
ATOM     28  H   UNL     1      -2.874   0.142   1.464  0.00  0.00    +0.292 HD
ENDBRANCH  26  27
BRANCH  21  29
ATOM     29  C   UNL     1       0.123   0.078   2.439  0.00  0.00    +0.066 C 
BRANCH  29  32
ATOM     30  C   UNL     1      -0.178   1.490   0.016  0.00  0.00    +0.038 C 
ATOM     31  C   UNL     1      -0.081  -0.014   0.008  0.00  0.00    -0.079 C 
ATOM     32  C   UNL     1       0.121  -0.664   1.128  0.00  0.00    -0.023 C 
ATOM     33  C   UNL     1      -0.216  -0.771  -1.288  0.00  0.00    +0.038 C 
ENDBRANCH  29  32
ENDBRANCH  21  29
ENDBRANCH  20  23
ENDBRANCH   1  20
TORSDOF 9
