REMARK  Name = ZINC08819270
REMARK  8 active torsions:
REMARK  status: ('A' for Active; 'I' for Inactive)
REMARK    1  A    between atoms: C_1  and  C_2
REMARK    2  A    between atoms: C_5  and  S_8
REMARK    3  A    between atoms: S_8  and  N_11
REMARK    4  A    between atoms: N_11  and  N_12
REMARK    5  A    between atoms: C_13  and  C_15
REMARK    6  A    between atoms: C_15  and  C_16
REMARK    7  A    between atoms: C_16  and  N_17
REMARK    8  A    between atoms: C_21  and  C_22
REMARK                            x       y       z     vdW  Elec       q    Type
REMARK                         _______ _______ _______ _____ _____    ______ ____
ROOT
ATOM      1  C   UNL     1       1.199   3.159  -0.203  0.00  0.00    +0.116 C 
ENDROOT
BRANCH   1   3
ATOM      2  N   UNL     1      -1.209   3.707  -0.340  0.00  0.00    -0.232 N 
ATOM      3  C   UNL     1      -0.255   2.764  -0.211  0.00  0.00    +0.229 C 
ATOM      4  O   UNL     1      -0.567   1.596  -0.107  0.00  0.00    -0.274 OA
ATOM      5  H   UNL     1      -0.960   4.641  -0.423  0.00  0.00    +0.171 HD
BRANCH   2   6
ATOM      6  N   UNL     1      -2.561   3.338  -0.353  0.00  0.00    -0.108 NA
ATOM      7  H   UNL     1      -2.878   2.681  -0.991  0.00  0.00    +0.172 HD
BRANCH   6   8
ATOM      8  S   UNL     1      -3.617   4.026   0.722  0.00  0.00    +0.074 S 
ATOM      9  O   UNL     1      -4.914   3.565   0.368  0.00  0.00    -0.152 OA
ATOM     10  O   UNL     1      -3.065   3.829   2.016  0.00  0.00    -0.152 OA
BRANCH   8  15
ATOM     11  C   UNL     1      -3.566   9.975  -0.285  0.00  0.00    +0.044 C 
ATOM     12  C   UNL     1      -3.579   8.489  -0.033  0.00  0.00    -0.050 A 
ATOM     13  C   UNL     1      -4.473   7.681  -0.711  0.00  0.00    +0.005 A 
ATOM     14  C   UNL     1      -4.485   6.318  -0.480  0.00  0.00    +0.029 A 
ATOM     15  C   UNL     1      -3.602   5.763   0.428  0.00  0.00    +0.107 A 
ATOM     16  C   UNL     1      -2.712   6.572   1.109  0.00  0.00    +0.029 A 
ATOM     17  C   UNL     1      -2.697   7.934   0.875  0.00  0.00    +0.005 A 
ENDBRANCH   8  15
ENDBRANCH   6   8
ENDBRANCH   2   6
ENDBRANCH   1   3
BRANCH   1  18
ATOM     18  C   UNL     1       2.067   1.908  -0.053  0.00  0.00    +0.124 C 
BRANCH  18  19
ATOM     19  N   UNL     1       3.481   2.293  -0.045  0.00  0.00    -0.255 N 
ATOM     20  C   UNL     1       4.067   2.575   1.106  0.00  0.00    +0.258 C 
ATOM     21  O   UNL     1       3.463   2.524   2.161  0.00  0.00    -0.269 OA
ATOM     22  C   UNL     1       5.494   2.955   1.045  0.00  0.00    +0.077 C 
ATOM     23  C   UNL     1       6.342   3.293   2.049  0.00  0.00    +0.031 C 
ATOM     24  S   UNL     1       5.795   2.849  -0.714  0.00  0.00    -0.061 S 
ATOM     25  C   UNL     1       4.155   2.346  -1.212  0.00  0.00    +0.121 C 
ATOM     26  S   UNL     1       3.579   2.014  -2.789  0.00  0.00    -0.027 S 
BRANCH  23  27
ATOM     27  C   UNL     1       5.917   3.154   3.448  0.00  0.00    +0.011 A 
ATOM     28  C   UNL     1       5.193   2.027   3.856  0.00  0.00    +0.011 A 
ATOM     29  C   UNL     1       4.798   1.905   5.170  0.00  0.00    +0.001 A 
ATOM     30  C   UNL     1       5.113   2.893   6.089  0.00  0.00    +0.003 A 
ATOM     31  C   UNL     1       5.828   4.010   5.697  0.00  0.00    +0.039 A 
ATOM     32  C   UNL     1       6.237   4.147   4.384  0.00  0.00    +0.131 A 
ATOM     33  F   UNL     1       6.940   5.237   4.003  0.00  0.00    -0.205 F 
ENDBRANCH  23  27
ENDBRANCH  18  19
ENDBRANCH   1  18
TORSDOF 7
