REMARK  Name = ZINC03742059
REMARK  7 active torsions:
REMARK  status: ('A' for Active; 'I' for Inactive)
REMARK    1  A    between atoms: C_10  and  N_29
REMARK    2  A    between atoms: C_12  and  N_16
REMARK    3  A    between atoms: C_22  and  C_24
REMARK    4  A    between atoms: N_29  and  C_30
REMARK    5  A    between atoms: C_30  and  C_31
REMARK    6  A    between atoms: C_31  and  C_32
REMARK    7  A    between atoms: C_32  and  C_33
REMARK                            x       y       z     vdW  Elec       q    Type
REMARK                         _______ _______ _______ _____ _____    ______ ____
ROOT
ATOM      1  C   UNL     1      -0.163   1.309   0.026  0.00  0.00    +0.001 A 
ATOM      2  C   UNL     1       1.016   2.044   0.019  0.00  0.00    +0.001 A 
ATOM      3  C   UNL     1       2.237   1.412   0.001  0.00  0.00    +0.012 A 
ATOM      4  C   UNL     1       2.304   0.014  -0.010  0.00  0.00    +0.033 A 
ATOM      5  C   UNL     1       1.103  -0.732  -0.001  0.00  0.00    +0.031 A 
ATOM      6  C   UNL     1      -0.127  -0.067   0.017  0.00  0.00    +0.012 A 
ATOM      7  C   UNL     1       1.160  -2.196  -0.008  0.00  0.00    +0.176 A 
ATOM      8  C   UNL     1       2.408  -2.762  -0.029  0.00  0.00    +0.063 A 
ATOM      9  C   UNL     1       3.670  -2.059  -0.043  0.00  0.00    +0.056 A 
ATOM     10  C   UNL     1       4.841  -2.833  -0.066  0.00  0.00    +0.041 A 
ATOM     11  C   UNL     1       4.763  -4.229  -0.074  0.00  0.00    +0.049 A 
ATOM     12  C   UNL     1       3.582  -4.942  -0.061  0.00  0.00    +0.061 A 
ATOM     13  C   UNL     1       2.303  -4.215  -0.036  0.00  0.00    +0.136 A 
ATOM     14  N   UNL     1       1.020  -4.458  -0.018  0.00  0.00    -0.076 NA
ATOM     15  O   UNL     1       0.301  -3.227  -0.001  0.00  0.00    -0.353 OA
ATOM     16  C   UNL     1       3.626  -0.646  -0.032  0.00  0.00    +0.196 C 
ATOM     17  O   UNL     1       4.654   0.013  -0.040  0.00  0.00    -0.287 OA
ENDROOT
BRANCH  12  18
ATOM     18  N   UNL     1       3.599  -6.321  -0.071  0.00  0.00    -0.325 N 
ATOM     19  C   UNL     1       3.596  -7.061  -1.341  0.00  0.00    +0.124 C 
ATOM     20  C   UNL     1       4.802  -8.008  -1.361  0.00  0.00    +0.127 C 
ATOM     21  N   UNL     1       4.825  -8.764  -0.101  0.00  0.00    -0.292 N 
ATOM     22  C   UNL     1       4.829  -8.025   1.169  0.00  0.00    +0.127 C 
ATOM     23  C   UNL     1       3.628  -7.078   1.189  0.00  0.00    +0.124 C 
ATOM     24  C   UNL     1       4.842 -10.112  -0.110  0.00  0.00    +0.282 C 
ATOM     25  O   UNL     1       4.961 -10.726   0.933  0.00  0.00    -0.267 OA
BRANCH  24  26
ATOM     26  C   UNL     1       4.718 -10.838  -1.379  0.00  0.00    +0.189 A 
ATOM     27  C   UNL     1       4.603 -12.191  -1.521  0.00  0.00    +0.054 A 
ATOM     28  C   UNL     1       4.510 -12.446  -2.898  0.00  0.00    +0.042 A 
ATOM     29  C   UNL     1       4.572 -11.252  -3.528  0.00  0.00    +0.196 A 
ATOM     30  O   UNL     1       4.692 -10.285  -2.609  0.00  0.00    -0.458 OA
ENDBRANCH  24  26
ENDBRANCH  12  18
BRANCH  10  31
ATOM     31  N   UNL     1       6.073  -2.214  -0.081  0.00  0.00    -0.343 N 
ATOM     32  H   UNL     1       6.130  -1.246  -0.075  0.00  0.00    +0.146 HD
BRANCH  31  33
ATOM     33  C   UNL     1       7.297  -3.019  -0.105  0.00  0.00    +0.102 C 
BRANCH  33  34
ATOM     34  C   UNL     1       8.515  -2.094  -0.118  0.00  0.00    +0.030 C 
BRANCH  34  35
ATOM     35  C   UNL     1       9.793  -2.935  -0.144  0.00  0.00    +0.126 C 
BRANCH  35  36
ATOM     36  C   UNL     1      10.994  -2.023  -0.156  0.00  0.00    +0.356 C 
ATOM     37  O   UNL     1      10.841  -0.814  -0.146  0.00  0.00    -0.246 OA
ATOM     38  O   UNL     1      12.118  -2.496  -0.177  0.00  0.00    -0.246 OA
ENDBRANCH  35  36
ENDBRANCH  34  35
ENDBRANCH  33  34
ENDBRANCH  31  33
ENDBRANCH  10  31
TORSDOF 7
