REMARK  Name = ZINC35292951
REMARK  18 active torsions:
REMARK  status: ('A' for Active; 'I' for Inactive)
REMARK    1  A    between atoms: C_1  and  C_2
REMARK    2  A    between atoms: C_2  and  C_3
REMARK    3  A    between atoms: C_3  and  C_4
REMARK    4  A    between atoms: C_4  and  C_5
REMARK    5  A    between atoms: C_12  and  C_14
REMARK    6  A    between atoms: C_19  and  S_21
REMARK    7  A    between atoms: S_21  and  C_22
REMARK    8  A    between atoms: C_22  and  C_23
REMARK    9  A    between atoms: N_25  and  C_26
REMARK   10  A    between atoms: C_26  and  C_28
REMARK   11  A    between atoms: C_26  and  C_29
REMARK   12  A    between atoms: C_29  and  C_30
REMARK   13  A    between atoms: C_30  and  C_31
REMARK   14  A    between atoms: C_31  and  N_32
REMARK   15  A    between atoms: N_32  and  C_33
REMARK   16  A    between atoms: N_32  and  C_35
REMARK   17  A    between atoms: C_33  and  C_34
REMARK   18  A    between atoms: C_35  and  C_36
REMARK                            x       y       z     vdW  Elec       q    Type
REMARK                         _______ _______ _______ _____ _____    ______ ____
ROOT
ATOM      1  C   UNL     1       3.001   0.294   0.220  0.00  0.00    +0.216 C 
ATOM      2  O   UNL     1       2.235   1.207   0.446  0.00  0.00    -0.276 OA
ATOM      3  N   UNL     1       2.539  -0.970   0.148  0.00  0.00    -0.296 N 
ATOM      4  C   UNL     1       3.435  -2.074  -0.226  0.00  0.00    +0.127 C 
ATOM      5  C   UNL     1       2.829  -2.811  -1.427  0.00  0.00    +0.125 C 
ATOM      6  N   UNL     1       1.421  -3.111  -1.133  0.00  0.00    -0.312 N 
ATOM      7  C   UNL     1       0.525  -2.007  -0.759  0.00  0.00    +0.128 C 
ATOM      8  C   UNL     1       1.132  -1.271   0.447  0.00  0.00    +0.090 C 
ATOM      9  C   UNL     1       0.369   0.033   0.693  0.00  0.00    +0.029 C 
ATOM     10  C   UNL     1       0.946  -4.410  -1.207  0.00  0.00    +0.127 A 
ATOM     11  C   UNL     1       1.831  -5.480  -1.353  0.00  0.00    +0.083 A 
ATOM     12  C   UNL     1       1.313  -6.760  -1.422  0.00  0.00    +0.135 A 
ATOM     13  N   UNL     1       0.000  -6.933  -1.349  0.00  0.00    -0.210 NA
ATOM     14  C   UNL     1      -0.816  -5.898  -1.211  0.00  0.00    +0.192 A 
ATOM     15  N   UNL     1      -0.358  -4.657  -1.135  0.00  0.00    -0.207 NA
ATOM     16 CL   UNL     1       2.369  -8.126  -1.604  0.00  0.00    -0.062 Cl
ENDROOT
BRANCH   1  17
ATOM     17  C   UNL     1       4.468   0.573   0.020  0.00  0.00    +0.096 C 
BRANCH  17  18
ATOM     18  C   UNL     1       4.724   2.075   0.152  0.00  0.00    +0.009 C 
BRANCH  18  20
ATOM     19  C   UNL     1       6.470   3.861   0.082  0.00  0.00    +0.004 C 
ATOM     20  C   UNL     1       6.214   2.358  -0.050  0.00  0.00    -0.003 C 
ENDBRANCH  18  20
ENDBRANCH  17  18
ENDBRANCH   1  17
BRANCH  14  21
ATOM     21  S   UNL     1      -2.553  -6.180  -1.118  0.00  0.00    -0.077 S 
BRANCH  21  22
ATOM     22  C   UNL     1      -2.713  -7.982  -1.253  0.00  0.00    +0.173 C 
BRANCH  22  23
ATOM     23  C   UNL     1      -4.169  -8.363  -1.188  0.00  0.00    +0.224 C 
ATOM     24  O   UNL     1      -5.016  -7.504  -1.062  0.00  0.00    -0.275 OA
ATOM     25  N   UNL     1      -4.531  -9.659  -1.268  0.00  0.00    -0.312 N 
ATOM     26  H   UNL     1      -3.854 -10.346  -1.369  0.00  0.00    +0.149 HD
BRANCH  25  27
ATOM     27  C   UNL     1      -5.947 -10.030  -1.204  0.00  0.00    +0.070 C 
ATOM     28  C   UNL     1      -6.566  -9.922  -2.599  0.00  0.00    +0.028 C 
BRANCH  27  29
ATOM     29  C   UNL     1      -6.075 -11.469  -0.700  0.00  0.00    +0.020 C 
BRANCH  29  30
ATOM     30  C   UNL     1      -5.569 -11.550   0.742  0.00  0.00    -0.017 C 
BRANCH  30  31
ATOM     31  C   UNL     1      -5.697 -12.989   1.247  0.00  0.00    -0.079 C 
BRANCH  31  32
ATOM     32  N   UNL     1      -5.212 -13.067   2.631  0.00  0.00    +0.379 N 
ATOM     33  H   UNL     1      -4.271 -12.706   2.679  0.00  0.00    -0.082 HD
BRANCH  32  34
ATOM     34  C   UNL     1      -6.087 -12.270   3.503  0.00  0.00    -0.082 C 
ATOM     35  C   UNL     1      -5.510 -12.246   4.920  0.00  0.00    -0.017 C 
ENDBRANCH  32  34
BRANCH  32  36
ATOM     36  C   UNL     1      -5.223 -14.467   3.076  0.00  0.00    -0.082 C 
ATOM     37  C   UNL     1      -4.200 -15.267   2.267  0.00  0.00    -0.017 C 
ENDBRANCH  32  36
ENDBRANCH  31  32
ENDBRANCH  30  31
ENDBRANCH  29  30
ENDBRANCH  27  29
ENDBRANCH  25  27
ENDBRANCH  22  23
ENDBRANCH  21  22
ENDBRANCH  14  21
TORSDOF 13
