REMARK  Name = ZINC36076976
REMARK  6 active torsions:
REMARK  status: ('A' for Active; 'I' for Inactive)
REMARK    1  A    between atoms: C_1  and  C_2
REMARK    2  A    between atoms: C_8  and  O_9
REMARK    3  A    between atoms: C_18  and  C_20
REMARK    4  A    between atoms: C_20  and  N_21
REMARK    5  A    between atoms: C_24  and  C_27
REMARK    6  A    between atoms: C_27  and  C_28
REMARK                            x       y       z     vdW  Elec       q    Type
REMARK                         _______ _______ _______ _____ _____    ______ ____
ROOT
ATOM      1  C   UNL     1      -0.018   1.503   0.010  0.00  0.00    +0.045 C 
ATOM      2  C   UNL     1       0.002  -0.004   0.002  0.00  0.00    -0.031 A 
ATOM      3  C   UNL     1      -0.096  -0.698  -1.167  0.00  0.00    +0.048 A 
ATOM      4  C   UNL     1      -0.074  -2.105  -1.149  0.00  0.00    +0.126 A 
ATOM      5  N   UNL     1       0.041  -2.779  -0.005  0.00  0.00    -0.231 NA
ATOM      6  C   UNL     1       0.139  -2.150   1.151  0.00  0.00    +0.091 A 
ATOM      7  C   UNL     1       0.129  -0.732   1.202  0.00  0.00    +0.084 A 
ATOM      8  C   UNL     1       0.240  -0.090   2.445  0.00  0.00    +0.294 A 
ATOM      9  O   UNL     1       0.359  -0.784   3.579  0.00  0.00    -0.424 OA
ATOM     10  C   UNL     1       0.382  -2.134   3.613  0.00  0.00    +0.141 A 
ATOM     11  C   UNL     1       0.266  -2.877   2.427  0.00  0.00    +0.044 A 
ATOM     12  C   UNL     1       0.289  -4.269   2.467  0.00  0.00    +0.014 A 
ATOM     13  C   UNL     1       0.410  -4.915   3.680  0.00  0.00    +0.001 A 
ATOM     14  C   UNL     1       0.506  -4.183   4.853  0.00  0.00    +0.004 A 
ATOM     15  C   UNL     1       0.509  -2.804   4.824  0.00  0.00    +0.047 A 
ATOM     16  N   UNL     1      -0.171  -2.784  -2.312  0.00  0.00    -0.272 N 
ATOM     17  C   UNL     1      -0.152  -4.105  -2.308  0.00  0.00    +0.202 C 
ATOM     18  O   UNL     1      -0.046  -4.710  -1.257  0.00  0.00    -0.278 OA
ATOM     19  H   UNL     1      -0.256  -2.302  -3.149  0.00  0.00    +0.156 HD
ENDROOT
BRANCH   8  20
ATOM     20  O   UNL     1       0.225   1.252   2.495  0.00  0.00    -0.480 OA
ATOM     21  H   UNL     1       0.307   1.613   3.388  0.00  0.00    +0.295 HD
ENDBRANCH   8  20
BRANCH  17  22
ATOM     22  C   UNL     1      -0.261  -4.864  -3.606  0.00  0.00    +0.019 C 
BRANCH  22  23
ATOM     23  N   UNL     1      -0.215  -6.307  -3.336  0.00  0.00    +0.385 N 
ATOM     24  C   UNL     1       1.097  -6.657  -2.780  0.00  0.00    -0.078 C 
ATOM     25  C   UNL     1       1.123  -8.145  -2.421  0.00  0.00    -0.015 C 
ATOM     26  C   UNL     1       0.862  -8.973  -3.682  0.00  0.00    -0.010 C 
ATOM     27  C   UNL     1      -0.475  -8.547  -4.295  0.00  0.00    -0.015 C 
ATOM     28  C   UNL     1      -0.441  -7.045  -4.584  0.00  0.00    -0.078 C 
ATOM     29  H   UNL     1      -0.935  -6.546  -2.670  0.00  0.00    -0.081 HD
BRANCH  26  30
ATOM     30  C   UNL     1       0.807 -10.458  -3.317  0.00  0.00    +0.038 C 
BRANCH  30  31
ATOM     31  C   UNL     1       0.674 -11.280  -4.573  0.00  0.00    -0.047 A 
ATOM     32  C   UNL     1      -0.580 -11.587  -5.068  0.00  0.00    +0.003 A 
ATOM     33  C   UNL     1      -0.702 -12.341  -6.220  0.00  0.00    +0.000 A 
ATOM     34  C   UNL     1       0.429 -12.787  -6.877  0.00  0.00    +0.000 A 
ATOM     35  C   UNL     1       1.683 -12.479  -6.383  0.00  0.00    +0.000 A 
ATOM     36  C   UNL     1       1.805 -11.722  -5.233  0.00  0.00    +0.003 A 
ENDBRANCH  30  31
ENDBRANCH  26  30
ENDBRANCH  22  23
ENDBRANCH  17  22
TORSDOF 5
