REMARK  Name = ZINC35520317
REMARK  11 active torsions:
REMARK  status: ('A' for Active; 'I' for Inactive)
REMARK    1  A    between atoms: C_1  and  C_2
REMARK    2  A    between atoms: C_2  and  C_3
REMARK    3  A    between atoms: C_3  and  N_4
REMARK    4  A    between atoms: C_5  and  N_27
REMARK    5  A    between atoms: C_6  and  C_14
REMARK    6  A    between atoms: C_7  and  C_13
REMARK    7  A    between atoms: C_8  and  C_11
REMARK    8  A    between atoms: N_18  and  C_22
REMARK    9  A    between atoms: C_22  and  C_23
REMARK   10  A    between atoms: C_23  and  C_24
REMARK   11  A    between atoms: N_30  and  C_33
REMARK                            x       y       z     vdW  Elec       q    Type
REMARK                         _______ _______ _______ _____ _____    ______ ____
ROOT
ATOM      1  N   UNL     1      -1.238  -2.213   0.377  0.00  0.00    -0.295 N 
ATOM      2  C   UNL     1      -1.329  -2.752  -0.866  0.00  0.00    +0.112 A 
ATOM      3  C   UNL     1      -1.729  -4.088  -1.037  0.00  0.00    +0.019 A 
ATOM      4  C   UNL     1      -2.037  -4.866   0.092  0.00  0.00    -0.017 A 
ATOM      5  C   UNL     1      -1.936  -4.290   1.355  0.00  0.00    +0.120 A 
ATOM      6  C   UNL     1      -1.522  -2.938   1.473  0.00  0.00    +0.270 A 
ATOM      7  O   UNL     1      -1.428  -2.429   2.576  0.00  0.00    -0.266 OA
ATOM      8  C   UNL     1      -2.470  -6.301  -0.062  0.00  0.00    +0.046 C 
ENDROOT
BRANCH   3   9
ATOM      9  C   UNL     1      -1.825  -4.664  -2.379  0.00  0.00    +0.032 C 
ATOM     10  C   UNL     1      -0.995  -5.678  -2.746  0.00  0.00    +0.077 C 
ATOM     11  C   UNL     1      -0.944  -6.413  -3.969  0.00  0.00    +0.258 C 
ATOM     12  O   UNL     1      -1.718  -6.173  -4.878  0.00  0.00    -0.269 OA
ATOM     13  N   UNL     1      -0.033  -7.364  -4.084  0.00  0.00    -0.255 N 
ATOM     14  C   UNL     1       0.825  -7.631  -3.074  0.00  0.00    +0.121 C 
ATOM     15  S   UNL     1       2.071  -8.803  -3.007  0.00  0.00    -0.027 S 
ATOM     16  S   UNL     1       0.335  -6.445  -1.831  0.00  0.00    -0.061 S 
BRANCH  13  17
ATOM     17  C   UNL     1       0.049  -8.139  -5.324  0.00  0.00    +0.126 C 
BRANCH  17  18
ATOM     18  C   UNL     1       1.009  -7.449  -6.295  0.00  0.00    +0.144 C 
BRANCH  18  19
ATOM     19  C   UNL     1       1.093  -8.247  -7.571  0.00  0.00    +0.358 C 
ATOM     20  O   UNL     1       0.444  -9.272  -7.692  0.00  0.00    -0.246 OA
ATOM     21  O   UNL     1       1.809  -7.867  -8.481  0.00  0.00    -0.246 OA
ENDBRANCH  18  19
ENDBRANCH  17  18
ENDBRANCH  13  17
ENDBRANCH   3   9
BRANCH   2  22
ATOM     22  N   UNL     1      -1.028  -1.991  -1.958  0.00  0.00    -0.320 N 
ATOM     23  C   UNL     1       0.325  -1.998  -2.536  0.00  0.00    +0.088 C 
ATOM     24  C   UNL     1       0.208  -2.244  -4.043  0.00  0.00    -0.060 C 
ATOM     25  N   UNL     1      -0.697  -1.249  -4.632  0.00  0.00    +0.380 N 
ATOM     26  C   UNL     1      -2.053  -1.427  -4.096  0.00  0.00    -0.060 C 
ATOM     27  C   UNL     1      -2.049  -1.145  -2.594  0.00  0.00    +0.088 C 
ATOM     28  C   UNL     1      -0.724  -1.416  -6.091  0.00  0.00    -0.096 C 
ATOM     29  H   UNL     1      -0.368  -0.322  -4.408  0.00  0.00    -0.082 HD
ENDBRANCH   2  22
BRANCH   5  30
ATOM     30  C   UNL     1      -2.244  -5.056   2.525  0.00  0.00    +0.105 C 
ATOM     31  N   UNL     1      -2.487  -5.663   3.453  0.00  0.00    -0.191 NA
ENDBRANCH   5  30
BRANCH   1  32
ATOM     32  C   UNL     1      -0.818  -0.817   0.526  0.00  0.00    +0.126 C 
BRANCH  32  34
ATOM     33  C   UNL     1       1.126   0.694   0.946  0.00  0.00    +0.005 C 
ATOM     34  C   UNL     1       0.688  -0.763   0.790  0.00  0.00    +0.018 C 
ENDBRANCH  32  34
ENDBRANCH   1  32
TORSDOF 8
