REMARK  Name = ZINC28806937
REMARK  7 active torsions:
REMARK  status: ('A' for Active; 'I' for Inactive)
REMARK    1  A    between atoms: C_1  and  C_2
REMARK    2  A    between atoms: C_2  and  C_4
REMARK    3  A    between atoms: C_2  and  S_17
REMARK    4  A    between atoms: N_6  and  C_7
REMARK    5  A    between atoms: C_10  and  N_14
REMARK    6  A    between atoms: S_17  and  C_18
REMARK    7  A    between atoms: C_21  and  C_24
REMARK                            x       y       z     vdW  Elec       q    Type
REMARK                         _______ _______ _______ _____ _____    ______ ____
ROOT
ATOM      1  C   UNL     1       3.419   3.292  -1.340  0.00  0.00    +0.029 C 
ATOM      2  C   UNL     1       3.977   2.714  -0.038  0.00  0.00    +0.137 C 
ENDROOT
BRANCH   2   3
ATOM      3  C   UNL     1       5.436   3.072   0.086  0.00  0.00    +0.230 C 
ATOM      4  O   UNL     1       6.286   2.291  -0.287  0.00  0.00    -0.274 OA
ATOM      5  N   UNL     1       5.796   4.260   0.610  0.00  0.00    -0.283 N 
ATOM      6  H   UNL     1       5.027   4.998   0.880  0.00  0.00    +0.155 HD
BRANCH   5   7
ATOM      7  C   UNL     1       7.150   4.554   0.812  0.00  0.00    +0.052 A 
ATOM      8  C   UNL     1       8.105   4.082  -0.079  0.00  0.00    +0.027 A 
ATOM      9  C   UNL     1       9.440   4.374   0.123  0.00  0.00    +0.034 A 
ATOM     10  C   UNL     1       9.826   5.136   1.210  0.00  0.00    +0.128 A 
ATOM     11  C   UNL     1       8.878   5.609   2.099  0.00  0.00    +0.054 A 
ATOM     12  C   UNL     1       7.540   5.325   1.900  0.00  0.00    +0.064 A 
ATOM     13 CL   UNL     1       6.350   5.924   3.013  0.00  0.00    -0.082 Cl
BRANCH  10  14
ATOM     14  N   UNL     1      11.257   5.448   1.423  0.00  0.00    +0.056 N 
ATOM     15  O   UNL     1      12.093   5.033   0.640  0.00  0.00    -0.126 OA
ATOM     16  O   UNL     1      11.599   6.119   2.380  0.00  0.00    -0.126 OA
ENDBRANCH  10  14
ENDBRANCH   5   7
ENDBRANCH   2   3
BRANCH   2  17
ATOM     17  S   UNL     1       3.797   0.913  -0.052  0.00  0.00    -0.074 S 
BRANCH  17  18
ATOM     18  C   UNL     1       2.040   0.781  -0.049  0.00  0.00    +0.185 A 
ATOM     19  N   UNL     1       1.314  -0.376  -0.057  0.00  0.00    -0.201 NA
ATOM     20  H   UNL     1       1.363   2.863  -0.031  0.00  0.00    +0.191 HD
ATOM     21  C   UNL     1      -0.005   0.014  -0.050  0.00  0.00    +0.182 A 
ATOM     22  N   UNL     1      -0.019   1.326  -0.041  0.00  0.00    -0.152 NA
ATOM     23  N   UNL     1       1.184   1.778  -0.040  0.00  0.00    -0.253 N 
BRANCH  21  24
ATOM     24  C   UNL     1      -1.184  -0.878  -0.054  0.00  0.00    +0.021 A 
ATOM     25  C   UNL     1      -1.015  -2.263  -0.071  0.00  0.00    +0.013 A 
ATOM     26  C   UNL     1      -2.119  -3.090  -0.069  0.00  0.00    +0.021 A 
ATOM     27  C   UNL     1      -3.394  -2.548  -0.060  0.00  0.00    +0.041 A 
ATOM     28  C   UNL     1      -3.568  -1.175  -0.048  0.00  0.00    +0.021 A 
ATOM     29  C   UNL     1      -2.471  -0.338  -0.045  0.00  0.00    +0.013 A 
ATOM     30 CL   UNL     1      -4.779  -3.595  -0.065  0.00  0.00    -0.084 Cl
ENDBRANCH  21  24
ENDBRANCH  17  18
ENDBRANCH   2  17
TORSDOF 6
