REMARK  Name = ZINC62254746
REMARK  13 active torsions:
REMARK  status: ('A' for Active; 'I' for Inactive)
REMARK    1  A    between atoms: C_1  and  C_2
REMARK    2  A    between atoms: C_2  and  C_3
REMARK    3  A    between atoms: C_3  and  O_4
REMARK    4  A    between atoms: O_4  and  C_5
REMARK    5  A    between atoms: C_6  and  O_23
REMARK    6  A    between atoms: C_8  and  C_12
REMARK    7  A    between atoms: C_12  and  N_13
REMARK    8  A    between atoms: N_13  and  C_14
REMARK    9  A    between atoms: C_14  and  C_15
REMARK   10  A    between atoms: C_15  and  C_16
REMARK   11  A    between atoms: C_15  and  C_17
REMARK   12  A    between atoms: C_17  and  N_18
REMARK   13  A    between atoms: O_23  and  C_24
REMARK                            x       y       z     vdW  Elec       q    Type
REMARK                         _______ _______ _______ _____ _____    ______ ____
ROOT
ATOM      1  C   UNL     1       3.245  -4.429  -5.650  0.00  0.00    -0.047 C 
ENDROOT
BRANCH   1   5
ATOM      2  C   UNL     1       1.342  -2.530  -2.323  0.00  0.00    +0.180 A 
ATOM      3  C   UNL     1       0.604  -2.845  -3.460  0.00  0.00    +0.163 A 
ATOM      4  C   UNL     1       1.224  -3.460  -4.536  0.00  0.00    +0.051 A 
ATOM      5  C   UNL     1       2.573  -3.760  -4.479  0.00  0.00    -0.059 A 
ATOM      6  C   UNL     1       3.306  -3.447  -3.350  0.00  0.00    +0.025 A 
ATOM      7  C   UNL     1       2.695  -2.827  -2.274  0.00  0.00    +0.086 A 
ATOM      8 CL   UNL     1       3.620  -2.429  -0.860  0.00  0.00    -0.080 Cl
BRANCH   3   9
ATOM      9  O   UNL     1      -0.722  -2.551  -3.515  0.00  0.00    -0.491 OA
ATOM     10  C   UNL     1      -1.416  -2.903  -4.714  0.00  0.00    +0.277 C 
ENDBRANCH   3   9
BRANCH   2  11
ATOM     11  O   UNL     1       0.738  -1.926  -1.265  0.00  0.00    -0.487 OA
BRANCH  11  12
ATOM     12  C   UNL     1       0.718  -0.497  -1.257  0.00  0.00    +0.229 C 
BRANCH  12  14
ATOM     13  C   UNL     1      -0.019   1.526   0.010  0.00  0.00    +0.007 C 
ATOM     14  C   UNL     1       0.002  -0.004   0.002  0.00  0.00    +0.038 C 
ENDBRANCH  12  14
ENDBRANCH  11  12
ENDBRANCH   2  11
ENDBRANCH   1   5
BRANCH   1  15
ATOM     15  N   UNL     1       3.762  -3.405  -6.568  0.00  0.00    +0.382 N 
ATOM     16  H   UNL     1       2.999  -2.834  -6.900  0.00  0.00    -0.085 HD
ATOM     17  H   UNL     1       4.430  -2.825  -6.084  0.00  0.00    -0.085 HD
BRANCH  15  18
ATOM     18  C   UNL     1       4.417  -4.058  -7.710  0.00  0.00    -0.077 C 
BRANCH  18  19
ATOM     19  C   UNL     1       4.955  -2.992  -8.666  0.00  0.00    -0.011 C 
ATOM     20  C   UNL     1       6.058  -2.192  -7.970  0.00  0.00    +0.007 C 
BRANCH  19  21
ATOM     21  C   UNL     1       5.526  -3.668  -9.915  0.00  0.00    +0.124 C 
BRANCH  21  22
ATOM     22  N   UNL     1       5.933  -2.645 -10.881  0.00  0.00    -0.338 N 
ATOM     23  C   UNL     1       5.150  -2.097 -11.861  0.00  0.00    +0.104 A 
ATOM     24  C   UNL     1       5.915  -1.203 -12.516  0.00  0.00    +0.101 A 
ATOM     25  N   UNL     1       7.131  -1.205 -11.952  0.00  0.00    -0.352 N 
ATOM     26  C   UNL     1       7.148  -2.062 -10.968  0.00  0.00    +0.173 A 
ATOM     27  H   UNL     1       7.879  -0.653 -12.228  0.00  0.00    +0.166 HD
ENDBRANCH  21  22
ENDBRANCH  19  21
ENDBRANCH  18  19
ENDBRANCH  15  18
ENDBRANCH   1  15
TORSDOF 10
