REMARK  Name = ZINC35543591
REMARK  8 active torsions:
REMARK  status: ('A' for Active; 'I' for Inactive)
REMARK    1  A    between atoms: C_4  and  C_7
REMARK    2  A    between atoms: C_7  and  C_8
REMARK    3  A    between atoms: C_8  and  N_9
REMARK    4  A    between atoms: C_10  and  C_12
REMARK    5  A    between atoms: N_25  and  C_28
REMARK    6  A    between atoms: C_28  and  C_29
REMARK    7  A    between atoms: C_29  and  O_30
REMARK    8  A    between atoms: O_30  and  C_31
REMARK                            x       y       z     vdW  Elec       q    Type
REMARK                         _______ _______ _______ _____ _____    ______ ____
ROOT
ATOM      1  C   UNL     1       7.365  -2.749   2.524  0.00  0.00    +0.098 C 
ATOM      2  C   UNL     1       8.367  -1.921   1.747  0.00  0.00    +0.051 C 
ATOM      3  C   UNL     1       8.888  -0.765   2.550  0.00  0.00    -0.026 A 
ATOM      4  C   UNL     1       9.292   0.391   1.908  0.00  0.00    +0.005 A 
ATOM      5  C   UNL     1       9.776   1.459   2.639  0.00  0.00    +0.000 A 
ATOM      6  C   UNL     1       9.860   1.376   4.017  0.00  0.00    +0.002 A 
ATOM      7  C   UNL     1       9.457   0.226   4.665  0.00  0.00    +0.023 A 
ATOM      8  C   UNL     1       8.967  -0.850   3.932  0.00  0.00    +0.033 A 
ATOM      9  N   UNL     1       8.553  -2.003   4.587  0.00  0.00    -0.329 N 
ATOM     10  C   UNL     1       7.766  -3.042   3.944  0.00  0.00    +0.069 C 
ATOM     11  C   UNL     1       8.506  -4.373   4.074  0.00  0.00    -0.055 C 
ATOM     12  N   UNL     1       8.786  -4.627   5.496  0.00  0.00    +0.384 N 
ATOM     13  C   UNL     1       9.667  -3.587   6.040  0.00  0.00    -0.059 C 
ATOM     14  C   UNL     1       8.954  -2.234   5.990  0.00  0.00    +0.087 C 
ATOM     15  H   UNL     1       7.918  -4.630   6.010  0.00  0.00    -0.082 HD
ENDROOT
BRANCH   1  17
ATOM     16  N   UNL     1       5.450  -1.678   1.382  0.00  0.00    -0.315 N 
ATOM     17  C   UNL     1       6.050  -2.013   2.541  0.00  0.00    +0.218 C 
ATOM     18  O   UNL     1       5.532  -1.722   3.599  0.00  0.00    -0.275 OA
ATOM     19  H   UNL     1       5.864  -1.911   0.536  0.00  0.00    +0.149 HD
BRANCH  16  20
ATOM     20  C   UNL     1       4.171  -0.963   1.399  0.00  0.00    +0.109 C 
BRANCH  20  21
ATOM     21  C   UNL     1       3.711  -0.707  -0.038  0.00  0.00    +0.054 C 
BRANCH  21  25
ATOM     22  C   UNL     1      -0.017   1.378   0.010  0.00  0.00    +0.000 A 
ATOM     23  C   UNL     1       1.171   2.086   0.002  0.00  0.00    +0.000 A 
ATOM     24  C   UNL     1       2.377   1.411  -0.013  0.00  0.00    +0.004 A 
ATOM     25  C   UNL     1       2.396   0.029  -0.020  0.00  0.00    -0.046 A 
ATOM     26  C   UNL     1       1.208  -0.679  -0.012  0.00  0.00    +0.004 A 
ATOM     27  C   UNL     1       0.002  -0.004   0.002  0.00  0.00    +0.000 A 
ENDBRANCH  21  25
ENDBRANCH  20  21
ENDBRANCH  16  20
ENDBRANCH   1  17
BRANCH  12  28
ATOM     28  C   UNL     1       9.437  -5.936   5.636  0.00  0.00    -0.037 C 
BRANCH  28  29
ATOM     29  C   UNL     1       9.617  -6.260   7.120  0.00  0.00    +0.210 C 
BRANCH  29  30
ATOM     30  O   UNL     1       8.336  -6.407   7.734  0.00  0.00    -0.494 OA
BRANCH  30  31
ATOM     31  C   UNL     1       8.318  -6.699   9.062  0.00  0.00    +0.120 A 
ATOM     32  C   UNL     1       9.509  -6.834   9.760  0.00  0.00    +0.045 A 
ATOM     33  C   UNL     1       9.488  -7.130  11.109  0.00  0.00    +0.004 A 
ATOM     34  C   UNL     1       8.281  -7.291  11.764  0.00  0.00    +0.000 A 
ATOM     35  C   UNL     1       7.092  -7.157  11.070  0.00  0.00    +0.004 A 
ATOM     36  C   UNL     1       7.108  -6.856   9.722  0.00  0.00    +0.045 A 
ENDBRANCH  30  31
ENDBRANCH  29  30
ENDBRANCH  28  29
ENDBRANCH  12  28
TORSDOF 8
