REMARK  Name = ZINC51845252
REMARK  7 active torsions:
REMARK  status: ('A' for Active; 'I' for Inactive)
REMARK    1  A    between atoms: C_1  and  C_2
REMARK    2  A    between atoms: C_2  and  O_3
REMARK    3  A    between atoms: O_3  and  C_4
REMARK    4  A    between atoms: C_8  and  O_10
REMARK    5  A    between atoms: O_10  and  C_11
REMARK    6  A    between atoms: C_14  and  S_18
REMARK    7  A    between atoms: S_18  and  N_21
REMARK                            x       y       z     vdW  Elec       q    Type
REMARK                         _______ _______ _______ _____ _____    ______ ____
ROOT
ATOM      1  C   UNL     1       3.485  -3.966  -3.845  0.00  0.00    +0.142 A 
ATOM      2  C   UNL     1       4.181  -3.310  -2.840  0.00  0.00    +0.049 A 
ATOM      3  C   UNL     1       5.533  -3.066  -2.985  0.00  0.00    +0.032 A 
ATOM      4  C   UNL     1       6.193  -3.474  -4.130  0.00  0.00    +0.106 A 
ATOM      5  C   UNL     1       5.502  -4.127  -5.133  0.00  0.00    +0.047 A 
ATOM      6  C   UNL     1       4.150  -4.380  -4.991  0.00  0.00    +0.062 A 
ATOM      7 BR   UNL     1       3.207  -5.282  -6.359  0.00  0.00    -0.046 Br
ENDROOT
BRANCH   4   8
ATOM      8  S   UNL     1       7.917  -3.160  -4.310  0.00  0.00    +0.056 S 
ATOM      9  O   UNL     1       8.185  -3.156  -5.706  0.00  0.00    -0.153 OA
ATOM     10  O   UNL     1       8.218  -2.052  -3.473  0.00  0.00    -0.153 OA
BRANCH   8  11
ATOM     11  N   UNL     1       8.721  -4.463  -3.678  0.00  0.00    -0.204 NA
ATOM     12  H   UNL     1       8.222  -5.206  -3.304  0.00  0.00    +0.144 HD
ATOM     13  H   UNL     1       9.691  -4.483  -3.683  0.00  0.00    +0.144 HD
ENDBRANCH   8  11
ENDBRANCH   4   8
BRANCH   1  14
ATOM     14  O   UNL     1       2.155  -4.207  -3.705  0.00  0.00    -0.455 OA
BRANCH  14  19
ATOM     15  C   UNL     1       0.715  -1.767  -1.419  0.00  0.00    +0.124 A 
ATOM     16  C   UNL     1       0.227  -2.604  -0.425  0.00  0.00    +0.046 A 
ATOM     17  C   UNL     1       0.386  -3.973  -0.534  0.00  0.00    +0.007 A 
ATOM     18  C   UNL     1       1.031  -4.511  -1.631  0.00  0.00    +0.046 A 
ATOM     19  C   UNL     1       1.520  -3.678  -2.627  0.00  0.00    +0.132 A 
ATOM     20  C   UNL     1       1.357  -2.304  -2.523  0.00  0.00    +0.091 A 
BRANCH  15  21
ATOM     21  O   UNL     1       0.558  -0.421  -1.311  0.00  0.00    -0.492 OA
BRANCH  21  23
ATOM     22  C   UNL     1      -0.194   1.590  -0.201  0.00  0.00    +0.048 C 
ATOM     23  C   UNL     1      -0.113   0.063  -0.146  0.00  0.00    +0.225 C 
ENDBRANCH  21  23
ENDBRANCH  15  21
ENDBRANCH  14  19
ENDBRANCH   1  14
TORSDOF 6
