REMARK  Name = ZINC36046197
REMARK  14 active torsions:
REMARK  status: ('A' for Active; 'I' for Inactive)
REMARK    1  A    between atoms: C_1  and  C_2
REMARK    2  A    between atoms: C_2  and  C_3
REMARK    3  A    between atoms: C_2  and  C_4
REMARK    4  A    between atoms: C_7  and  N_10
REMARK    5  A    between atoms: C_12  and  C_33
REMARK    6  A    between atoms: N_15  and  C_16
REMARK    7  A    between atoms: C_16  and  C_18
REMARK    8  A    between atoms: C_18  and  N_19
REMARK    9  A    between atoms: N_19  and  C_20
REMARK   10  A    between atoms: C_20  and  C_21
REMARK   11  A    between atoms: C_21  and  N_22
REMARK   12  A    between atoms: N_22  and  C_23
REMARK   13  A    between atoms: N_22  and  C_24
REMARK   14  A    between atoms: C_25  and  C_27
REMARK                            x       y       z     vdW  Elec       q    Type
REMARK                         _______ _______ _______ _____ _____    ______ ____
ROOT
ATOM      1  N   UNL     1      -3.560   0.025  -2.614  0.00  0.00    -0.287 N 
ATOM      2  C   UNL     1      -4.313   0.906  -1.865  0.00  0.00    +0.120 A 
ATOM      3  C   UNL     1      -5.560   0.411  -1.767  0.00  0.00    +0.066 A 
ATOM      4  N   UNL     1      -5.595  -0.794  -2.459  0.00  0.00    -0.326 N 
ATOM      5  C   UNL     1      -4.360  -1.013  -2.978  0.00  0.00    +0.205 A 
ATOM      6  N   UNL     1      -3.994  -2.062  -3.714  0.00  0.00    -0.145 NA
ATOM      7  H   UNL     1      -6.367  -1.373  -2.558  0.00  0.00    +0.169 HD
ENDROOT
BRANCH   1  11
ATOM      8  C   UNL     1       0.464   0.475  -3.600  0.00  0.00    -0.045 A 
ATOM      9  C   UNL     1      -0.170   1.437  -2.834  0.00  0.00    +0.006 A 
ATOM     10  C   UNL     1      -1.504   1.290  -2.506  0.00  0.00    +0.026 A 
ATOM     11  C   UNL     1      -2.208   0.177  -2.945  0.00  0.00    +0.049 A 
ATOM     12  C   UNL     1      -1.568  -0.786  -3.714  0.00  0.00    +0.026 A 
ATOM     13  C   UNL     1      -0.235  -0.632  -4.044  0.00  0.00    +0.006 A 
BRANCH   8  15
ATOM     14  C   UNL     1       2.109   1.934  -4.747  0.00  0.00    +0.012 C 
ATOM     15  C   UNL     1       1.919   0.638  -3.957  0.00  0.00    +0.013 C 
ATOM     16  C   UNL     1       2.755   0.695  -2.676  0.00  0.00    +0.012 C 
ENDBRANCH   8  15
ENDBRANCH   1  11
BRANCH   3  17
ATOM     17  C   UNL     1      -6.692   1.036  -1.049  0.00  0.00    -0.000 A 
ATOM     18  C   UNL     1      -6.518   2.257  -0.396  0.00  0.00    +0.010 A 
ATOM     19  C   UNL     1      -7.578   2.835   0.272  0.00  0.00    +0.001 A 
ATOM     20  C   UNL     1      -8.810   2.207   0.296  0.00  0.00    +0.000 A 
ATOM     21  C   UNL     1      -8.989   0.997  -0.350  0.00  0.00    +0.001 A 
ATOM     22  C   UNL     1      -7.939   0.411  -1.027  0.00  0.00    +0.010 A 
ENDBRANCH   3  17
BRANCH   6  23
ATOM     23  C   UNL     1      -4.876  -3.012  -4.001  0.00  0.00    +0.256 C 
ATOM     24  O   UNL     1      -6.019  -2.924  -3.592  0.00  0.00    -0.272 OA
BRANCH  23  25
ATOM     25  C   UNL     1      -4.463  -4.199  -4.832  0.00  0.00    +0.205 C 
BRANCH  25  26
ATOM     26  N   UNL     1      -5.608  -5.096  -5.006  0.00  0.00    -0.290 N 
ATOM     27  C   UNL     1      -5.718  -6.203  -4.245  0.00  0.00    +0.247 C 
ATOM     28  O   UNL     1      -6.653  -6.962  -4.409  0.00  0.00    -0.270 OA
BRANCH  27  29
ATOM     29  C   UNL     1      -4.702  -6.494  -3.212  0.00  0.00    +0.037 A 
ATOM     30  C   UNL     1      -3.926  -5.462  -2.681  0.00  0.00    +0.013 A 
ATOM     31  C   UNL     1      -2.980  -5.741  -1.716  0.00  0.00    +0.001 A 
ATOM     32  C   UNL     1      -2.798  -7.040  -1.276  0.00  0.00    +0.000 A 
ATOM     33  C   UNL     1      -3.563  -8.067  -1.798  0.00  0.00    +0.001 A 
ATOM     34  C   UNL     1      -4.518  -7.802  -2.758  0.00  0.00    +0.013 A 
ENDBRANCH  27  29
BRANCH  26  35
ATOM     35  C   UNL     1      -6.633  -4.790  -6.007  0.00  0.00    +0.090 C 
BRANCH  35  36
ATOM     36  C   UNL     1      -6.313  -5.530  -7.307  0.00  0.00    -0.060 C 
BRANCH  36  37
ATOM     37  N   UNL     1      -7.389  -5.299  -8.280  0.00  0.00    +0.377 N 
ATOM     38  C   UNL     1      -7.016  -5.890  -9.572  0.00  0.00    -0.097 C 
ATOM     39  C   UNL     1      -8.629  -5.921  -7.796  0.00  0.00    -0.097 C 
ATOM     40  H   UNL     1      -7.533  -4.307  -8.393  0.00  0.00    -0.083 HD
ENDBRANCH  36  37
ENDBRANCH  35  36
ENDBRANCH  26  35
ENDBRANCH  25  26
ENDBRANCH  23  25
ENDBRANCH   6  23
TORSDOF 10
