REMARK  Name = ZINC18581143
REMARK  15 active torsions:
REMARK  status: ('A' for Active; 'I' for Inactive)
REMARK    1  A    between atoms: C_1  and  C_2
REMARK    2  A    between atoms: C_5  and  O_32
REMARK    3  A    between atoms: C_6  and  N_8
REMARK    4  A    between atoms: C_9  and  C_11
REMARK    5  A    between atoms: C_11  and  C_13
REMARK    6  A    between atoms: C_11  and  S_14
REMARK    7  A    between atoms: S_14  and  C_15
REMARK    8  A    between atoms: C_18  and  C_21
REMARK    9  A    between atoms: N_19  and  N_20
REMARK   10  A    between atoms: C_21  and  O_22
REMARK   11  A    between atoms: O_22  and  C_23
REMARK   12  A    between atoms: C_26  and  C_29
REMARK   13  A    between atoms: C_29  and  C_30
REMARK   14  A    between atoms: C_29  and  C_31
REMARK   15  A    between atoms: O_32  and  C_33
REMARK                            x       y       z     vdW  Elec       q    Type
REMARK                         _______ _______ _______ _____ _____    ______ ____
ROOT
ATOM      1  C   UNL     1      -7.566   0.081   0.400  0.00  0.00    +0.209 A 
ATOM      2  N   UNL     1      -7.517   1.329  -0.002  0.00  0.00    -0.121 NA
ATOM      3  N   UNL     1      -8.687   1.857   0.071  0.00  0.00    -0.128 NA
ATOM      4  C   UNL     1      -9.542   0.988   0.529  0.00  0.00    +0.189 A 
ATOM      5  N   UNL     1      -8.859  -0.175   0.755  0.00  0.00    -0.225 N 
ENDROOT
BRANCH   5   6
ATOM      6  N   UNL     1      -9.366  -1.349   1.236  0.00  0.00    -0.295 N 
ATOM      7  H   UNL     1      -9.315  -1.379   2.243  0.00  0.00    +0.163 HD
ATOM      8  H   UNL     1     -10.313  -1.492   0.918  0.00  0.00    +0.163 HD
ENDBRANCH   5   6
BRANCH   1   9
ATOM      9  S   UNL     1      -6.216  -1.049   0.476  0.00  0.00    -0.072 S 
BRANCH   9  10
ATOM     10  C   UNL     1      -4.885   0.010  -0.143  0.00  0.00    +0.137 C 
ATOM     11  C   UNL     1      -5.163   0.378  -1.602  0.00  0.00    +0.029 C 
BRANCH  10  13
ATOM     12  N   UNL     1      -2.418  -0.038   0.037  0.00  0.00    -0.282 N 
ATOM     13  C   UNL     1      -3.573  -0.727  -0.052  0.00  0.00    +0.230 C 
ATOM     14  O   UNL     1      -3.557  -1.940  -0.059  0.00  0.00    -0.274 OA
ATOM     15  H   UNL     1      -2.435   0.928   0.123  0.00  0.00    +0.155 HD
BRANCH  12  21
ATOM     16  C   UNL     1       0.203  -3.978  -1.300  0.00  0.00    +0.044 C 
ATOM     17  C   UNL     1       0.106  -2.628  -0.636  0.00  0.00    -0.048 A 
ATOM     18  C   UNL     1       1.227  -2.064  -0.055  0.00  0.00    +0.007 A 
ATOM     19  C   UNL     1       1.145  -0.826   0.555  0.00  0.00    +0.048 A 
ATOM     20  C   UNL     1      -0.063  -0.147   0.585  0.00  0.00    +0.141 A 
ATOM     21  C   UNL     1      -1.193  -0.718   0.004  0.00  0.00    +0.076 A 
ATOM     22  C   UNL     1      -1.102  -1.958  -0.611  0.00  0.00    +0.030 A 
BRANCH  20  23
ATOM     23  O   UNL     1      -0.145   1.070   1.185  0.00  0.00    -0.493 OA
ATOM     24  C   UNL     1       1.052   1.590   1.765  0.00  0.00    +0.277 C 
ENDBRANCH  20  23
ENDBRANCH  12  21
ENDBRANCH  10  13
ENDBRANCH   9  10
ENDBRANCH   1   9
BRANCH   4  25
ATOM     25  C   UNL     1     -11.012   1.221   0.765  0.00  0.00    +0.306 C 
BRANCH  25  26
ATOM     26  O   UNL     1     -11.211   1.695   2.099  0.00  0.00    -0.484 OA
BRANCH  26  27
ATOM     27  C   UNL     1     -12.490   1.956   2.476  0.00  0.00    +0.121 A 
ATOM     28  C   UNL     1     -13.532   1.765   1.580  0.00  0.00    +0.046 A 
ATOM     29  C   UNL     1     -14.832   2.026   1.969  0.00  0.00    +0.007 A 
ATOM     30  C   UNL     1     -15.094   2.488   3.245  0.00  0.00    -0.045 A 
ATOM     31  C   UNL     1     -14.057   2.684   4.138  0.00  0.00    +0.007 A 
ATOM     32  C   UNL     1     -12.756   2.420   3.757  0.00  0.00    +0.046 A 
BRANCH  30  33
ATOM     33  C   UNL     1     -16.512   2.777   3.664  0.00  0.00    +0.013 C 
ATOM     34  C   UNL     1     -17.104   3.854   2.752  0.00  0.00    +0.012 C 
ATOM     35  C   UNL     1     -17.348   1.500   3.553  0.00  0.00    +0.012 C 
ENDBRANCH  30  33
ENDBRANCH  26  27
ENDBRANCH  25  26
ENDBRANCH   4  25
TORSDOF 10
