REMARK  Name = ZINC61630450
REMARK  4 active torsions:
REMARK  status: ('A' for Active; 'I' for Inactive)
REMARK    1  A    between atoms: C_1  and  N_2
REMARK    2  A    between atoms: N_2  and  C_3
REMARK    3  A    between atoms: N_2  and  C_12
REMARK    4  A    between atoms: C_3  and  C_4
REMARK                            x       y       z     vdW  Elec       q    Type
REMARK                         _______ _______ _______ _____ _____    ______ ____
ROOT
ATOM      1  C   UNL     1      -0.018   1.465   0.010  0.00  0.00    -0.095 C 
ATOM      2  N   UNL     1       0.002  -0.004   0.002  0.00  0.00    +0.384 N 
ATOM      3  H   UNL     1      -0.945  -0.353   0.009  0.00  0.00    -0.081 HD
ENDROOT
BRANCH   2   4
ATOM      4  C   UNL     1       0.713  -0.491   1.192  0.00  0.00    -0.064 C 
ATOM      5  C   UNL     1       0.725  -2.022   1.191  0.00  0.00    +0.013 C 
ATOM      6  C   UNL     1       1.397  -2.521   2.473  0.00  0.00    +0.158 C 
ATOM      7  O   UNL     1       0.701  -2.001   3.607  0.00  0.00    -0.380 OA
ATOM      8  C   UNL     1       0.698  -0.574   3.687  0.00  0.00    +0.158 C 
ATOM      9  C   UNL     1      -0.003   0.002   2.454  0.00  0.00    +0.013 C 
ENDBRANCH   2   4
BRANCH   2  10
ATOM     10  C   UNL     1       0.690  -0.478  -1.207  0.00  0.00    -0.021 C 
BRANCH  10  11
ATOM     11  C   UNL     1      -0.106  -0.083  -2.424  0.00  0.00    +0.045 A 
ATOM     12  C   UNL     1      -1.077  -0.938  -2.913  0.00  0.00    +0.060 A 
ATOM     13  C   UNL     1      -1.804  -0.565  -4.034  0.00  0.00    +0.024 A 
ATOM     14  C   UNL     1      -1.526   0.658  -4.624  0.00  0.00    +0.041 A 
ATOM     15  C   UNL     1      -0.539   1.460  -4.080  0.00  0.00    +0.130 A 
ATOM     16  N   UNL     1       0.129   1.075  -3.009  0.00  0.00    -0.241 NA
ATOM     17 CL   UNL     1      -0.180   2.994  -4.810  0.00  0.00    -0.062 Cl
ATOM     18 CL   UNL     1      -1.383  -2.458  -2.132  0.00  0.00    -0.082 Cl
ENDBRANCH  10  11
ENDBRANCH   2  10
TORSDOF 3
