REMARK  Name = ZINC63831438
REMARK  10 active torsions:
REMARK  status: ('A' for Active; 'I' for Inactive)
REMARK    1  A    between atoms: C_1  and  N_2
REMARK    2  A    between atoms: N_2  and  C_3
REMARK    3  A    between atoms: N_2  and  C_4
REMARK    4  A    between atoms: C_7  and  C_10
REMARK    5  A    between atoms: C_10  and  C_12
REMARK    6  A    between atoms: C_10  and  C_29
REMARK    7  A    between atoms: C_12  and  N_13
REMARK    8  A    between atoms: C_14  and  C_16
REMARK    9  A    between atoms: C_16  and  C_17
REMARK   10  A    between atoms: C_20  and  N_23
REMARK                            x       y       z     vdW  Elec       q    Type
REMARK                         _______ _______ _______ _____ _____    ______ ____
ROOT
ATOM      1  C   UNL     1      -4.851  -2.932   0.013  0.00  0.00    +0.064 C 
ENDROOT
BRANCH   1   2
ATOM      2  C   UNL     1      -5.630  -2.565   1.250  0.00  0.00    -0.033 C 
ATOM      3  C   UNL     1      -6.030  -3.399   2.236  0.00  0.00    -0.000 A 
ATOM      4  C   UNL     1      -5.867  -4.842   2.445  0.00  0.00    +0.010 A 
ATOM      5  C   UNL     1      -6.391  -5.408   3.556  0.00  0.00    +0.001 A 
ATOM      6  C   UNL     1      -7.086  -4.652   4.511  0.00  0.00    +0.002 A 
ATOM      7  C   UNL     1      -7.277  -3.321   4.388  0.00  0.00    +0.026 A 
ATOM      8  C   UNL     1      -6.768  -2.623   3.259  0.00  0.00    +0.043 A 
ATOM      9  N   UNL     1      -6.821  -1.358   2.918  0.00  0.00    -0.380 N 
ATOM     10  C   UNL     1      -6.118  -1.188   1.641  0.00  0.00    +0.145 C 
ATOM     11  H   UNL     1      -7.250  -0.652   3.426  0.00  0.00    +0.160 HD
ENDBRANCH   1   2
BRANCH   1  15
ATOM     12  C   UNL     1      -1.157  -0.782  -0.035  0.00  0.00    +0.029 A 
ATOM     13  C   UNL     1      -1.154  -2.171  -0.028  0.00  0.00    +0.023 A 
ATOM     14  C   UNL     1      -2.350  -2.863  -0.012  0.00  0.00    +0.006 A 
ATOM     15  C   UNL     1      -3.549  -2.174  -0.003  0.00  0.00    -0.039 A 
ATOM     16  C   UNL     1      -3.555  -0.791  -0.011  0.00  0.00    +0.006 A 
ATOM     17  C   UNL     1      -2.364  -0.093  -0.021  0.00  0.00    +0.023 A 
BRANCH  12  19
ATOM     18  C   UNL     1       0.044   1.385  -0.053  0.00  0.00    +0.129 C 
ATOM     19  N   UNL     1       0.050  -0.080  -0.051  0.00  0.00    -0.336 N 
ATOM     20  C   UNL     1       1.321  -0.807  -0.066  0.00  0.00    +0.129 C 
ENDBRANCH  12  19
ENDBRANCH   1  15
BRANCH   1  21
ATOM     21  C   UNL     1      -5.667  -2.571  -1.230  0.00  0.00    +0.116 C 
BRANCH  21  22
ATOM     22  N   UNL     1      -6.877  -3.396  -1.276  0.00  0.00    -0.314 N 
ATOM     23  C   UNL     1      -7.753  -3.251  -2.290  0.00  0.00    +0.217 C 
ATOM     24  O   UNL     1      -7.540  -2.438  -3.164  0.00  0.00    -0.275 OA
ATOM     25  H   UNL     1      -7.048  -4.045  -0.576  0.00  0.00    +0.149 HD
BRANCH  23  26
ATOM     26  C   UNL     1      -8.998  -4.098  -2.337  0.00  0.00    +0.130 C 
BRANCH  26  27
ATOM     27  C   UNL     1      -9.802  -3.743  -3.561  0.00  0.00    -0.039 A 
ATOM     28  C   UNL     1     -10.756  -2.745  -3.494  0.00  0.00    +0.006 A 
ATOM     29  C   UNL     1     -11.494  -2.417  -4.615  0.00  0.00    +0.024 A 
ATOM     30  C   UNL     1     -11.277  -3.091  -5.809  0.00  0.00    +0.036 A 
ATOM     31  C   UNL     1     -10.318  -4.093  -5.873  0.00  0.00    +0.024 A 
ATOM     32  C   UNL     1      -9.580  -4.413  -4.750  0.00  0.00    +0.006 A 
BRANCH  30  33
ATOM     33  N   UNL     1     -12.024  -2.761  -6.946  0.00  0.00    -0.271 N 
ATOM     34  C   UNL     1     -11.796  -3.330  -8.280  0.00  0.00    +0.114 C 
ATOM     35  C   UNL     1     -13.082  -3.029  -9.081  0.00  0.00    +0.029 C 
ATOM     36  C   UNL     1     -13.624  -1.780  -8.349  0.00  0.00    +0.098 C 
ATOM     37  C   UNL     1     -13.045  -1.887  -6.955  0.00  0.00    +0.220 C 
ATOM     38  O   UNL     1     -13.442  -1.273  -5.988  0.00  0.00    -0.275 OA
ENDBRANCH  30  33
ENDBRANCH  26  27
ENDBRANCH  23  26
ENDBRANCH  21  22
ENDBRANCH   1  21
TORSDOF 8
