REMARK  Name = ZINC32548866
REMARK  5 active torsions:
REMARK  status: ('A' for Active; 'I' for Inactive)
REMARK    1  A    between atoms: C_1  and  C_2
REMARK    2  A    between atoms: C_5  and  S_7
REMARK    3  A    between atoms: S_7  and  O_10
REMARK    4  A    between atoms: O_10  and  C_11
REMARK    5  A    between atoms: C_15  and  C_17
REMARK                            x       y       z     vdW  Elec       q    Type
REMARK                         _______ _______ _______ _____ _____    ______ ____
ROOT
ATOM      1  S   UNL     1       1.134  -4.300  -0.029  0.00  0.00    +0.157 S 
ATOM      2  O   UNL     1       2.445  -4.240   0.516  0.00  0.00    -0.131 OA
ATOM      3  O   UNL     1       0.117  -5.126   0.522  0.00  0.00    -0.131 OA
ENDROOT
BRANCH   1   8
ATOM      4  C   UNL     1      -0.018   1.503   0.010  0.00  0.00    +0.051 C 
ATOM      5  C   UNL     1       0.002  -0.004   0.002  0.00  0.00    -0.011 A 
ATOM      6  C   UNL     1      -1.039  -0.872   0.002  0.00  0.00    +0.013 A 
ATOM      7  C   UNL     1      -0.780  -2.230  -0.007  0.00  0.00    +0.038 A 
ATOM      8  C   UNL     1       0.507  -2.653  -0.016  0.00  0.00    +0.166 A 
ATOM      9  S   UNL     1       1.404  -1.109  -0.018  0.00  0.00    -0.072 S 
ENDBRANCH   1   8
BRANCH   1  10
ATOM     10  O   UNL     1       1.287  -4.712  -1.486  0.00  0.00    -0.342 OA
BRANCH  10  11
ATOM     11  C   UNL     1       2.354  -4.148  -2.111  0.00  0.00    +0.157 A 
ATOM     12  C   UNL     1       2.215  -2.929  -2.759  0.00  0.00    +0.050 A 
ATOM     13  C   UNL     1       3.300  -2.358  -3.394  0.00  0.00    +0.024 A 
ATOM     14  C   UNL     1       4.526  -3.000  -3.383  0.00  0.00    +0.044 A 
ATOM     15  C   UNL     1       4.667  -4.215  -2.737  0.00  0.00    -0.029 A 
ATOM     16  C   UNL     1       3.585  -4.787  -2.096  0.00  0.00    +0.053 A 
ATOM     17  C   UNL     1       6.003  -4.912  -2.727  0.00  0.00    +0.045 C 
ATOM     18 CL   UNL     1       5.889  -2.279  -4.181  0.00  0.00    -0.083 Cl
ENDBRANCH  10  11
ENDBRANCH   1  10
TORSDOF 3
