REMARK  Name = ZINC16024921
REMARK  8 active torsions:
REMARK  status: ('A' for Active; 'I' for Inactive)
REMARK    1  A    between atoms: C_1  and  C_2
REMARK    2  A    between atoms: C_13  and  C_16
REMARK    3  A    between atoms: C_16  and  C_17
REMARK    4  A    between atoms: C_20  and  O_23
REMARK    5  A    between atoms: N_26  and  C_29
REMARK    6  A    between atoms: C_29  and  C_30
REMARK    7  A    between atoms: C_29  and  C_31
REMARK    8  A    between atoms: C_29  and  C_32
REMARK                            x       y       z     vdW  Elec       q    Type
REMARK                         _______ _______ _______ _____ _____    ______ ____
ROOT
ATOM      1  C   UNL     1      -0.064   1.423  -0.060  0.00  0.00    +0.044 C 
ATOM      2  C   UNL     1       0.008  -0.081   0.012  0.00  0.00    -0.050 A 
ATOM      3  C   UNL     1      -0.068  -0.835  -1.145  0.00  0.00    +0.005 A 
ATOM      4  C   UNL     1      -0.003  -2.211  -1.084  0.00  0.00    +0.024 A 
ATOM      5  C   UNL     1       0.141  -2.853   0.144  0.00  0.00    +0.039 A 
ATOM      6  C   UNL     1       0.218  -2.084   1.301  0.00  0.00    +0.004 A 
ATOM      7  C   UNL     1       0.156  -0.710   1.235  0.00  0.00    +0.011 A 
ATOM      8  C   UNL     1       0.372  -3.060   2.433  0.00  0.00    +0.136 C 
ATOM      9  C   UNL     1      -0.764  -2.926   3.454  0.00  0.00    +0.122 C 
ATOM     10  C   UNL     1      -0.164  -2.063   4.599  0.00  0.00    +0.107 C 
ATOM     11  C   UNL     1       1.279  -1.755   4.146  0.00  0.00    +0.072 C 
ATOM     12  N   UNL     1       1.620  -2.826   3.183  0.00  0.00    -0.295 NA
ATOM     13  C   UNL     1      -0.994  -0.800   4.554  0.00  0.00    +0.228 C 
ATOM     14  O   UNL     1      -0.860   0.152   5.292  0.00  0.00    -0.275 OA
ATOM     15  N   UNL     1      -1.900  -0.898   3.575  0.00  0.00    -0.236 N 
ATOM     16  C   UNL     1      -1.866  -2.061   2.886  0.00  0.00    +0.229 C 
ATOM     17  O   UNL     1      -2.591  -2.366   1.963  0.00  0.00    -0.275 OA
ATOM     18  C   UNL     1       0.369  -4.417   1.783  0.00  0.00    +0.243 C 
ATOM     19  O   UNL     1       0.471  -5.488   2.342  0.00  0.00    -0.273 OA
ATOM     20  N   UNL     1       0.230  -4.210   0.459  0.00  0.00    -0.283 N 
ATOM     21  H   UNL     1       1.910  -3.660   3.672  0.00  0.00    +0.124 HD
ATOM     22  H   UNL     1       0.196  -4.922  -0.199  0.00  0.00    +0.155 HD
ENDROOT
BRANCH  15  23
ATOM     23  C   UNL     1      -2.860   0.168   3.274  0.00  0.00    +0.036 C 
ATOM     24  C   UNL     1      -2.104   1.436   2.873  0.00  0.00    +0.031 C 
ATOM     25  C   UNL     1      -3.766  -0.272   2.123  0.00  0.00    +0.031 C 
ATOM     26  C   UNL     1      -3.711   0.452   4.513  0.00  0.00    +0.031 C 
ENDBRANCH  15  23
BRANCH  11  27
ATOM     27  C   UNL     1       2.229  -1.770   5.346  0.00  0.00    +0.054 C 
BRANCH  27  28
ATOM     28  C   UNL     1       3.605  -1.347   4.902  0.00  0.00    -0.046 A 
ATOM     29  C   UNL     1       4.510  -2.295   4.461  0.00  0.00    +0.007 A 
ATOM     30  C   UNL     1       5.773  -1.910   4.054  0.00  0.00    +0.045 A 
ATOM     31  C   UNL     1       6.133  -0.571   4.088  0.00  0.00    +0.117 A 
ATOM     32  C   UNL     1       5.223   0.379   4.531  0.00  0.00    +0.045 A 
ATOM     33  C   UNL     1       3.960  -0.011   4.932  0.00  0.00    +0.007 A 
BRANCH  31  34
ATOM     34  O   UNL     1       7.375  -0.189   3.689  0.00  0.00    -0.507 OA
ATOM     35  H   UNL     1       7.438   0.022   2.748  0.00  0.00    +0.292 HD
ENDBRANCH  31  34
ENDBRANCH  27  28
ENDBRANCH  11  27
TORSDOF 4
