REMARK  Name = ZINC14608545
REMARK  6 active torsions:
REMARK  status: ('A' for Active; 'I' for Inactive)
REMARK    1  A    between atoms: C_1  and  C_2
REMARK    2  A    between atoms: C_4  and  C_15
REMARK    3  A    between atoms: C_5  and  C_14
REMARK    4  A    between atoms: N_6  and  C_7
REMARK    5  A    between atoms: C_16  and  C_17
REMARK    6  A    between atoms: C_16  and  C_19
REMARK                            x       y       z     vdW  Elec       q    Type
REMARK                         _______ _______ _______ _____ _____    ______ ____
ROOT
ATOM      1  C   UNL     1      -1.968  -2.595   2.615  0.00  0.00    +0.064 C 
ATOM      2  C   UNL     1      -1.028  -1.595   1.993  0.00  0.00    +0.022 A 
ATOM      3  C   UNL     1      -1.387  -0.409   1.472  0.00  0.00    +0.031 A 
ATOM      4  C   UNL     1      -0.155   0.224   0.984  0.00  0.00    -0.003 A 
ATOM      5  C   UNL     1       0.866  -0.668   1.258  0.00  0.00    +0.028 A 
ATOM      6  N   UNL     1       0.324  -1.750   1.868  0.00  0.00    -0.316 N 
ATOM      7  C   UNL     1       2.325  -0.469   0.938  0.00  0.00    +0.064 C 
ENDROOT
BRANCH   6   8
ATOM      8  C   UNL     1       1.046  -2.870   2.303  0.00  0.00    +0.060 A 
ATOM      9  C   UNL     1       1.246  -3.944   1.447  0.00  0.00    +0.027 A 
ATOM     10  C   UNL     1       1.958  -5.046   1.878  0.00  0.00    +0.002 A 
ATOM     11  C   UNL     1       2.472  -5.081   3.162  0.00  0.00    +0.001 A 
ATOM     12  C   UNL     1       2.275  -4.013   4.017  0.00  0.00    +0.017 A 
ATOM     13  C   UNL     1       1.567  -2.905   3.590  0.00  0.00    +0.042 A 
ATOM     14 BR   UNL     1       1.304  -1.442   4.759  0.00  0.00    -0.048 Br
ENDBRANCH   6   8
BRANCH   4  15
ATOM     15  C   UNL     1      -0.033   1.530   0.335  0.00  0.00    +0.032 C 
ATOM     16  C   UNL     1      -0.911   1.886  -0.665  0.00  0.00    +0.095 C 
BRANCH  16  17
ATOM     17  C   UNL     1      -1.845   0.889  -1.215  0.00  0.00    +0.150 A 
ATOM     18  N   UNL     1      -2.846   1.156  -2.112  0.00  0.00    -0.337 N 
ATOM     19  H   UNL     1      -3.069   2.048  -2.505  0.00  0.00    +0.167 HD
ATOM     20  C   UNL     1      -3.490  -0.040  -2.374  0.00  0.00    +0.066 A 
ATOM     21  C   UNL     1      -4.558  -0.401  -3.182  0.00  0.00    +0.028 A 
ATOM     22  C   UNL     1      -4.970  -1.716  -3.223  0.00  0.00    +0.002 A 
ATOM     23  C   UNL     1      -4.324  -2.680  -2.462  0.00  0.00    +0.002 A 
ATOM     24  C   UNL     1      -3.271  -2.344  -1.660  0.00  0.00    +0.030 A 
ATOM     25  C   UNL     1      -2.835  -1.016  -1.602  0.00  0.00    +0.089 A 
ATOM     26  N   UNL     1      -1.841  -0.392  -0.924  0.00  0.00    -0.227 NA
ENDBRANCH  16  17
BRANCH  16  27
ATOM     27  C   UNL     1      -0.915   3.226  -1.170  0.00  0.00    +0.103 C 
ATOM     28  N   UNL     1      -0.918   4.289  -1.571  0.00  0.00    -0.191 NA
ENDBRANCH  16  27
ENDBRANCH   4  15
TORSDOF 4
