REMARK  Name = ZINC12104866
REMARK  12 active torsions:
REMARK  status: ('A' for Active; 'I' for Inactive)
REMARK    1  A    between atoms: C_1  and  C_2
REMARK    2  A    between atoms: C_4  and  C_18
REMARK    3  A    between atoms: C_5  and  C_17
REMARK    4  A    between atoms: N_6  and  C_7
REMARK    5  A    between atoms: C_10  and  S_13
REMARK    6  A    between atoms: S_13  and  N_16
REMARK    7  A    between atoms: C_18  and  C_20
REMARK    8  A    between atoms: C_20  and  S_21
REMARK    9  A    between atoms: S_21  and  C_22
REMARK   10  A    between atoms: C_25  and  C_28
REMARK   11  A    between atoms: C_28  and  C_29
REMARK   12  A    between atoms: C_29  and  C_30
REMARK                            x       y       z     vdW  Elec       q    Type
REMARK                         _______ _______ _______ _____ _____    ______ ____
ROOT
ATOM      1  C   UNL     1      -2.074   1.293   6.387  0.00  0.00    +0.064 C 
ATOM      2  C   UNL     1      -2.975   2.452   6.049  0.00  0.00    +0.022 A 
ATOM      3  C   UNL     1      -3.806   3.068   6.907  0.00  0.00    +0.034 A 
ATOM      4  C   UNL     1      -4.478   4.129   6.144  0.00  0.00    +0.039 A 
ATOM      5  C   UNL     1      -3.970   4.053   4.861  0.00  0.00    +0.031 A 
ATOM      6  N   UNL     1      -3.079   3.044   4.821  0.00  0.00    -0.317 N 
ATOM      7  C   UNL     1      -4.350   4.943   3.705  0.00  0.00    +0.064 C 
ENDROOT
BRANCH   6   8
ATOM      8  C   UNL     1      -2.355   2.659   3.684  0.00  0.00    +0.047 A 
ATOM      9  C   UNL     1      -2.561   1.408   3.119  0.00  0.00    +0.028 A 
ATOM     10  C   UNL     1      -1.846   1.032   1.999  0.00  0.00    +0.030 A 
ATOM     11  C   UNL     1      -0.927   1.900   1.439  0.00  0.00    +0.105 A 
ATOM     12  C   UNL     1      -0.716   3.145   2.003  0.00  0.00    +0.030 A 
ATOM     13  C   UNL     1      -1.431   3.529   3.120  0.00  0.00    +0.028 A 
BRANCH  11  14
ATOM     14  S   UNL     1      -0.017   1.417   0.010  0.00  0.00    +0.056 S 
ATOM     15  O   UNL     1       0.002  -0.004   0.002  0.00  0.00    -0.153 OA
ATOM     16  O   UNL     1       1.172   2.195   0.003  0.00  0.00    -0.153 OA
BRANCH  14  17
ATOM     17  N   UNL     1      -0.897   1.885  -1.312  0.00  0.00    -0.204 NA
ATOM     18  H   UNL     1      -1.747   2.338  -1.194  0.00  0.00    +0.144 HD
ATOM     19  H   UNL     1      -0.563   1.708  -2.205  0.00  0.00    +0.144 HD
ENDBRANCH  14  17
ENDBRANCH  11  14
ENDBRANCH   6   8
BRANCH   4  20
ATOM     20  C   UNL     1      -5.478   5.075   6.642  0.00  0.00    +0.175 C 
ATOM     21  O   UNL     1      -5.953   5.905   5.896  0.00  0.00    -0.291 OA
BRANCH  20  22
ATOM     22  C   UNL     1      -5.917   5.019   8.083  0.00  0.00    +0.157 C 
BRANCH  22  23
ATOM     23  S   UNL     1      -7.151   6.307   8.389  0.00  0.00    -0.078 S 
BRANCH  23  24
ATOM     24  C   UNL     1      -7.477   6.019  10.096  0.00  0.00    +0.189 A 
ATOM     25  N   UNL     1      -8.348   6.715  10.885  0.00  0.00    -0.320 N 
ATOM     26  H   UNL     1      -8.908   7.461  10.622  0.00  0.00    +0.169 HD
ATOM     27  C   UNL     1      -8.269   6.137  12.123  0.00  0.00    +0.132 A 
ATOM     28  N   UNL     1      -7.396   5.173  12.046  0.00  0.00    -0.134 NA
ATOM     29  N   UNL     1      -6.925   5.098  10.852  0.00  0.00    -0.123 NA
BRANCH  27  30
ATOM     30  C   UNL     1      -9.043   6.545  13.349  0.00  0.00    +0.076 C 
BRANCH  30  31
ATOM     31  C   UNL     1      -9.790   5.332  13.907  0.00  0.00    +0.011 C 
BRANCH  31  32
ATOM     32  C   UNL     1     -10.577   5.746  15.153  0.00  0.00    -0.011 C 
ATOM     33  C   UNL     1      -9.605   6.102  16.297  0.00  0.00    +0.003 C 
ATOM     34  C   UNL     1     -10.309   5.572  17.571  0.00  0.00    +0.000 C 
ATOM     35  C   UNL     1     -10.950   4.250  17.083  0.00  0.00    +0.000 C 
ATOM     36  C   UNL     1     -11.431   4.568  15.652  0.00  0.00    +0.003 C 
ENDBRANCH  31  32
ENDBRANCH  30  31
ENDBRANCH  27  30
ENDBRANCH  23  24
ENDBRANCH  22  23
ENDBRANCH  20  22
ENDBRANCH   4  20
TORSDOF 10
