REMARK  Name = ZINC09102979
REMARK  7 active torsions:
REMARK  status: ('A' for Active; 'I' for Inactive)
REMARK    1  A    between atoms: C_3  and  C_6
REMARK    2  A    between atoms: C_6  and  C_8
REMARK    3  A    between atoms: C_6  and  S_22
REMARK    4  A    between atoms: C_8  and  N_9
REMARK    5  A    between atoms: C_10  and  C_12
REMARK    6  A    between atoms: C_13  and  C_14
REMARK    7  A    between atoms: S_22  and  C_25
REMARK                            x       y       z     vdW  Elec       q    Type
REMARK                         _______ _______ _______ _____ _____    ______ ____
ROOT
ATOM      1  C   UNL     1       0.918   5.160   0.020  0.00  0.00    +0.189 C 
ENDROOT
BRANCH   1   4
ATOM      2  C   UNL     1      -1.077   1.915   0.017  0.00  0.00    +0.008 A 
ATOM      3  C   UNL     1      -0.855   3.279   0.027  0.00  0.00    +0.013 A 
ATOM      4  C   UNL     1       0.421   3.738   0.017  0.00  0.00    +0.016 A 
ATOM      5  S   UNL     1       1.359   2.219   0.001  0.00  0.00    -0.100 S 
ATOM      6  C   UNL     1      -0.013   1.076   0.008  0.00  0.00    +0.045 A 
ENDBRANCH   1   4
BRANCH   1   7
ATOM      7  S   UNL     1       1.911   5.456  -1.469  0.00  0.00    +0.006 S 
ATOM      8  O   UNL     1       2.238   6.835  -1.574  0.00  0.00    -0.169 OA
ATOM      9  O   UNL     1       2.918   4.461  -1.591  0.00  0.00    -0.169 OA
BRANCH   7  10
ATOM     10  C   UNL     1       0.813   5.151  -2.814  0.00  0.00    +0.093 A 
ATOM     11  C   UNL     1       0.054   6.184  -3.331  0.00  0.00    +0.031 A 
ATOM     12  C   UNL     1      -0.809   5.950  -4.386  0.00  0.00    +0.051 A 
ATOM     13  C   UNL     1      -0.913   4.678  -4.927  0.00  0.00    +0.166 A 
ATOM     14  C   UNL     1      -0.148   3.639  -4.406  0.00  0.00    +0.168 A 
ATOM     15  C   UNL     1       0.718   3.882  -3.352  0.00  0.00    +0.076 A 
ATOM     16  O   UNL     1      -0.428   2.499  -5.102  0.00  0.00    -0.453 OA
ATOM     17  C   UNL     1      -1.066   2.937  -6.316  0.00  0.00    +0.466 C 
ATOM     18  O   UNL     1      -1.673   4.190  -5.951  0.00  0.00    -0.453 OA
ENDBRANCH   7  10
ENDBRANCH   1   7
BRANCH   1  19
ATOM     19  C   UNL     1       1.779   5.398   1.262  0.00  0.00    +0.136 C 
BRANCH  19  20
ATOM     20  N   UNL     1       2.262   6.781   1.264  0.00  0.00    -0.310 N 
ATOM     21  C   UNL     1       3.045   7.220   2.270  0.00  0.00    +0.237 C 
ATOM     22  O   UNL     1       3.350   6.467   3.176  0.00  0.00    -0.271 OA
ATOM     23  H   UNL     1       2.019   7.381   0.542  0.00  0.00    +0.149 HD
BRANCH  21  24
ATOM     24  C   UNL     1       3.527   8.601   2.272  0.00  0.00    +0.068 C 
ATOM     25  C   UNL     1       4.311   9.040   3.278  0.00  0.00    +0.013 C 
BRANCH  25  26
ATOM     26  C   UNL     1       4.796  10.430   3.280  0.00  0.00    -0.023 A 
ATOM     27  C   UNL     1       5.609  10.888   4.323  0.00  0.00    +0.009 A 
ATOM     28  C   UNL     1       6.060  12.191   4.319  0.00  0.00    +0.022 A 
ATOM     29  C   UNL     1       5.711  13.046   3.286  0.00  0.00    +0.059 A 
ATOM     30  C   UNL     1       4.906  12.598   2.250  0.00  0.00    +0.060 A 
ATOM     31  C   UNL     1       4.452  11.296   2.238  0.00  0.00    +0.029 A 
ATOM     32 CL   UNL     1       4.474  13.678   0.960  0.00  0.00    -0.082 Cl
ATOM     33 CL   UNL     1       6.283  14.684   3.290  0.00  0.00    -0.082 Cl
ENDBRANCH  25  26
ENDBRANCH  21  24
ENDBRANCH  19  20
ENDBRANCH   1  19
TORSDOF 7
