REMARK  Name = ZINC36610146
REMARK  15 active torsions:
REMARK  status: ('A' for Active; 'I' for Inactive)
REMARK    1  A    between atoms: C_1  and  C_2
REMARK    2  A    between atoms: C_2  and  C_3
REMARK    3  A    between atoms: C_2  and  C_4
REMARK    4  A    between atoms: C_2  and  C_5
REMARK    5  A    between atoms: C_5  and  C_6
REMARK    6  A    between atoms: C_6  and  C_7
REMARK    7  A    between atoms: C_6  and  C_8
REMARK    8  A    between atoms: C_6  and  N_9
REMARK    9  A    between atoms: C_10  and  C_12
REMARK   10  A    between atoms: C_12  and  C_14
REMARK   11  A    between atoms: C_12  and  N_19
REMARK   12  A    between atoms: N_19  and  C_20
REMARK   13  A    between atoms: C_26  and  C_28
REMARK   14  A    between atoms: C_29  and  O_35
REMARK   15  A    between atoms: C_33  and  O_34
REMARK                            x       y       z     vdW  Elec       q    Type
REMARK                         _______ _______ _______ _____ _____    ______ ____
ROOT
ATOM      1  N   UNL     1       6.514   0.592  -4.542  0.00  0.00    -0.248 N 
ATOM      2  C   UNL     1       7.462  -0.332  -4.792  0.00  0.00    +0.259 C 
ATOM      3  O   UNL     1       7.147  -1.427  -5.218  0.00  0.00    -0.269 OA
ENDROOT
BRANCH   1   4
ATOM      4  C   UNL     1       6.882   1.891  -4.178  0.00  0.00    +0.038 A 
ATOM      5  C   UNL     1       5.945   2.750  -3.618  0.00  0.00    +0.023 A 
ATOM      6  C   UNL     1       6.312   4.032  -3.260  0.00  0.00    +0.002 A 
ATOM      7  C   UNL     1       7.611   4.462  -3.459  0.00  0.00    +0.000 A 
ATOM      8  C   UNL     1       8.547   3.610  -4.017  0.00  0.00    +0.002 A 
ATOM      9  C   UNL     1       8.188   2.324  -4.372  0.00  0.00    +0.023 A 
ENDBRANCH   1   4
BRANCH   2  10
ATOM     10  C   UNL     1       8.879  -0.017  -4.551  0.00  0.00    +0.120 A 
ATOM     11  C   UNL     1       9.414  -0.114  -3.258  0.00  0.00    +0.133 A 
ATOM     12  C   UNL     1      10.750   0.185  -3.042  0.00  0.00    +0.046 A 
ATOM     13  C   UNL     1      11.554   0.578  -4.095  0.00  0.00    +0.007 A 
ATOM     14  C   UNL     1      11.037   0.678  -5.373  0.00  0.00    +0.046 A 
ATOM     15  C   UNL     1       9.706   0.378  -5.613  0.00  0.00    +0.133 A 
BRANCH  15  16
ATOM     16  O   UNL     1       9.203   0.471  -6.869  0.00  0.00    -0.506 OA
ATOM     17  H   UNL     1       8.844   1.343  -7.085  0.00  0.00    +0.292 HD
ENDBRANCH  15  16
BRANCH  11  18
ATOM     18  O   UNL     1       8.627  -0.499  -2.222  0.00  0.00    -0.506 OA
ATOM     19  H   UNL     1       8.611  -1.455  -2.074  0.00  0.00    +0.292 HD
ENDBRANCH  11  18
ENDBRANCH   2  10
BRANCH   1  20
ATOM     20  C   UNL     1       5.097   0.236  -4.651  0.00  0.00    +0.233 C 
BRANCH  20  21
ATOM     21  C   UNL     1       4.439   1.106  -5.691  0.00  0.00    +0.135 A 
ATOM     22  C   UNL     1       3.520   0.703  -6.587  0.00  0.00    +0.047 A 
ATOM     23  C   UNL     1       3.178   1.835  -7.362  0.00  0.00    +0.041 A 
ATOM     24  C   UNL     1       3.909   2.863  -6.893  0.00  0.00    +0.195 A 
ATOM     25  O   UNL     1       4.667   2.416  -5.878  0.00  0.00    -0.465 OA
ENDBRANCH  20  21
BRANCH  20  27
ATOM     26  N   UNL     1       3.108   0.183  -3.182  0.00  0.00    -0.308 N 
ATOM     27  C   UNL     1       4.422   0.447  -3.320  0.00  0.00    +0.242 C 
ATOM     28  O   UNL     1       5.061   0.855  -2.374  0.00  0.00    -0.273 OA
ATOM     29  H   UNL     1       2.596  -0.143  -3.939  0.00  0.00    +0.149 HD
BRANCH  26  30
ATOM     30  C   UNL     1       2.452   0.388  -1.888  0.00  0.00    +0.030 C 
ATOM     31  C   UNL     1       2.892   1.730  -1.300  0.00  0.00    +0.031 C 
ATOM     32  C   UNL     1       2.844  -0.741  -0.933  0.00  0.00    +0.031 C 
BRANCH  30  33
ATOM     33  C   UNL     1       0.934   0.388  -2.080  0.00  0.00    +0.031 C 
BRANCH  33  35
ATOM     34  C   UNL     1       0.709   0.325  -4.568  0.00  0.00    +0.010 C 
ATOM     35  C   UNL     1       0.578   1.206  -3.324  0.00  0.00    -0.036 C 
ATOM     36  C   UNL     1       1.529   2.398  -3.440  0.00  0.00    +0.010 C 
ATOM     37  C   UNL     1      -0.862   1.711  -3.207  0.00  0.00    +0.010 C 
ENDBRANCH  33  35
ENDBRANCH  30  33
ENDBRANCH  26  30
ENDBRANCH  20  27
ENDBRANCH   1  20
TORSDOF 10
