REMARK  Name = ZINC19715500
REMARK  9 active torsions:
REMARK  status: ('A' for Active; 'I' for Inactive)
REMARK    1  A    between atoms: C_1  and  C_2
REMARK    2  A    between atoms: C_2  and  N_3
REMARK    3  A    between atoms: C_4  and  C_32
REMARK    4  A    between atoms: C_5  and  N_9
REMARK    5  A    between atoms: C_6  and  C_8
REMARK    6  A    between atoms: C_10  and  C_12
REMARK    7  A    between atoms: C_12  and  N_13
REMARK    8  A    between atoms: C_17  and  C_20
REMARK    9  A    between atoms: C_20  and  C_21
REMARK                            x       y       z     vdW  Elec       q    Type
REMARK                         _______ _______ _______ _____ _____    ______ ____
ROOT
ATOM      1  N   UNL     1       3.532   0.633   8.385  0.00  0.00    +0.386 N 
ATOM      2  C   UNL     1       2.270   0.929   9.075  0.00  0.00    -0.078 C 
ATOM      3  C   UNL     1       2.139   0.034  10.309  0.00  0.00    -0.018 C 
ATOM      4  C   UNL     1       3.325   0.284  11.244  0.00  0.00    +0.000 C 
ATOM      5  C   UNL     1       4.628   0.015  10.487  0.00  0.00    -0.020 C 
ATOM      6  C   UNL     1       4.687   0.911   9.248  0.00  0.00    -0.074 C 
ATOM      7  H   UNL     1       3.541  -0.442   8.149  0.00  0.00    -0.081 HD
ENDROOT
BRANCH   1   8
ATOM      8  C   UNL     1       3.628   1.375   7.121  0.00  0.00    +0.019 C 
BRANCH   8  10
ATOM      9  N   UNL     1       2.466   1.425   4.938  0.00  0.00    -0.284 N 
ATOM     10  C   UNL     1       2.569   0.884   6.168  0.00  0.00    +0.201 C 
ATOM     11  O   UNL     1       1.808   0.003   6.509  0.00  0.00    -0.278 OA
ATOM     12  H   UNL     1       3.206   2.164   4.598  0.00  0.00    +0.155 HD
BRANCH   9  15
ATOM     13  N   UNL     1      -0.459   1.057   2.946  0.00  0.00    -0.267 N 
ATOM     14  C   UNL     1       0.308   1.780   3.802  0.00  0.00    +0.058 A 
ATOM     15  C   UNL     1       1.411   1.043   4.087  0.00  0.00    +0.077 A 
ATOM     16  C   UNL     1       1.314  -0.166   3.384  0.00  0.00    +0.081 A 
ATOM     17  N   UNL     1       0.194  -0.159   2.706  0.00  0.00    -0.174 NA
ATOM     18  C   UNL     1       2.324  -1.284   3.407  0.00  0.00    +0.069 C 
ATOM     19  C   UNL     1      -0.009   3.153   4.338  0.00  0.00    +0.067 C 
BRANCH  13  21
ATOM     20  C   UNL     1      -1.505   2.212   1.061  0.00  0.00    +0.029 C 
ATOM     21  C   UNL     1      -1.744   1.471   2.378  0.00  0.00    +0.140 C 
ENDBRANCH  13  21
ENDBRANCH   9  15
ENDBRANCH   8  10
ENDBRANCH   1   8
BRANCH   5  22
ATOM     22  C   UNL     1       5.820   0.320  11.396  0.00  0.00    +0.076 C 
BRANCH  22  23
ATOM     23  C   UNL     1       5.830  -0.645  12.553  0.00  0.00    +0.108 A 
ATOM     24  N   UNL     1       6.880  -1.441  12.896  0.00  0.00    -0.342 N 
ATOM     25  H   UNL     1       7.810  -1.407  12.310  0.00  0.00    +0.167 HD
ATOM     26  C   UNL     1       6.496  -2.172  14.002  0.00  0.00    +0.069 A 
ATOM     27  C   UNL     1       7.119  -3.130  14.791  0.00  0.00    +0.066 A 
ATOM     28  C   UNL     1       6.439  -3.685  15.857  0.00  0.00    +0.125 A 
ATOM     29  C   UNL     1       5.138  -3.290  16.144  0.00  0.00    +0.040 A 
ATOM     30  C   UNL     1       4.511  -2.348  15.378  0.00  0.00    +0.032 A 
ATOM     31  C   UNL     1       5.180  -1.774  14.293  0.00  0.00    +0.089 A 
ATOM     32  N   UNL     1       4.838  -0.836  13.373  0.00  0.00    -0.232 NA
ATOM     33  F   UNL     1       7.043  -4.617  16.626  0.00  0.00    -0.205 F 
ENDBRANCH  22  23
ENDBRANCH   5  22
TORSDOF 6
