REMARK  Name = ZINC04515472
REMARK  4 active torsions:
REMARK  status: ('A' for Active; 'I' for Inactive)
REMARK    1  A    between atoms: C_1  and  C_2
REMARK    2  A    between atoms: N_11  and  C_15
REMARK    3  A    between atoms: C_15  and  C_16
REMARK    4  A    between atoms: N_18  and  C_19
REMARK                            x       y       z     vdW  Elec       q    Type
REMARK                         _______ _______ _______ _____ _____    ______ ____
ROOT
ATOM      1  C   UNL     1       4.677  -5.648   4.659  0.00  0.00    +0.010 C 
ATOM      2  C   UNL     1       5.660  -5.807   5.821  0.00  0.00    +0.018 C 
ATOM      3  C   UNL     1       6.061  -7.278   5.952  0.00  0.00    +0.006 C 
ATOM      4  C   UNL     1       7.059  -7.433   7.101  0.00  0.00    +0.000 C 
ATOM      5  C   UNL     1       8.308  -6.598   6.811  0.00  0.00    +0.003 C 
ATOM      6  C   UNL     1       7.915  -5.123   6.682  0.00  0.00    +0.035 C 
ATOM      7  C   UNL     1       6.901  -4.963   5.554  0.00  0.00    +0.115 C 
ATOM      8  C   UNL     1       6.530  -3.507   5.388  0.00  0.00    +0.247 C 
ATOM      9  O   UNL     1       6.004  -2.785   6.208  0.00  0.00    -0.273 OA
ATOM     10  N   UNL     1       6.904  -3.181   4.133  0.00  0.00    -0.215 N 
ATOM     11  C   UNL     1       7.461  -4.220   3.499  0.00  0.00    +0.310 C 
ATOM     12  O   UNL     1       7.880  -4.170   2.360  0.00  0.00    -0.252 OA
ATOM     13  N   UNL     1       7.504  -5.327   4.265  0.00  0.00    -0.285 N 
ATOM     14  H   UNL     1       7.861  -6.193   4.015  0.00  0.00    +0.151 HD
ENDROOT
BRANCH  10  15
ATOM     15  C   UNL     1       6.728  -1.853   3.541  0.00  0.00    +0.214 C 
BRANCH  15  16
ATOM     16  C   UNL     1       5.391  -1.784   2.850  0.00  0.00    +0.235 C 
ATOM     17  O   UNL     1       4.657  -2.749   2.852  0.00  0.00    -0.274 OA
ATOM     18  N   UNL     1       5.011  -0.649   2.230  0.00  0.00    -0.284 N 
ATOM     19  H   UNL     1       5.624   0.100   2.170  0.00  0.00    +0.155 HD
BRANCH  18  20
ATOM     20  C   UNL     1       3.729  -0.552   1.671  0.00  0.00    +0.037 A 
ATOM     21  C   UNL     1       3.138  -1.666   1.093  0.00  0.00    +0.027 A 
ATOM     22  C   UNL     1       1.874  -1.572   0.542  0.00  0.00    +0.051 A 
ATOM     23  C   UNL     1       1.194  -0.365   0.566  0.00  0.00    +0.166 A 
ATOM     24  C   UNL     1       1.785   0.755   1.145  0.00  0.00    +0.168 A 
ATOM     25  C   UNL     1       3.051   0.659   1.697  0.00  0.00    +0.072 A 
ATOM     26  O   UNL     1       0.921   1.807   1.042  0.00  0.00    -0.453 OA
ATOM     27  C   UNL     1      -0.365   1.223   0.761  0.00  0.00    +0.466 C 
ATOM     28  O   UNL     1      -0.041  -0.014   0.099  0.00  0.00    -0.453 OA
ENDBRANCH  18  20
ENDBRANCH  15  16
ENDBRANCH  10  15
TORSDOF 3
