REMARK  Name = ZINC62433011
REMARK  8 active torsions:
REMARK  status: ('A' for Active; 'I' for Inactive)
REMARK    1  A    between atoms: C_1  and  C_2
REMARK    2  A    between atoms: C_2  and  C_3
REMARK    3  A    between atoms: C_2  and  C_4
REMARK    4  A    between atoms: C_7  and  C_10
REMARK    5  A    between atoms: C_10  and  C_11
REMARK    6  A    between atoms: C_12  and  C_21
REMARK    7  A    between atoms: C_15  and  N_20
REMARK    8  A    between atoms: C_21  and  C_22
REMARK                            x       y       z     vdW  Elec       q    Type
REMARK                         _______ _______ _______ _____ _____    ______ ____
ROOT
ATOM      1  C   UNL     1      -6.323  -1.024  -0.658  0.00  0.00    +0.069 A 
ATOM      2  C   UNL     1      -6.974   0.006  -0.073  0.00  0.00    +0.060 A 
ATOM      3  N   UNL     1      -7.681   0.647  -1.053  0.00  0.00    -0.301 N 
ATOM      4  C   UNL     1      -8.505   1.738  -1.035  0.00  0.00    +0.115 A 
ATOM      5  C   UNL     1      -9.093   2.175  -2.175  0.00  0.00    +0.041 A 
ATOM      6  C   UNL     1      -8.860   1.506  -3.393  0.00  0.00    +0.028 A 
ATOM      7  C   UNL     1      -8.041   0.421  -3.419  0.00  0.00    +0.048 A 
ATOM      8  C   UNL     1      -7.438  -0.020  -2.224  0.00  0.00    +0.138 A 
ATOM      9  N   UNL     1      -6.610  -1.023  -1.961  0.00  0.00    -0.232 NA
ENDROOT
BRANCH   5  10
ATOM     10  N   UNL     1      -9.936   3.294  -2.142  0.00  0.00    -0.357 N 
ATOM     11  H   UNL     1     -10.098   3.755  -1.304  0.00  0.00    +0.142 HD
ATOM     12  H   UNL     1     -10.358   3.607  -2.958  0.00  0.00    +0.142 HD
ENDBRANCH   5  10
BRANCH   1  13
ATOM     13  C   UNL     1      -5.419  -2.005   0.043  0.00  0.00    +0.092 C 
BRANCH  13  17
ATOM     14  C   UNL     1      -1.412  -0.526   0.013  0.00  0.00    -0.045 A 
ATOM     15  C   UNL     1      -2.259  -0.204   1.056  0.00  0.00    +0.004 A 
ATOM     16  C   UNL     1      -3.556  -0.683   1.066  0.00  0.00    +0.004 A 
ATOM     17  C   UNL     1      -4.006  -1.482   0.032  0.00  0.00    -0.042 A 
ATOM     18  C   UNL     1      -3.159  -1.803  -1.012  0.00  0.00    +0.004 A 
ATOM     19  C   UNL     1      -1.863  -1.321  -1.024  0.00  0.00    +0.004 A 
BRANCH  14  21
ATOM     20  C   UNL     1      -0.019   1.526   0.010  0.00  0.00    +0.012 C 
ATOM     21  C   UNL     1       0.002  -0.004   0.002  0.00  0.00    +0.013 C 
ATOM     22  C   UNL     1       0.742  -0.511   1.242  0.00  0.00    +0.012 C 
ENDBRANCH  14  21
ENDBRANCH  13  17
ENDBRANCH   1  13
BRANCH   2  23
ATOM     23  C   UNL     1      -6.929   0.379   1.387  0.00  0.00    +0.174 C 
BRANCH  23  24
ATOM     24  C   UNL     1      -8.003  -0.326   2.106  0.00  0.00    +0.069 C 
ATOM     25  N   UNL     1      -8.832  -0.870   2.661  0.00  0.00    -0.196 NA
ENDBRANCH  23  24
ENDBRANCH   2  23
TORSDOF 6
