REMARK  Name = ZINC48798273
REMARK  12 active torsions:
REMARK  status: ('A' for Active; 'I' for Inactive)
REMARK    1  A    between atoms: C_1  and  C_2
REMARK    2  A    between atoms: C_2  and  C_3
REMARK    3  A    between atoms: C_3  and  C_5
REMARK    4  A    between atoms: C_3  and  N_23
REMARK    5  A    between atoms: C_5  and  C_6
REMARK    6  A    between atoms: C_11  and  O_12
REMARK    7  A    between atoms: O_12  and  C_13
REMARK    8  A    between atoms: C_13  and  C_15
REMARK    9  A    between atoms: C_13  and  C_16
REMARK   10  A    between atoms: N_18  and  C_19
REMARK   11  A    between atoms: C_19  and  C_20
REMARK   12  A    between atoms: C_19  and  C_21
REMARK                            x       y       z     vdW  Elec       q    Type
REMARK                         _______ _______ _______ _____ _____    ______ ____
ROOT
ATOM      1  C   UNL     1       1.516  -2.625  -2.240  0.00  0.00    -0.006 A 
ATOM      2  C   UNL     1       0.724  -2.991  -3.312  0.00  0.00    +0.007 A 
ATOM      3  C   UNL     1       1.308  -3.409  -4.493  0.00  0.00    +0.002 A 
ATOM      4  C   UNL     1       2.685  -3.461  -4.607  0.00  0.00    +0.019 A 
ATOM      5  C   UNL     1       3.482  -3.095  -3.538  0.00  0.00    +0.060 A 
ATOM      6  C   UNL     1       2.898  -2.670  -2.352  0.00  0.00    +0.139 A 
ATOM      7 BR   UNL     1       5.365  -3.166  -3.693  0.00  0.00    -0.047 Br
ENDROOT
BRANCH   1   8
ATOM      8  C   UNL     1       0.879  -2.169  -0.953  0.00  0.00    +0.022 C 
BRANCH   8   9
ATOM      9  C   UNL     1       0.704  -0.650  -0.980  0.00  0.00    -0.071 C 
BRANCH   9  10
ATOM     10  N   UNL     1      -0.255  -0.286  -2.032  0.00  0.00    +0.380 N 
ATOM     11  H   UNL     1      -1.144  -0.723  -1.842  0.00  0.00    -0.090 HD
ATOM     12  H   UNL     1      -0.370   0.716  -2.050  0.00  0.00    -0.090 HD
ATOM     13  H   UNL     1       0.091  -0.601  -2.926  0.00  0.00    -0.090 HD
ENDBRANCH   9  10
BRANCH   9  15
ATOM     14  C   UNL     1       0.122   1.356   0.391  0.00  0.00    +0.002 C 
ATOM     15  C   UNL     1       0.179  -0.172   0.376  0.00  0.00    -0.019 C 
ENDBRANCH   9  15
ENDBRANCH   8   9
ENDBRANCH   1   8
BRANCH   6  16
ATOM     16  O   UNL     1       3.679  -2.305  -1.302  0.00  0.00    -0.479 OA
BRANCH  16  17
ATOM     17  C   UNL     1       4.001  -0.917  -1.185  0.00  0.00    +0.256 C 
ATOM     18  C   UNL     1       5.402  -0.671  -1.748  0.00  0.00    +0.062 C 
BRANCH  17  19
ATOM     19  C   UNL     1       3.965  -0.514   0.266  0.00  0.00    +0.254 C 
ATOM     20  O   UNL     1       3.779  -1.351   1.124  0.00  0.00    -0.272 OA
ATOM     21  N   UNL     1       4.138   0.778   0.611  0.00  0.00    -0.310 N 
ATOM     22  H   UNL     1       4.287   1.447  -0.075  0.00  0.00    +0.149 HD
BRANCH  21  23
ATOM     23  C   UNL     1       4.103   1.170   2.022  0.00  0.00    +0.067 C 
ATOM     24  C   UNL     1       5.487   0.971   2.642  0.00  0.00    +0.027 C 
ATOM     25  C   UNL     1       3.702   2.643   2.131  0.00  0.00    +0.027 C 
ENDBRANCH  21  23
ENDBRANCH  17  19
ENDBRANCH  16  17
ENDBRANCH   6  16
TORSDOF 8
