REMARK  Name = ZINC39460796
REMARK  8 active torsions:
REMARK  status: ('A' for Active; 'I' for Inactive)
REMARK    1  A    between atoms: C_1  and  C_2
REMARK    2  A    between atoms: C_4  and  C_8
REMARK    3  A    between atoms: C_8  and  N_9
REMARK    4  A    between atoms: N_9  and  C_10
REMARK    5  A    between atoms: C_10  and  C_12
REMARK    6  A    between atoms: C_10  and  C_13
REMARK    7  A    between atoms: N_17  and  C_21
REMARK    8  A    between atoms: C_18  and  C_20
REMARK                            x       y       z     vdW  Elec       q    Type
REMARK                         _______ _______ _______ _____ _____    ______ ____
ROOT
ATOM      1  C   UNL     1      -2.711  -5.462   2.715  0.00  0.00    +0.040 C 
ATOM      2  C   UNL     1      -3.692  -4.514   3.368  0.00  0.00    +0.107 C 
ATOM      3  N   UNL     1      -4.248  -5.086   4.356  0.00  0.00    -0.192 NA
ATOM      4  N   UNL     1      -3.826  -6.395   4.578  0.00  0.00    -0.221 N 
ATOM      5  C   UNL     1      -2.819  -6.748   3.559  0.00  0.00    +0.102 C 
ATOM      6  C   UNL     1      -1.477  -7.076   4.216  0.00  0.00    +0.030 C 
ENDROOT
BRANCH   4   7
ATOM      7  C   UNL     1      -4.280  -7.233   5.593  0.00  0.00    +0.059 A 
ATOM      8  C   UNL     1      -4.794  -8.477   5.291  0.00  0.00    +0.025 A 
ATOM      9  C   UNL     1      -5.251  -9.322   6.298  0.00  0.00    +0.002 A 
ATOM     10  C   UNL     1      -5.204  -8.946   7.606  0.00  0.00    +0.008 A 
ATOM     11  C   UNL     1      -4.688  -7.687   7.957  0.00  0.00    -0.016 A 
ATOM     12  C   UNL     1      -4.214  -6.820   6.941  0.00  0.00    +0.005 A 
ATOM     13  C   UNL     1      -3.694  -5.565   7.294  0.00  0.00    +0.010 A 
ATOM     14  C   UNL     1      -3.646  -5.199   8.604  0.00  0.00    +0.001 A 
ATOM     15  C   UNL     1      -4.106  -6.053   9.605  0.00  0.00    +0.001 A 
ATOM     16  C   UNL     1      -4.628  -7.273   9.299  0.00  0.00    +0.008 A 
ENDBRANCH   4   7
BRANCH   1  17
ATOM     17  C   UNL     1      -1.292  -4.894   2.780  0.00  0.00    -0.064 C 
ATOM     18  C   UNL     1      -1.298  -3.446   2.284  0.00  0.00    -0.013 C 
BRANCH  17  19
ATOM     19  N   UNL     1      -0.403  -5.698   1.931  0.00  0.00    +0.385 N 
ATOM     20  H   UNL     1      -0.663  -5.579   0.964  0.00  0.00    -0.085 HD
ATOM     21  H   UNL     1      -0.487  -6.671   2.184  0.00  0.00    -0.085 HD
BRANCH  19  22
ATOM     22  C   UNL     1       0.986  -5.260   2.123  0.00  0.00    -0.024 C 
BRANCH  22  26
ATOM     23  C   UNL     1       3.851  -6.781  -1.803  0.00  0.00    +0.065 C 
ATOM     24  C   UNL     1       3.146  -6.735  -0.472  0.00  0.00    +0.033 A 
ATOM     25  C   UNL     1       2.351  -5.736  -0.024  0.00  0.00    +0.045 A 
ATOM     26  C   UNL     1       1.898  -6.086   1.252  0.00  0.00    +0.046 A 
ATOM     27  N   UNL     1       2.402  -7.253   1.560  0.00  0.00    -0.181 NA
ATOM     28  H   UNL     1       3.682  -8.521   0.438  0.00  0.00    +0.188 HD
ATOM     29  N   UNL     1       3.190  -7.686   0.485  0.00  0.00    -0.282 N 
ENDBRANCH  22  26
ENDBRANCH  19  22
ENDBRANCH  17  19
ENDBRANCH   1  17
TORSDOF 5
