REMARK  Name = ZINC41626112
REMARK  7 active torsions:
REMARK  status: ('A' for Active; 'I' for Inactive)
REMARK    1  A    between atoms: C_1  and  C_2
REMARK    2  A    between atoms: C_2  and  C_3
REMARK    3  A    between atoms: C_9  and  S_11
REMARK    4  A    between atoms: S_11  and  C_12
REMARK    5  A    between atoms: C_12  and  C_14
REMARK    6  A    between atoms: C_12  and  C_15
REMARK    7  A    between atoms: N_17  and  C_18
REMARK                            x       y       z     vdW  Elec       q    Type
REMARK                         _______ _______ _______ _____ _____    ______ ____
ROOT
ATOM      1  C   UNL     1       4.886  -0.607   0.514  0.00  0.00    +0.137 C 
ATOM      2  C   UNL     1       4.497   0.867   0.374  0.00  0.00    +0.029 C 
ENDROOT
BRANCH   1   3
ATOM      3  C   UNL     1       6.365  -0.761   0.272  0.00  0.00    +0.230 C 
ATOM      4  O   UNL     1       7.126  -0.860   1.211  0.00  0.00    -0.274 OA
ATOM      5  N   UNL     1       6.843  -0.789  -0.988  0.00  0.00    -0.283 N 
ATOM      6  H   UNL     1       6.230  -0.776  -1.740  0.00  0.00    +0.155 HD
BRANCH   5   7
ATOM      7  C   UNL     1       8.224  -0.838  -1.212  0.00  0.00    +0.053 A 
ATOM      8  C   UNL     1       9.045  -1.542  -0.342  0.00  0.00    +0.044 A 
ATOM      9  C   UNL     1      10.409  -1.589  -0.566  0.00  0.00    +0.043 A 
ATOM     10  C   UNL     1      10.955  -0.935  -1.657  0.00  0.00    +0.021 A 
ATOM     11  C   UNL     1      10.139  -0.233  -2.525  0.00  0.00    +0.023 A 
ATOM     12  C   UNL     1       8.775  -0.187  -2.309  0.00  0.00    +0.062 A 
ATOM     13 CL   UNL     1       7.751   0.689  -3.404  0.00  0.00    -0.082 Cl
ATOM     14 CL   UNL     1      11.437  -2.468   0.522  0.00  0.00    -0.083 Cl
ENDBRANCH   5   7
ENDBRANCH   1   3
BRANCH   1  15
ATOM     15  S   UNL     1       4.483  -1.183   2.186  0.00  0.00    -0.075 S 
BRANCH  15  22
ATOM     16  C   UNL     1       0.729  -0.554   1.224  0.00  0.00    +0.049 A 
ATOM     17  C   UNL     1       0.030  -0.907   2.342  0.00  0.00    +0.093 A 
ATOM     18  C   UNL     1       0.735  -1.368   3.467  0.00  0.00    +0.252 A 
ATOM     19  O   UNL     1       0.141  -1.692   4.483  0.00  0.00    -0.268 OA
ATOM     20  N   UNL     1       2.081  -1.445   3.403  0.00  0.00    -0.302 N 
ATOM     21  H   UNL     1       2.588  -1.761   4.168  0.00  0.00    +0.171 HD
ATOM     22  C   UNL     1       2.725  -1.079   2.260  0.00  0.00    +0.170 A 
ATOM     23  N   UNL     1       2.056  -0.653   1.207  0.00  0.00    -0.228 NA
BRANCH  16  25
ATOM     24  C   UNL     1      -0.036   1.472   0.016  0.00  0.00    +0.010 C 
ATOM     25  C   UNL     1      -0.004  -0.058   0.004  0.00  0.00    +0.052 C 
ENDBRANCH  16  25
ENDBRANCH  15  22
ENDBRANCH   1  15
TORSDOF 5
