REMARK  Name = ZINC27320403
REMARK  9 active torsions:
REMARK  status: ('A' for Active; 'I' for Inactive)
REMARK    1  A    between atoms: C_1  and  C_2
REMARK    2  A    between atoms: C_2  and  C_40
REMARK    3  A    between atoms: C_7  and  C_22
REMARK    4  A    between atoms: C_8  and  N_11
REMARK    5  A    between atoms: C_12  and  C_14
REMARK    6  A    between atoms: C_14  and  C_15
REMARK    7  A    between atoms: C_15  and  C_16
REMARK    8  A    between atoms: C_22  and  S_23
REMARK    9  A    between atoms: S_23  and  N_26
REMARK                            x       y       z     vdW  Elec       q    Type
REMARK                         _______ _______ _______ _____ _____    ______ ____
ROOT
ATOM      1  C   UNL     1      -8.195   7.780  -4.422  0.00  0.00    +0.012 C 
ATOM      2  C   UNL     1      -7.099   7.785  -3.355  0.00  0.00    -0.023 C 
ATOM      3  C   UNL     1      -5.699   8.173  -3.951  0.00  0.00    -0.003 C 
ATOM      4  C   UNL     1      -5.471   6.992  -4.943  0.00  0.00    +0.005 C 
ATOM      5  C   UNL     1      -6.132   5.773  -4.258  0.00  0.00    +0.011 C 
ATOM      6  C   UNL     1      -6.697   6.332  -2.917  0.00  0.00    +0.015 C 
ATOM      7  C   UNL     1      -5.432   6.631  -2.055  0.00  0.00    +0.081 C 
ATOM      8  C   UNL     1      -4.770   7.851  -2.737  0.00  0.00    +0.027 C 
ATOM      9  C   UNL     1      -7.476   8.661  -2.159  0.00  0.00    +0.012 C 
ENDROOT
BRANCH   7  10
ATOM     10  N   UNL     1      -4.522   5.483  -2.069  0.00  0.00    -0.312 N 
ATOM     11  C   UNL     1      -3.535   5.394  -1.154  0.00  0.00    +0.214 C 
ATOM     12  O   UNL     1      -3.401   6.265  -0.321  0.00  0.00    -0.276 OA
ATOM     13  H   UNL     1      -4.644   4.693  -2.825  0.00  0.00    +0.149 HD
BRANCH  11  14
ATOM     14  C   UNL     1      -2.600   4.213  -1.168  0.00  0.00    +0.102 C 
BRANCH  14  15
ATOM     15  C   UNL     1      -1.581   4.356  -0.035  0.00  0.00    +0.064 C 
BRANCH  15  16
ATOM     16  C   UNL     1      -0.645   3.175  -0.049  0.00  0.00    +0.034 A 
ATOM     17  C   UNL     1       0.699   3.232  -0.112  0.00  0.00    +0.105 A 
ATOM     18  N   UNL     1       1.150   1.939  -0.102  0.00  0.00    -0.352 N 
ATOM     19  H   UNL     1       2.230   1.733  -0.146  0.00  0.00    +0.166 HD
ATOM     20  C   UNL     1       0.065   1.138  -0.032  0.00  0.00    +0.171 A 
ATOM     21  N   UNL     1      -1.005   1.884  -0.006  0.00  0.00    -0.350 N 
ATOM     22  H   UNL     1      -2.070   1.611   0.043  0.00  0.00    +0.166 HD
ENDBRANCH  15  16
ENDBRANCH  14  15
ENDBRANCH  11  14
ENDBRANCH   7  10
BRANCH   6  23
ATOM     23  C   UNL     1      -7.780   5.488  -2.244  0.00  0.00    +0.194 C 
BRANCH  23  24
ATOM     24  S   UNL     1      -7.099   3.864  -1.810  0.00  0.00    +0.032 S 
ATOM     25  O   UNL     1      -6.811   3.123  -2.988  0.00  0.00    -0.158 OA
ATOM     26  O   UNL     1      -6.125   3.999  -0.784  0.00  0.00    -0.158 OA
BRANCH  24  27
ATOM     27  N   UNL     1      -8.354   3.053  -1.097  0.00  0.00    -0.181 NA
ATOM     28  C   UNL     1      -8.566   3.130   0.355  0.00  0.00    +0.110 C 
ATOM     29  C   UNL     1     -10.011   3.585   0.614  0.00  0.00    +0.028 C 
ATOM     30  C   UNL     1     -10.972   2.658  -0.124  0.00  0.00    -0.001 C 
ATOM     31  C   UNL     1     -10.820   1.218   0.401  0.00  0.00    +0.016 C 
ATOM     32  C   UNL     1     -12.267   0.684   0.325  0.00  0.00    +0.036 C 
ATOM     33  C   UNL     1     -13.148   1.911   0.428  0.00  0.00    -0.044 A 
ATOM     34  C   UNL     1     -12.402   3.047   0.167  0.00  0.00    -0.038 A 
ATOM     35  C   UNL     1     -13.008   4.291   0.203  0.00  0.00    +0.004 A 
ATOM     36  C   UNL     1     -14.352   4.403   0.499  0.00  0.00    +0.000 A 
ATOM     37  C   UNL     1     -15.097   3.268   0.761  0.00  0.00    +0.000 A 
ATOM     38  C   UNL     1     -14.496   2.025   0.725  0.00  0.00    +0.004 A 
ATOM     39  C   UNL     1     -10.709   2.694  -1.627  0.00  0.00    +0.028 C 
ATOM     40  C   UNL     1      -9.272   2.237  -1.903  0.00  0.00    +0.110 C 
ENDBRANCH  24  27
ENDBRANCH  23  24
ENDBRANCH   6  23
TORSDOF 7
