REMARK  Name = ZINC14671539
REMARK  10 active torsions:
REMARK  status: ('A' for Active; 'I' for Inactive)
REMARK    1  A    between atoms: C_1  and  C_2
REMARK    2  A    between atoms: C_2  and  C_3
REMARK    3  A    between atoms: C_3  and  C_5
REMARK    4  A    between atoms: C_3  and  C_6
REMARK    5  A    between atoms: C_6  and  N_8
REMARK    6  A    between atoms: N_10  and  C_11
REMARK    7  A    between atoms: C_11  and  C_12
REMARK    8  A    between atoms: C_12  and  C_13
REMARK    9  A    between atoms: C_27  and  C_32
REMARK   10  A    between atoms: C_29  and  C_31
REMARK                            x       y       z     vdW  Elec       q    Type
REMARK                         _______ _______ _______ _____ _____    ______ ____
ROOT
ATOM      1  N   UNL     1      -2.711  -2.540  -0.217  0.00  0.00    -0.147 NA
ATOM      2  C   UNL     1      -2.704  -3.748  -0.764  0.00  0.00    +0.196 C 
ATOM      3  N   UNL     1      -1.552  -4.474  -0.798  0.00  0.00    -0.357 N 
ATOM      4  N   UNL     1      -3.853  -4.265  -1.293  0.00  0.00    -0.297 N 
ATOM      5  C   UNL     1      -5.032  -3.533  -1.243  0.00  0.00    +0.231 A 
ATOM      6  N   UNL     1      -5.002  -2.291  -0.783  0.00  0.00    -0.217 NA
ATOM      7  C   UNL     1      -6.106  -1.565  -0.723  0.00  0.00    +0.044 A 
ATOM      8  C   UNL     1      -7.303  -2.120  -1.147  0.00  0.00    +0.046 A 
ATOM      9  C   UNL     1      -7.298  -3.422  -1.623  0.00  0.00    +0.044 A 
ATOM     10  N   UNL     1      -6.157  -4.090  -1.661  0.00  0.00    -0.217 NA
ATOM     11  C   UNL     1      -8.576  -4.067  -2.095  0.00  0.00    +0.066 C 
ATOM     12  C   UNL     1      -6.063  -0.154  -0.198  0.00  0.00    +0.066 C 
ATOM     13  H   UNL     1      -3.845  -5.144  -1.704  0.00  0.00    +0.171 HD
ATOM     14  H   UNL     1      -0.719  -4.075  -0.503  0.00  0.00    +0.162 HD
ENDROOT
BRANCH   1  15
ATOM     15  C   UNL     1      -1.644  -2.105   0.450  0.00  0.00    +0.242 C 
ATOM     16  O   UNL     1      -0.710  -2.855   0.659  0.00  0.00    -0.273 OA
BRANCH  15  17
ATOM     17  C   UNL     1      -1.593  -0.683   0.946  0.00  0.00    +0.074 C 
ATOM     18  C   UNL     1      -2.756  -0.436   1.909  0.00  0.00    +0.017 C 
BRANCH  17  20
ATOM     19  C   UNL     1      -0.163   1.032   2.067  0.00  0.00    +0.004 C 
ATOM     20  C   UNL     1      -0.269  -0.443   1.673  0.00  0.00    +0.009 C 
ENDBRANCH  17  20
ENDBRANCH  15  17
ENDBRANCH   1  15
BRANCH   3  21
ATOM     21  C   UNL     1      -1.571  -5.856  -1.282  0.00  0.00    +0.120 C 
BRANCH  21  22
ATOM     22  C   UNL     1      -0.185  -6.479  -1.102  0.00  0.00    +0.058 C 
BRANCH  22  23
ATOM     23  C   UNL     1      -0.171  -7.858  -1.709  0.00  0.00    -0.021 A 
ATOM     24  C   UNL     1      -0.292  -9.021  -1.050  0.00  0.00    +0.087 A 
ATOM     25  N   UNL     1      -0.233 -10.066  -1.932  0.00  0.00    -0.360 N 
ATOM     26  H   UNL     1      -0.298 -11.003  -1.691  0.00  0.00    +0.165 HD
ATOM     27  C   UNL     1      -0.070  -9.588  -3.213  0.00  0.00    +0.047 A 
ATOM     28  C   UNL     1      -0.030  -8.184  -3.130  0.00  0.00    +0.004 A 
ATOM     29  C   UNL     1       0.124  -7.421  -4.289  0.00  0.00    +0.030 A 
ATOM     30  C   UNL     1       0.232  -8.050  -5.510  0.00  0.00    +0.042 A 
ATOM     31  C   UNL     1       0.189  -9.436  -5.591  0.00  0.00    +0.022 A 
ATOM     32  C   UNL     1       0.046 -10.202  -4.455  0.00  0.00    +0.027 A 
ATOM     33 CL   UNL     1       0.423  -7.106  -6.954  0.00  0.00    -0.084 Cl
ENDBRANCH  22  23
ENDBRANCH  21  22
ENDBRANCH   3  21
TORSDOF 6
