REMARK  Name = ZINC33514722
REMARK  11 active torsions:
REMARK  status: ('A' for Active; 'I' for Inactive)
REMARK    1  A    between atoms: C_1  and  C_2
REMARK    2  A    between atoms: C_5  and  O_33
REMARK    3  A    between atoms: C_6  and  N_8
REMARK    4  A    between atoms: C_9  and  C_11
REMARK    5  A    between atoms: C_14  and  C_32
REMARK    6  A    between atoms: C_15  and  C_16
REMARK    7  A    between atoms: C_15  and  C_17
REMARK    8  A    between atoms: N_19  and  N_20
REMARK    9  A    between atoms: N_20  and  C_21
REMARK   10  A    between atoms: C_24  and  N_27
REMARK   11  A    between atoms: O_33  and  C_34
REMARK                            x       y       z     vdW  Elec       q    Type
REMARK                         _______ _______ _______ _____ _____    ______ ____
ROOT
ATOM      1  C   UNL     1       0.368  -2.157   0.744  0.00  0.00    +0.117 C 
ATOM      2  C   UNL     1       0.958  -2.125  -0.700  0.00  0.00    +0.026 C 
ATOM      3  C   UNL     1       0.706  -0.664  -1.183  0.00  0.00    +0.015 C 
ATOM      4  C   UNL     1      -0.030  -0.002   0.024  0.00  0.00    +0.022 C 
ATOM      5  C   UNL     1       0.703  -0.700   1.225  0.00  0.00    -0.003 C 
ATOM      6  C   UNL     1       2.208  -0.421   1.228  0.00  0.00    +0.013 C 
ATOM      7  C   UNL     1       0.057  -0.369   2.571  0.00  0.00    +0.013 C 
ATOM      8  C   UNL     1      -1.392  -0.706   0.093  0.00  0.00    +0.109 C 
ATOM      9  N   UNL     1      -2.555  -0.184  -0.200  0.00  0.00    -0.183 NA
ATOM     10  C   UNL     1      -1.147  -2.032   0.536  0.00  0.00    +0.195 C 
ATOM     11  O   UNL     1      -1.977  -2.900   0.716  0.00  0.00    -0.290 OA
ATOM     12  C   UNL     1      -0.060   1.527   0.038  0.00  0.00    +0.018 C 
ENDROOT
BRANCH   1  14
ATOM     13  N   UNL     1       0.592  -4.561   1.285  0.00  0.00    -0.282 N 
ATOM     14  C   UNL     1       0.841  -3.282   1.629  0.00  0.00    +0.232 C 
ATOM     15  O   UNL     1       1.446  -3.036   2.651  0.00  0.00    -0.274 OA
ATOM     16  H   UNL     1      -0.019  -4.782   0.397  0.00  0.00    +0.155 HD
BRANCH  13  22
ATOM     17  C   UNL     1       1.869  -6.345   5.685  0.00  0.00    +0.044 C 
ATOM     18  C   UNL     1       1.742  -6.501   4.191  0.00  0.00    -0.048 A 
ATOM     19  C   UNL     1       2.139  -7.678   3.584  0.00  0.00    +0.007 A 
ATOM     20  C   UNL     1       2.025  -7.827   2.215  0.00  0.00    +0.048 A 
ATOM     21  C   UNL     1       1.506  -6.796   1.447  0.00  0.00    +0.141 A 
ATOM     22  C   UNL     1       1.111  -5.608   2.057  0.00  0.00    +0.076 A 
ATOM     23  C   UNL     1       1.229  -5.466   3.432  0.00  0.00    +0.030 A 
BRANCH  21  24
ATOM     24  O   UNL     1       1.387  -6.943   0.100  0.00  0.00    -0.493 OA
ATOM     25  C   UNL     1       1.812  -8.189  -0.457  0.00  0.00    +0.277 C 
ENDBRANCH  21  24
ENDBRANCH  13  22
ENDBRANCH   1  14
BRANCH   9  26
ATOM     26  N   UNL     1      -3.626  -0.896  -0.096  0.00  0.00    -0.237 N 
ATOM     27  H   UNL     1      -3.561  -1.942   0.239  0.00  0.00    +0.174 HD
BRANCH  26  28
ATOM     28  C   UNL     1      -4.867  -0.339  -0.409  0.00  0.00    +0.048 A 
ATOM     29  C   UNL     1      -4.951   0.984  -0.827  0.00  0.00    +0.027 A 
ATOM     30  C   UNL     1      -6.180   1.529  -1.141  0.00  0.00    +0.034 A 
ATOM     31  C   UNL     1      -7.327   0.765  -1.029  0.00  0.00    +0.126 A 
ATOM     32  C   UNL     1      -7.248  -0.550  -0.608  0.00  0.00    +0.034 A 
ATOM     33  C   UNL     1      -6.022  -1.104  -0.297  0.00  0.00    +0.027 A 
BRANCH  31  34
ATOM     34  N   UNL     1      -8.644   1.356  -1.360  0.00  0.00    +0.056 N 
ATOM     35  O   UNL     1      -9.655   0.684  -1.262  0.00  0.00    -0.126 OA
ATOM     36  O   UNL     1      -8.716   2.514  -1.731  0.00  0.00    -0.126 OA
ENDBRANCH  31  34
ENDBRANCH  26  28
ENDBRANCH   9  26
TORSDOF 6
