REMARK  Name = ZINC02338529
REMARK  6 active torsions:
REMARK  status: ('A' for Active; 'I' for Inactive)
REMARK    1  A    between atoms: C_1  and  O_2
REMARK    2  A    between atoms: O_2  and  C_3
REMARK    3  A    between atoms: C_5  and  C_11
REMARK    4  A    between atoms: C_8  and  O_9
REMARK    5  A    between atoms: N_12  and  N_13
REMARK    6  A    between atoms: C_14  and  C_16
REMARK                            x       y       z     vdW  Elec       q    Type
REMARK                         _______ _______ _______ _____ _____    ______ ____
ROOT
ATOM      1  C   UNL     1       3.337   8.228   0.012  0.00  0.00    +0.138 C 
ATOM      2  N   UNL     1       3.414   6.932   0.005  0.00  0.00    -0.187 NA
ENDROOT
BRANCH   1   5
ATOM      3  C   UNL     1       5.643  11.191   0.005  0.00  0.00    +0.163 A 
ATOM      4  C   UNL     1       4.486  10.434   0.006  0.00  0.00    +0.059 A 
ATOM      5  C   UNL     1       4.567   9.040   0.004  0.00  0.00    -0.000 A 
ATOM      6  C   UNL     1       5.818   8.416  -0.011  0.00  0.00    +0.033 A 
ATOM      7  C   UNL     1       6.968   9.178  -0.018  0.00  0.00    +0.087 A 
ATOM      8  C   UNL     1       6.886  10.564  -0.010  0.00  0.00    +0.177 A 
ATOM      9 CL   UNL     1       8.521   8.402  -0.037  0.00  0.00    -0.080 Cl
BRANCH   3  11
ATOM     10  C   UNL     1       4.260  13.126   0.029  0.00  0.00    +0.277 C 
ATOM     11  O   UNL     1       5.567  12.549   0.013  0.00  0.00    -0.491 OA
ENDBRANCH   3  11
BRANCH   8  12
ATOM     12  O   UNL     1       8.023  11.310  -0.017  0.00  0.00    -0.502 OA
ATOM     13  H   UNL     1       8.343  11.531  -0.902  0.00  0.00    +0.292 HD
ENDBRANCH   8  12
ENDBRANCH   1   5
BRANCH   2  14
ATOM     14  N   UNL     1       2.245   6.160   0.012  0.00  0.00    -0.203 N 
ATOM     15  C   UNL     1       2.325   4.815   0.005  0.00  0.00    +0.265 C 
ATOM     16  O   UNL     1       3.412   4.271  -0.009  0.00  0.00    -0.268 OA
ATOM     17  H   UNL     1       1.377   6.595   0.023  0.00  0.00    +0.178 HD
BRANCH  15  18
ATOM     18  C   UNL     1       1.092   4.001   0.013  0.00  0.00    +0.057 A 
ATOM     19  C   UNL     1       1.161   2.603   0.005  0.00  0.00    +0.031 A 
ATOM     20  C   UNL     1      -0.024   1.887   0.012  0.00  0.00    +0.037 A 
ATOM     21  C   UNL     1      -1.228   2.570   0.022  0.00  0.00    +0.126 A 
ATOM     22  N   UNL     1      -1.262   3.889   0.034  0.00  0.00    -0.261 NA
ATOM     23  C   UNL     1      -0.162   4.614   0.027  0.00  0.00    +0.123 A 
ATOM     24 BR   UNL     1       0.002  -0.004   0.002  0.00  0.00    -0.049 Br
ENDBRANCH  15  18
ENDBRANCH   2  14
TORSDOF 5
