REMARK  Name = ZINC40317979
REMARK  14 active torsions:
REMARK  status: ('A' for Active; 'I' for Inactive)
REMARK    1  A    between atoms: C_1  and  O_2
REMARK    2  A    between atoms: O_2  and  C_3
REMARK    3  A    between atoms: C_6  and  C_11
REMARK    4  A    between atoms: C_8  and  O_9
REMARK    5  A    between atoms: O_9  and  C_10
REMARK    6  A    between atoms: C_11  and  N_12
REMARK    7  A    between atoms: N_12  and  C_13
REMARK    8  A    between atoms: N_12  and  C_19
REMARK    9  A    between atoms: C_13  and  C_14
REMARK   10  A    between atoms: C_19  and  C_20
REMARK   11  A    between atoms: C_20  and  C_22
REMARK   12  A    between atoms: C_20  and  O_32
REMARK   13  A    between atoms: C_22  and  O_23
REMARK   14  A    between atoms: O_23  and  C_24
REMARK                            x       y       z     vdW  Elec       q    Type
REMARK                         _______ _______ _______ _____ _____    ______ ____
ROOT
ATOM      1  N   UNL     1       3.621  -2.817  -4.264  0.00  0.00    +0.389 N 
ATOM      2  H   UNL     1       3.919  -3.516  -3.600  0.00  0.00    -0.081 HD
ENDROOT
BRANCH   1   3
ATOM      3  C   UNL     1       2.215  -2.473  -4.015  0.00  0.00    -0.042 C 
BRANCH   3   7
ATOM      4  C   UNL     1      -0.143  -6.040  -3.999  0.00  0.00    +0.161 A 
ATOM      5  C   UNL     1       0.524  -5.642  -2.852  0.00  0.00    +0.049 A 
ATOM      6  C   UNL     1       1.286  -4.489  -2.860  0.00  0.00    +0.005 A 
ATOM      7  C   UNL     1       1.384  -3.730  -4.012  0.00  0.00    -0.060 A 
ATOM      8  C   UNL     1       0.720  -4.121  -5.160  0.00  0.00    +0.051 A 
ATOM      9  C   UNL     1      -0.040  -5.280  -5.159  0.00  0.00    +0.162 A 
BRANCH   4  11
ATOM     10  C   UNL     1      -1.043  -7.846  -2.739  0.00  0.00    +0.277 C 
ATOM     11  O   UNL     1      -0.893  -7.175  -3.992  0.00  0.00    -0.491 OA
ENDBRANCH   4  11
BRANCH   9  12
ATOM     12  O   UNL     1      -0.689  -5.669  -6.289  0.00  0.00    -0.491 OA
ATOM     13  C   UNL     1      -0.538  -4.840  -7.443  0.00  0.00    +0.277 C 
ENDBRANCH   9  12
ENDBRANCH   3   7
ENDBRANCH   1   3
BRANCH   1  14
ATOM     14  C   UNL     1       4.453  -1.615  -4.114  0.00  0.00    -0.003 C 
BRANCH  14  15
ATOM     15  C   UNL     1       4.290  -1.061  -2.723  0.00  0.00    +0.089 A 
ATOM     16  C   UNL     1       5.067  -1.353  -1.664  0.00  0.00    +0.042 A 
ATOM     17  C   UNL     1       4.560  -0.617  -0.568  0.00  0.00    +0.041 A 
ATOM     18  C   UNL     1       3.503   0.080  -1.023  0.00  0.00    +0.195 A 
ATOM     19  O   UNL     1       3.348  -0.189  -2.330  0.00  0.00    -0.470 OA
ENDBRANCH  14  15
ENDBRANCH   1  14
BRANCH   1  20
ATOM     20  C   UNL     1       3.763  -3.344  -5.628  0.00  0.00    -0.043 C 
BRANCH  20  21
ATOM     21  C   UNL     1       5.173  -3.908  -5.813  0.00  0.00    +0.135 C 
BRANCH  21  22
ATOM     22  O   UNL     1       6.120  -2.837  -5.801  0.00  0.00    -0.390 OA
ATOM     23  H   UNL     1       5.981  -2.182  -6.499  0.00  0.00    +0.210 HD
ENDBRANCH  21  22
BRANCH  21  24
ATOM     24  C   UNL     1       5.256  -4.647  -7.150  0.00  0.00    +0.258 C 
BRANCH  24  25
ATOM     25  O   UNL     1       6.535  -5.272  -7.270  0.00  0.00    -0.488 OA
BRANCH  25  26
ATOM     26  C   UNL     1       6.773  -5.975  -8.409  0.00  0.00    +0.139 A 
ATOM     27  C   UNL     1       5.798  -6.057  -9.392  0.00  0.00    +0.048 A 
ATOM     28  C   UNL     1       6.042  -6.772 -10.549  0.00  0.00    +0.023 A 
ATOM     29  C   UNL     1       7.258  -7.407 -10.727  0.00  0.00    +0.043 A 
ATOM     30  C   UNL     1       8.233  -7.327  -9.749  0.00  0.00    +0.043 A 
ATOM     31  C   UNL     1       7.995  -6.608  -8.592  0.00  0.00    +0.084 A 
ATOM     32 CL   UNL     1       9.221  -6.502  -7.367  0.00  0.00    -0.080 Cl
ATOM     33 CL   UNL     1       7.561  -8.306 -12.181  0.00  0.00    -0.083 Cl
ENDBRANCH  25  26
ENDBRANCH  24  25
ENDBRANCH  21  24
ENDBRANCH  20  21
ENDBRANCH   1  20
TORSDOF 12
