REMARK  Name = ZINC21321872
REMARK  10 active torsions:
REMARK  status: ('A' for Active; 'I' for Inactive)
REMARK    1  A    between atoms: C_1  and  C_2
REMARK    2  A    between atoms: C_2  and  N_3
REMARK    3  A    between atoms: N_3  and  C_4
REMARK    4  A    between atoms: C_4  and  C_5
REMARK    5  A    between atoms: C_6  and  C_8
REMARK    6  A    between atoms: C_12  and  N_14
REMARK    7  A    between atoms: C_15  and  C_17
REMARK    8  A    between atoms: C_17  and  S_18
REMARK    9  A    between atoms: S_18  and  C_19
REMARK   10  A    between atoms: C_19  and  C_20
REMARK                            x       y       z     vdW  Elec       q    Type
REMARK                         _______ _______ _______ _____ _____    ______ ____
ROOT
ATOM      1  N   UNL     1      -3.740  -2.993   3.943  0.00  0.00    -0.285 N 
ATOM      2  C   UNL     1      -4.955  -3.450   4.307  0.00  0.00    +0.227 C 
ATOM      3  O   UNL     1      -5.832  -3.568   3.477  0.00  0.00    -0.275 OA
ATOM      4  H   UNL     1      -3.017  -2.974   4.589  0.00  0.00    +0.155 HD
ENDROOT
BRANCH   1   9
ATOM      5  C   UNL     1      -4.332  -1.503   0.624  0.00  0.00    +0.039 A 
ATOM      6  C   UNL     1      -3.074  -1.667   0.040  0.00  0.00    +0.013 A 
ATOM      7  C   UNL     1      -2.056  -2.267   0.752  0.00  0.00    +0.003 A 
ATOM      8  C   UNL     1      -2.275  -2.706   2.045  0.00  0.00    +0.023 A 
ATOM      9  C   UNL     1      -3.523  -2.547   2.635  0.00  0.00    +0.034 A 
ATOM     10  C   UNL     1      -4.551  -1.941   1.930  0.00  0.00    +0.036 A 
BRANCH   5  12
ATOM     11  N   UNL     1      -5.581  -1.130  -1.448  0.00  0.00    -0.298 N 
ATOM     12  C   UNL     1      -5.425  -0.861  -0.137  0.00  0.00    +0.247 C 
ATOM     13  O   UNL     1      -6.183  -0.091   0.420  0.00  0.00    -0.270 OA
BRANCH  11  15
ATOM     14  C   UNL     1      -7.918  -1.264  -2.157  0.00  0.00    +0.024 C 
ATOM     15  C   UNL     1      -6.625  -0.448  -2.217  0.00  0.00    +0.104 C 
ENDBRANCH  11  15
BRANCH  11  16
ATOM     16  C   UNL     1      -4.707  -2.104  -2.106  0.00  0.00    +0.104 C 
ATOM     17  C   UNL     1      -3.638  -1.366  -2.914  0.00  0.00    +0.024 C 
ENDBRANCH  11  16
ENDBRANCH   5  12
ENDBRANCH   1   9
BRANCH   2  18
ATOM     18  C   UNL     1      -5.224  -3.815   5.744  0.00  0.00    +0.165 C 
BRANCH  18  19
ATOM     19  S   UNL     1      -6.936  -4.392   5.911  0.00  0.00    -0.144 S 
BRANCH  19  20
ATOM     20  C   UNL     1      -7.096  -4.784   7.675  0.00  0.00    +0.143 C 
BRANCH  20  21
ATOM     21  C   UNL     1      -8.491  -5.282   7.954  0.00  0.00    +0.121 A 
ATOM     22  N   UNL     1      -8.833  -5.631   9.221  0.00  0.00    -0.310 N 
ATOM     23  H   UNL     1      -8.175  -5.554   9.929  0.00  0.00    +0.170 HD
ATOM     24  C   UNL     1     -10.068  -6.081   9.514  0.00  0.00    +0.260 A 
ATOM     25  O   UNL     1     -10.361  -6.390  10.656  0.00  0.00    -0.267 OA
ATOM     26  C   UNL     1     -11.031  -6.189   8.459  0.00  0.00    +0.075 A 
ATOM     27  C   UNL     1     -12.425  -6.650   8.547  0.00  0.00    -0.023 A 
ATOM     28  C   UNL     1     -13.133  -6.662   7.405  0.00  0.00    -0.004 A 
ATOM     29  S   UNL     1     -12.011  -6.067   6.161  0.00  0.00    -0.073 S 
ATOM     30  C   UNL     1     -10.588  -5.806   7.186  0.00  0.00    +0.116 A 
ATOM     31  N   UNL     1      -9.350  -5.365   6.973  0.00  0.00    -0.226 NA
ATOM     32  C   UNL     1     -14.540  -7.156   7.614  0.00  0.00    +0.043 C 
ATOM     33  C   UNL     1     -14.501  -7.868   8.984  0.00  0.00    +0.010 C 
ATOM     34  C   UNL     1     -13.328  -7.147   9.678  0.00  0.00    +0.037 C 
ENDBRANCH  20  21
ENDBRANCH  19  20
ENDBRANCH  18  19
ENDBRANCH   2  18
TORSDOF 8
