REMARK  Name = ZINC64046527
REMARK  9 active torsions:
REMARK  status: ('A' for Active; 'I' for Inactive)
REMARK    1  A    between atoms: C_4  and  C_7
REMARK    2  A    between atoms: C_7  and  O_8
REMARK    3  A    between atoms: O_8  and  C_9
REMARK    4  A    between atoms: N_11  and  C_12
REMARK    5  A    between atoms: C_12  and  C_14
REMARK    6  A    between atoms: C_12  and  C_24
REMARK    7  A    between atoms: C_14  and  C_15
REMARK    8  A    between atoms: N_26  and  C_27
REMARK    9  A    between atoms: C_27  and  C_28
REMARK                            x       y       z     vdW  Elec       q    Type
REMARK                         _______ _______ _______ _____ _____    ______ ____
ROOT
ATOM      1  C   UNL     1       7.040  -2.566   2.880  0.00  0.00    +0.166 C 
ENDROOT
BRANCH   1   4
ATOM      2  C   UNL     1       5.308  -1.599   1.465  0.00  0.00    +0.401 C 
ATOM      3  O   UNL     1       5.944  -1.955   0.493  0.00  0.00    -0.226 OA
ATOM      4  N   UNL     1       5.770  -1.857   2.704  0.00  0.00    -0.270 N 
ATOM      5  H   UNL     1       5.263  -1.572   3.481  0.00  0.00    +0.153 HD
BRANCH   2   6
ATOM      6  O   UNL     1       4.141  -0.946   1.304  0.00  0.00    -0.446 OA
BRANCH   6   7
ATOM      7  C   UNL     1       3.711  -0.707  -0.038  0.00  0.00    +0.269 C 
BRANCH   7  11
ATOM      8  C   UNL     1      -0.017   1.378   0.010  0.00  0.00    +0.000 A 
ATOM      9  C   UNL     1       1.171   2.086   0.002  0.00  0.00    +0.000 A 
ATOM     10  C   UNL     1       2.377   1.411  -0.013  0.00  0.00    +0.007 A 
ATOM     11  C   UNL     1       2.396   0.029  -0.020  0.00  0.00    -0.010 A 
ATOM     12  C   UNL     1       1.208  -0.679  -0.012  0.00  0.00    +0.007 A 
ATOM     13  C   UNL     1       0.002  -0.004   0.002  0.00  0.00    +0.000 A 
ENDBRANCH   7  11
ENDBRANCH   6   7
ENDBRANCH   2   6
ENDBRANCH   1   4
BRANCH   1  14
ATOM     14  C   UNL     1       7.048  -3.258   4.218  0.00  0.00    +0.234 C 
ATOM     15  O   UNL     1       6.088  -3.167   4.954  0.00  0.00    -0.274 OA
ATOM     16  N   UNL     1       8.122  -3.978   4.599  0.00  0.00    -0.307 N 
ATOM     17  H   UNL     1       8.890  -4.051   4.010  0.00  0.00    +0.149 HD
BRANCH  16  18
ATOM     18  C   UNL     1       8.130  -4.650   5.900  0.00  0.00    +0.181 C 
BRANCH  18  19
ATOM     19  C   UNL     1       9.436  -5.380   6.080  0.00  0.00    +0.155 A 
ATOM     20  N   UNL     1       9.688  -6.614   5.726  0.00  0.00    -0.132 NA
ATOM     21  N   UNL     1      10.900  -6.925   6.023  0.00  0.00    -0.129 NA
ATOM     22  C   UNL     1      11.495  -5.889   6.592  0.00  0.00    +0.161 A 
ATOM     23  N   UNL     1      10.571  -4.875   6.636  0.00  0.00    -0.285 N 
ATOM     24  C   UNL     1      10.899  -3.664   7.170  0.00  0.00    +0.094 A 
ATOM     25  C   UNL     1      12.136  -3.443   7.661  0.00  0.00    +0.018 A 
ATOM     26  C   UNL     1      13.105  -4.461   7.627  0.00  0.00    +0.005 A 
ATOM     27  C   UNL     1      12.789  -5.677   7.104  0.00  0.00    +0.048 A 
ENDBRANCH  18  19
ENDBRANCH  16  18
ENDBRANCH   1  14
BRANCH   1  28
ATOM     28  C   UNL     1       8.196  -1.567   2.815  0.00  0.00    +0.065 C 
BRANCH  28  29
ATOM     29  C   UNL     1       8.263  -0.965   1.435  0.00  0.00    -0.039 C 
ATOM     30  C   UNL     1       7.714   0.203   1.029  0.00  0.00    -0.001 A 
ATOM     31  C   UNL     1       6.920   1.222   1.725  0.00  0.00    +0.010 A 
ATOM     32  C   UNL     1       6.501   2.309   1.038  0.00  0.00    +0.001 A 
ATOM     33  C   UNL     1       6.805   2.485  -0.319  0.00  0.00    +0.002 A 
ATOM     34  C   UNL     1       7.530   1.593  -1.026  0.00  0.00    +0.026 A 
ATOM     35  C   UNL     1       8.022   0.413  -0.403  0.00  0.00    +0.043 A 
ATOM     36  N   UNL     1       8.734  -0.586  -0.866  0.00  0.00    -0.380 N 
ATOM     37  C   UNL     1       8.963  -1.541   0.224  0.00  0.00    +0.144 C 
ATOM     38  H   UNL     1       9.058  -0.677  -1.775  0.00  0.00    +0.160 HD
ENDBRANCH  28  29
ENDBRANCH   1  28
TORSDOF 9
