REMARK  Name = ZINC20680950
REMARK  6 active torsions:
REMARK  status: ('A' for Active; 'I' for Inactive)
REMARK    1  A    between atoms: C_1  and  C_2
REMARK    2  A    between atoms: C_5  and  C_29
REMARK    3  A    between atoms: N_8  and  C_10
REMARK    4  A    between atoms: C_10  and  C_12
REMARK    5  A    between atoms: C_10  and  C_13
REMARK    6  A    between atoms: N_18  and  C_19
REMARK                            x       y       z     vdW  Elec       q    Type
REMARK                         _______ _______ _______ _____ _____    ______ ____
ROOT
ATOM      1  C   UNL     1      -2.798   7.772  -1.920  0.00  0.00    +0.207 C 
ATOM      2  O   UNL     1      -3.662   7.181  -2.531  0.00  0.00    -0.277 OA
ATOM      3  N   UNL     1      -1.877   7.081  -1.219  0.00  0.00    -0.242 N 
ATOM      4  C   UNL     1      -1.917   5.734  -1.198  0.00  0.00    +0.306 C 
ATOM      5  O   UNL     1      -2.784   5.142  -1.811  0.00  0.00    -0.252 OA
ATOM      6  N   UNL     1      -0.996   5.043  -0.497  0.00  0.00    -0.294 N 
ATOM      7  H   UNL     1      -1.093   7.617  -0.664  0.00  0.00    +0.159 HD
ATOM      8  H   UNL     1      -0.212   5.579   0.058  0.00  0.00    +0.151 HD
ENDROOT
BRANCH   6   9
ATOM      9  C   UNL     1      -1.040   3.579  -0.474  0.00  0.00    +0.037 C 
ATOM     10  C   UNL     1      -0.898   3.042  -1.899  0.00  0.00    +0.029 C 
ATOM     11  C   UNL     1      -0.944   1.513  -1.875  0.00  0.00    -0.008 C 
ATOM     12  C   UNL     1       0.203   0.982  -1.014  0.00  0.00    +0.007 C 
ATOM     13  C   UNL     1       0.062   1.519   0.412  0.00  0.00    -0.008 C 
ATOM     14  C   UNL     1       0.107   3.048   0.388  0.00  0.00    +0.029 C 
ATOM     15  C   UNL     1      -1.273   1.058   1.000  0.00  0.00    +0.007 C 
ATOM     16  C   UNL     1      -2.421   1.589   0.139  0.00  0.00    -0.008 C 
ATOM     17  C   UNL     1      -2.279   1.052  -1.287  0.00  0.00    +0.007 C 
ATOM     18  C   UNL     1      -2.375   3.118   0.115  0.00  0.00    +0.029 C 
ENDBRANCH   6   9
BRANCH   1  19
ATOM     19  C   UNL     1      -2.753   9.278  -1.944  0.00  0.00    +0.017 C 
ATOM     20  C   UNL     1      -3.533   9.830  -0.749  0.00  0.00    -0.004 C 
BRANCH  19  26
ATOM     21  C   UNL     1      -2.518   9.260  -6.856  0.00  0.00    +0.005 C 
ATOM     22  C   UNL     1      -3.327   9.714  -5.639  0.00  0.00    -0.031 C 
ATOM     23  C   UNL     1      -3.489  11.237  -5.672  0.00  0.00    +0.003 C 
ATOM     24  C   UNL     1      -4.247  11.688  -4.421  0.00  0.00    -0.031 C 
ATOM     25  C   UNL     1      -3.485  11.229  -3.175  0.00  0.00    -0.075 C 
ATOM     26  N   UNL     1      -3.357   9.766  -3.191  0.00  0.00    +0.387 N 
ATOM     27  C   UNL     1      -2.592   9.312  -4.359  0.00  0.00    -0.075 C 
ATOM     28  C   UNL     1      -4.362  13.214  -4.416  0.00  0.00    +0.005 C 
ATOM     29  H   UNL     1      -4.369   9.342  -3.267  0.00  0.00    -0.081 HD
ENDBRANCH  19  26
ENDBRANCH   1  19
TORSDOF 3
