REMARK  Name = ZINC39860000
REMARK  6 active torsions:
REMARK  status: ('A' for Active; 'I' for Inactive)
REMARK    1  A    between atoms: C_1  and  C_2
REMARK    2  A    between atoms: C_6  and  N_9
REMARK    3  A    between atoms: C_7  and  C_8
REMARK    4  A    between atoms: C_13  and  C_14
REMARK    5  A    between atoms: C_13  and  C_15
REMARK    6  A    between atoms: C_19  and  N_21
REMARK                            x       y       z     vdW  Elec       q    Type
REMARK                         _______ _______ _______ _____ _____    ______ ____
ROOT
ATOM      1  N   UNL     1       0.050  -2.798   2.395  0.00  0.00    -0.196 N 
ATOM      2  C   UNL     1      -1.097  -3.145   2.955  0.00  0.00    +0.265 C 
ATOM      3  O   UNL     1      -2.166  -2.864   2.447  0.00  0.00    -0.269 OA
ATOM      4  C   UNL     1      -1.012  -3.891   4.228  0.00  0.00    +0.083 C 
ATOM      5  C   UNL     1      -2.006  -4.370   5.016  0.00  0.00    -0.024 C 
ATOM      6  C   UNL     1      -3.446  -4.162   4.624  0.00  0.00    +0.045 C 
ATOM      7  S   UNL     1       0.760  -3.989   4.441  0.00  0.00    -0.025 S 
ATOM      8  C   UNL     1       1.234  -3.116   2.957  0.00  0.00    +0.290 C 
ATOM      9  O   UNL     1       2.353  -2.868   2.553  0.00  0.00    -0.262 OA
ENDROOT
BRANCH   1  15
ATOM     10  C   UNL     1      -0.018   1.503   0.010  0.00  0.00    +0.044 C 
ATOM     11  C   UNL     1       0.002  -0.004   0.002  0.00  0.00    -0.046 A 
ATOM     12  C   UNL     1       0.006  -0.688  -1.200  0.00  0.00    +0.004 A 
ATOM     13  C   UNL     1       0.024  -2.071  -1.212  0.00  0.00    +0.002 A 
ATOM     14  C   UNL     1       0.039  -2.773  -0.022  0.00  0.00    +0.024 A 
ATOM     15  C   UNL     1       0.035  -2.089   1.186  0.00  0.00    +0.048 A 
ATOM     16  C   UNL     1       0.023  -0.700   1.194  0.00  0.00    -0.026 A 
ATOM     17  C   UNL     1       0.026   0.046   2.504  0.00  0.00    +0.046 C 
ENDBRANCH   1  15
BRANCH   5  18
ATOM     18  C   UNL     1      -1.678  -5.092   6.255  0.00  0.00    -0.019 A 
ATOM     19  C   UNL     1      -1.002  -6.316   6.197  0.00  0.00    +0.008 A 
ATOM     20  C   UNL     1      -0.697  -6.990   7.360  0.00  0.00    +0.002 A 
ATOM     21  C   UNL     1      -1.055  -6.461   8.587  0.00  0.00    +0.023 A 
ATOM     22  C   UNL     1      -1.727  -5.246   8.657  0.00  0.00    +0.025 A 
ATOM     23  C   UNL     1      -2.034  -4.555   7.495  0.00  0.00    +0.031 A 
BRANCH  22  24
ATOM     24  N   UNL     1      -2.087  -4.717   9.899  0.00  0.00    -0.358 N 
ATOM     25  H   UNL     1      -1.868  -5.199  10.713  0.00  0.00    +0.142 HD
ATOM     26  H   UNL     1      -2.555  -3.869   9.948  0.00  0.00    +0.142 HD
ENDBRANCH  22  24
ENDBRANCH   5  18
TORSDOF 3
