REMARK  Name = ZINC14152218
REMARK  6 active torsions:
REMARK  status: ('A' for Active; 'I' for Inactive)
REMARK    1  A    between atoms: C_1  and  C_2
REMARK    2  A    between atoms: C_5  and  C_7
REMARK    3  A    between atoms: C_8  and  C_9
REMARK    4  A    between atoms: C_8  and  C_11
REMARK    5  A    between atoms: N_13  and  C_14
REMARK    6  A    between atoms: C_15  and  C_23
REMARK                            x       y       z     vdW  Elec       q    Type
REMARK                         _______ _______ _______ _____ _____    ______ ____
ROOT
ATOM      1  C   UNL     1      -2.278   7.221  -2.923  0.00  0.00    +0.259 C 
ATOM      2  O   UNL     1      -2.260   6.336  -3.758  0.00  0.00    -0.269 OA
ATOM      3  N   UNL     1      -1.964   6.945  -1.641  0.00  0.00    -0.274 N 
ATOM      4  H   UNL     1      -1.979   7.650  -0.976  0.00  0.00    +0.156 HD
ENDROOT
BRANCH   3   5
ATOM      5  C   UNL     1      -1.621   5.653  -1.274  0.00  0.00    +0.090 A 
ATOM      6  C   UNL     1      -1.271   5.177  -0.019  0.00  0.00    +0.084 A 
ATOM      7  C   UNL     1      -0.951   3.765   0.100  0.00  0.00    -0.018 A 
ATOM      8  C   UNL     1      -1.032   3.059  -1.049  0.00  0.00    -0.004 A 
ATOM      9  S   UNL     1      -1.524   4.240  -2.273  0.00  0.00    -0.077 S 
ATOM     10  C   UNL     1      -0.761   1.597  -1.232  0.00  0.00    +0.043 C 
ATOM     11  C   UNL     1      -0.013   1.086   0.008  0.00  0.00    +0.005 C 
ATOM     12  C   UNL     1      -0.735   1.583   1.264  0.00  0.00    +0.005 C 
ATOM     13  C   UNL     1      -0.551   3.094   1.407  0.00  0.00    +0.037 C 
BRANCH   6  14
ATOM     14  C   UNL     1      -1.226   6.047   1.118  0.00  0.00    +0.102 C 
ATOM     15  N   UNL     1      -1.191   6.736   2.020  0.00  0.00    -0.191 NA
ENDBRANCH   6  14
ENDBRANCH   3   5
BRANCH   1  17
ATOM     16  C   UNL     1      -2.964   8.873  -4.629  0.00  0.00    +0.070 C 
ATOM     17  C   UNL     1      -2.642   8.589  -3.311  0.00  0.00    +0.117 C 
BRANCH  16  22
ATOM     18  C   UNL     1      -3.920  13.722  -4.326  0.00  0.00    +0.086 C 
ATOM     19  C   UNL     1      -3.740  12.334  -4.885  0.00  0.00    +0.103 A 
ATOM     20  C   UNL     1      -3.924  11.979  -6.178  0.00  0.00    +0.045 A 
ATOM     21  C   UNL     1      -3.656  10.608  -6.274  0.00  0.00    +0.049 A 
ATOM     22  C   UNL     1      -3.313  10.184  -5.001  0.00  0.00    +0.129 A 
ATOM     23  O   UNL     1      -3.379  11.254  -4.180  0.00  0.00    -0.461 OA
ENDBRANCH  16  22
BRANCH  17  24
ATOM     24  C   UNL     1      -2.664   9.630  -2.328  0.00  0.00    +0.104 C 
ATOM     25  N   UNL     1      -2.681  10.457  -1.549  0.00  0.00    -0.191 NA
ENDBRANCH  17  24
ENDBRANCH   1  17
TORSDOF 5
