REMARK  Name = ZINC39361841
REMARK  9 active torsions:
REMARK  status: ('A' for Active; 'I' for Inactive)
REMARK    1  A    between atoms: C_1  and  C_2
REMARK    2  A    between atoms: C_5  and  C_34
REMARK    3  A    between atoms: C_6  and  N_8
REMARK    4  A    between atoms: C_9  and  C_25
REMARK    5  A    between atoms: C_13  and  S_14
REMARK    6  A    between atoms: S_14  and  C_15
REMARK    7  A    between atoms: C_15  and  C_16
REMARK    8  A    between atoms: C_21  and  C_24
REMARK    9  A    between atoms: C_25  and  C_26
REMARK                            x       y       z     vdW  Elec       q    Type
REMARK                         _______ _______ _______ _____ _____    ______ ____
ROOT
ATOM      1  N   UNL     1       0.051  -2.797   2.391  0.00  0.00    -0.258 N 
ATOM      2  C   UNL     1       1.241  -3.223   3.147  0.00  0.00    +0.187 C 
ATOM      3  N   UNL     1       0.684  -3.920   4.319  0.00  0.00    -0.246 N 
ATOM      4  N   UNL     1      -0.708  -3.862   4.183  0.00  0.00    -0.162 NA
ATOM      5  C   UNL     1      -1.052  -3.231   3.111  0.00  0.00    +0.180 C 
ATOM      6  H   UNL     1       1.182  -4.336   5.041  0.00  0.00    +0.170 HD
ENDROOT
BRANCH   1  12
ATOM      7  C   UNL     1      -0.018   1.503   0.010  0.00  0.00    +0.044 C 
ATOM      8  C   UNL     1       0.002  -0.004   0.002  0.00  0.00    -0.049 A 
ATOM      9  C   UNL     1       0.006  -0.688  -1.200  0.00  0.00    +0.004 A 
ATOM     10  C   UNL     1       0.025  -2.071  -1.212  0.00  0.00    +0.005 A 
ATOM     11  C   UNL     1       0.040  -2.773  -0.023  0.00  0.00    -0.029 A 
ATOM     12  C   UNL     1       0.036  -2.089   1.186  0.00  0.00    +0.041 A 
ATOM     13  C   UNL     1       0.023  -0.700   1.194  0.00  0.00    +0.027 A 
ATOM     14  C   UNL     1       0.059  -4.280  -0.037  0.00  0.00    +0.045 C 
ENDBRANCH   1  12
BRANCH   5  15
ATOM     15  S   UNL     1      -2.722  -2.958   2.620  0.00  0.00    -0.079 S 
BRANCH  15  16
ATOM     16  C   UNL     1      -3.700  -3.739   3.933  0.00  0.00    +0.173 C 
BRANCH  16  17
ATOM     17  C   UNL     1      -5.167  -3.576   3.632  0.00  0.00    +0.226 C 
ATOM     18  O   UNL     1      -5.519  -2.990   2.630  0.00  0.00    -0.275 OA
ATOM     19  N   UNL     1      -6.089  -4.081   4.476  0.00  0.00    -0.301 N 
ATOM     20  C   UNL     1      -5.678  -4.787   5.697  0.00  0.00    +0.108 C 
ATOM     21  C   UNL     1      -6.380  -4.146   6.898  0.00  0.00    +0.022 C 
ATOM     22  C   UNL     1      -7.891  -4.136   6.655  0.00  0.00    -0.011 C 
ATOM     23  C   UNL     1      -8.204  -3.303   5.411  0.00  0.00    +0.022 C 
ATOM     24  C   UNL     1      -7.523  -3.929   4.196  0.00  0.00    +0.108 C 
ATOM     25  C   UNL     1      -8.598  -3.527   7.868  0.00  0.00    +0.007 C 
ENDBRANCH  16  17
ENDBRANCH  15  16
ENDBRANCH   5  15
BRANCH   2  26
ATOM     26  C   UNL     1       2.098  -4.174   2.310  0.00  0.00    +0.097 C 
BRANCH  26  27
ATOM     27  C   UNL     1       3.307  -4.593   3.106  0.00  0.00    +0.029 A 
ATOM     28  N   UNL     1       4.425  -3.805   3.124  0.00  0.00    -0.311 N 
ATOM     29  C   UNL     1       5.509  -4.171   3.832  0.00  0.00    +0.327 A 
ATOM     30  O   UNL     1       6.493  -3.455   3.834  0.00  0.00    -0.247 OA
ATOM     31  N   UNL     1       5.521  -5.317   4.538  0.00  0.00    -0.275 N 
ATOM     32  C   UNL     1       4.439  -6.121   4.545  0.00  0.00    +0.254 A 
ATOM     33  O   UNL     1       4.448  -7.158   5.184  0.00  0.00    -0.268 OA
ATOM     34  C   UNL     1       3.289  -5.746   3.809  0.00  0.00    +0.091 A 
ATOM     35  H   UNL     1       6.311  -5.565   5.043  0.00  0.00    +0.173 HD
ATOM     36  H   UNL     1       4.437  -2.976   2.622  0.00  0.00    +0.170 HD
ENDBRANCH  26  27
ENDBRANCH   2  26
TORSDOF 6
