REMARK  Name = ZINC20757076
REMARK  8 active torsions:
REMARK  status: ('A' for Active; 'I' for Inactive)
REMARK    1  A    between atoms: C_1  and  C_2
REMARK    2  A    between atoms: C_2  and  C_3
REMARK    3  A    between atoms: C_3  and  C_4
REMARK    4  A    between atoms: C_4  and  C_5
REMARK    5  A    between atoms: C_5  and  C_6
REMARK    6  A    between atoms: C_6  and  N_7
REMARK    7  A    between atoms: C_9  and  C_16
REMARK    8  A    between atoms: N_30  and  C_31
REMARK                            x       y       z     vdW  Elec       q    Type
REMARK                         _______ _______ _______ _____ _____    ______ ____
ROOT
ATOM      1  N   UNL     1      -0.952  -4.280  -1.470  0.00  0.00    -0.261 N 
ATOM      2  C   UNL     1      -1.078  -3.267  -0.553  0.00  0.00    +0.262 A 
ATOM      3  C   UNL     1      -1.109  -1.974  -0.982  0.00  0.00    +0.074 A 
ATOM      4  C   UNL     1      -0.998  -1.708  -2.359  0.00  0.00    +0.260 A 
ATOM      5  O   UNL     1      -1.017  -0.559  -2.765  0.00  0.00    -0.267 OA
ATOM      6  N   UNL     1      -0.870  -2.732  -3.225  0.00  0.00    -0.275 N 
ATOM      7  H   UNL     1      -0.783  -2.523  -4.302  0.00  0.00    +0.173 HD
ATOM      8  C   UNL     1      -0.847  -4.002  -2.783  0.00  0.00    +0.332 A 
ATOM      9  O   UNL     1      -0.731  -4.912  -3.580  0.00  0.00    -0.246 OA
ATOM     10  O   UNL     1      -1.177  -3.550   0.763  0.00  0.00    -0.267 OA
ENDROOT
BRANCH   3  11
ATOM     11  C   UNL     1      -1.253  -0.844   0.005  0.00  0.00    +0.021 C 
ATOM     12  C   UNL     1       0.002  -0.004   0.002  0.00  0.00    +0.011 A 
ATOM     13  C   UNL     1      -0.016   1.348   0.009  0.00  0.00    -0.022 A 
ATOM     14  C   UNL     1       1.359   1.794  -0.001  0.00  0.00    +0.003 A 
ATOM     15  C   UNL     1       1.948   3.063  -0.001  0.00  0.00    +0.010 A 
ATOM     16  C   UNL     1       3.320   3.111  -0.014  0.00  0.00    +0.001 A 
ATOM     17  C   UNL     1       4.097   1.964  -0.025  0.00  0.00    +0.002 A 
ATOM     18  C   UNL     1       3.542   0.697  -0.026  0.00  0.00    +0.026 A 
ATOM     19  C   UNL     1       2.151   0.616  -0.014  0.00  0.00    +0.047 A 
ATOM     20  N   UNL     1       1.296  -0.449  -0.011  0.00  0.00    -0.359 N 
ATOM     21  H   UNL     1       1.506  -1.529  -0.017  0.00  0.00    +0.166 HD
ATOM     22  C   UNL     1      -1.285   2.163   0.032  0.00  0.00    +0.019 C 
ATOM     23  C   UNL     1      -2.439   1.234   0.430  0.00  0.00    -0.073 C 
ATOM     24  N   UNL     1      -2.387   0.010  -0.383  0.00  0.00    +0.387 N 
ATOM     25  C   UNL     1      -3.654  -0.729  -0.303  0.00  0.00    -0.095 C 
ATOM     26  H   UNL     1      -2.236   0.312  -1.429  0.00  0.00    -0.081 HD
ENDBRANCH   3  11
BRANCH   1  27
ATOM     27  C   UNL     1      -0.924  -5.673  -1.017  0.00  0.00    +0.130 C 
BRANCH  27  28
ATOM     28  C   UNL     1       0.520  -6.087  -0.730  0.00  0.00    +0.022 C 
BRANCH  28  29
ATOM     29  C   UNL     1       0.549  -7.542  -0.256  0.00  0.00    +0.002 C 
BRANCH  29  30
ATOM     30  C   UNL     1       1.994  -7.956   0.030  0.00  0.00    -0.000 C 
BRANCH  30  32
ATOM     31  C   UNL     1       3.467  -9.826   0.791  0.00  0.00    +0.004 C 
ATOM     32  C   UNL     1       2.022  -9.411   0.504  0.00  0.00    -0.003 C 
ENDBRANCH  30  32
ENDBRANCH  29  30
ENDBRANCH  28  29
ENDBRANCH  27  28
ENDBRANCH   1  27
TORSDOF 6
