REMARK  Name = ZINC64137501
REMARK  11 active torsions:
REMARK  status: ('A' for Active; 'I' for Inactive)
REMARK    1  A    between atoms: C_1  and  C_2
REMARK    2  A    between atoms: C_5  and  C_8
REMARK    3  A    between atoms: N_14  and  C_15
REMARK    4  A    between atoms: C_15  and  C_16
REMARK    5  A    between atoms: C_16  and  C_17
REMARK    6  A    between atoms: N_19  and  C_20
REMARK    7  A    between atoms: C_20  and  C_22
REMARK    8  A    between atoms: C_20  and  C_32
REMARK    9  A    between atoms: C_22  and  C_23
REMARK   10  A    between atoms: C_32  and  O_34
REMARK   11  A    between atoms: O_34  and  C_35
REMARK                            x       y       z     vdW  Elec       q    Type
REMARK                         _______ _______ _______ _____ _____    ______ ____
ROOT
ATOM      1  C   UNL     1      -0.980  -4.002   4.516  0.00  0.00    +0.215 C 
ATOM      2  O   UNL     1       0.097  -3.637   4.938  0.00  0.00    -0.276 OA
ATOM      3  N   UNL     1      -2.081  -3.884   5.285  0.00  0.00    -0.302 N 
ATOM      4  H   UNL     1      -2.942  -4.176   4.947  0.00  0.00    +0.150 HD
ENDROOT
BRANCH   1   5
ATOM      5  C   UNL     1      -1.088  -4.587   3.131  0.00  0.00    +0.117 C 
BRANCH   5   6
ATOM      6  C   UNL     1       0.295  -4.607   2.477  0.00  0.00    +0.135 C 
BRANCH   6  13
ATOM      7  C   UNL     1       0.069  -4.239  -0.020  0.00  0.00    +0.163 A 
ATOM      8  H   UNL     1      -0.023  -7.107  -1.248  0.00  0.00    +0.191 HD
ATOM      9  N   UNL     1      -0.017  -4.989  -1.082  0.00  0.00    -0.153 NA
ATOM     10  N   UNL     1       0.023  -6.329  -0.671  0.00  0.00    -0.254 N 
ATOM     11  C   UNL     1       0.137  -6.338   0.672  0.00  0.00    +0.176 A 
ATOM     12  S   UNL     1       0.227  -7.726   1.670  0.00  0.00    -0.011 S 
ATOM     13  N   UNL     1       0.172  -5.056   1.088  0.00  0.00    -0.303 N 
BRANCH   7  18
ATOM     14  C   UNL     1       0.050   1.517   0.037  0.00  0.00    +0.044 C 
ATOM     15  C   UNL     1       0.055   0.010   0.022  0.00  0.00    -0.050 A 
ATOM     16  C   UNL     1       0.399  -0.666  -1.135  0.00  0.00    +0.004 A 
ATOM     17  C   UNL     1       0.406  -2.046  -1.155  0.00  0.00    +0.012 A 
ATOM     18  C   UNL     1       0.065  -2.759  -0.005  0.00  0.00    +0.019 A 
ATOM     19  C   UNL     1      -0.281  -2.071   1.158  0.00  0.00    +0.012 A 
ATOM     20  C   UNL     1      -0.279  -0.691   1.167  0.00  0.00    +0.004 A 
ENDBRANCH   7  18
ENDBRANCH   6  13
ENDBRANCH   5   6
ENDBRANCH   1   5
BRANCH   3  21
ATOM     21  C   UNL     1      -1.976  -3.316   6.631  0.00  0.00    +0.186 C 
BRANCH  21  22
ATOM     22  C   UNL     1      -1.587  -4.398   7.605  0.00  0.00    +0.328 C 
ATOM     23  O   UNL     1      -1.415  -5.529   7.215  0.00  0.00    -0.249 OA
BRANCH  22  24
ATOM     24  O   UNL     1      -1.432  -4.106   8.906  0.00  0.00    -0.467 OA
ATOM     25  C   UNL     1      -1.063  -5.181   9.772  0.00  0.00    +0.280 C 
ENDBRANCH  22  24
ENDBRANCH  21  22
BRANCH  21  26
ATOM     26  C   UNL     1      -3.326  -2.722   7.040  0.00  0.00    +0.067 C 
BRANCH  26  27
ATOM     27  C   UNL     1      -3.656  -1.559   6.141  0.00  0.00    -0.039 C 
ATOM     28  C   UNL     1      -4.420  -1.586   5.025  0.00  0.00    -0.001 A 
ATOM     29  C   UNL     1      -5.143  -2.664   4.340  0.00  0.00    +0.010 A 
ATOM     30  C   UNL     1      -5.837  -2.378   3.215  0.00  0.00    +0.001 A 
ATOM     31  C   UNL     1      -5.883  -1.080   2.688  0.00  0.00    +0.002 A 
ATOM     32  C   UNL     1      -5.245  -0.037   3.260  0.00  0.00    +0.026 A 
ATOM     33  C   UNL     1      -4.485  -0.224   4.448  0.00  0.00    +0.043 A 
ATOM     34  N   UNL     1      -3.788   0.612   5.179  0.00  0.00    -0.380 N 
ATOM     35  C   UNL     1      -3.207  -0.125   6.307  0.00  0.00    +0.144 C 
ATOM     36  H   UNL     1      -3.678   1.560   5.005  0.00  0.00    +0.160 HD
ENDBRANCH  26  27
ENDBRANCH  21  26
ENDBRANCH   3  21
TORSDOF 9
