REMARK  Name = ZINC16426727
REMARK  12 active torsions:
REMARK  status: ('A' for Active; 'I' for Inactive)
REMARK    1  A    between atoms: C_1  and  C_2
REMARK    2  A    between atoms: C_2  and  C_3
REMARK    3  A    between atoms: C_6  and  C_9
REMARK    4  A    between atoms: C_14  and  C_24
REMARK    5  A    between atoms: C_16  and  C_20
REMARK    6  A    between atoms: C_17  and  C_19
REMARK    7  A    between atoms: C_20  and  O_22
REMARK    8  A    between atoms: O_22  and  C_23
REMARK    9  A    between atoms: C_26  and  O_32
REMARK   10  A    between atoms: C_27  and  O_31
REMARK   11  A    between atoms: O_32  and  C_33
REMARK   12  A    between atoms: C_33  and  C_34
REMARK                            x       y       z     vdW  Elec       q    Type
REMARK                         _______ _______ _______ _____ _____    ______ ____
ROOT
ATOM      1  C   UNL     1       2.478  -7.490   2.674  0.00  0.00    +0.032 C 
ATOM      2  C   UNL     1       2.169  -7.938   1.244  0.00  0.00    +0.059 C 
ATOM      3  C   UNL     1       1.055  -7.093   0.678  0.00  0.00    +0.016 C 
ATOM      4  C   UNL     1       0.890  -5.810   1.064  0.00  0.00    +0.024 C 
ATOM      5  C   UNL     1      -0.219  -4.968   0.485  0.00  0.00    +0.092 C 
ATOM      6  C   UNL     1      -1.269  -5.829  -0.155  0.00  0.00    +0.065 C 
ATOM      7  C   UNL     1      -1.019  -7.106  -0.484  0.00  0.00    +0.016 C 
ATOM      8  N   UNL     1       0.207  -7.658  -0.237  0.00  0.00    -0.321 N 
ATOM      9  C   UNL     1      -2.096  -7.938  -1.131  0.00  0.00    +0.061 C 
ATOM     10  C   UNL     1       1.743  -5.223   2.015  0.00  0.00    +0.162 C 
ATOM     11  O   UNL     1       1.573  -4.063   2.333  0.00  0.00    -0.292 OA
ATOM     12  C   UNL     1       2.862  -6.006   2.647  0.00  0.00    +0.088 C 
ATOM     13  H   UNL     1       0.511  -8.564  -0.782  0.00  0.00    +0.152 HD
ENDROOT
BRANCH   5  14
ATOM     14  C   UNL     1       0.357  -4.037  -0.551  0.00  0.00    -0.030 A 
ATOM     15  C   UNL     1       0.254  -2.669  -0.382  0.00  0.00    +0.054 A 
ATOM     16  C   UNL     1       0.777  -1.811  -1.336  0.00  0.00    +0.163 A 
ATOM     17  C   UNL     1       1.416  -2.329  -2.458  0.00  0.00    +0.177 A 
ATOM     18  C   UNL     1       1.521  -3.702  -2.619  0.00  0.00    +0.086 A 
ATOM     19  C   UNL     1       0.991  -4.553  -1.665  0.00  0.00    +0.028 A 
ATOM     20 CL   UNL     1       2.318  -4.354  -4.017  0.00  0.00    -0.080 Cl
BRANCH  17  21
ATOM     21  O   UNL     1       1.937  -1.491  -3.394  0.00  0.00    -0.502 OA
ATOM     22  H   UNL     1       2.442  -1.903  -4.281  0.00  0.00    +0.292 HD
ENDBRANCH  17  21
BRANCH  16  23
ATOM     23  O   UNL     1       0.671  -0.465  -1.174  0.00  0.00    -0.489 OA
BRANCH  23  24
ATOM     24  C   UNL     1       0.002  -0.004   0.002  0.00  0.00    +0.226 C 
ATOM     25  C   UNL     1      -0.019   1.526   0.010  0.00  0.00    +0.048 C 
ENDBRANCH  23  24
ENDBRANCH  16  23
ENDBRANCH   5  14
BRANCH   1  29
ATOM     26  C   UNL     1       5.729  -9.785   4.226  0.00  0.00    -0.048 A 
ATOM     27  C   UNL     1       4.505  -9.798   4.868  0.00  0.00    +0.004 A 
ATOM     28  C   UNL     1       3.453  -9.056   4.366  0.00  0.00    +0.004 A 
ATOM     29  C   UNL     1       3.625  -8.299   3.222  0.00  0.00    -0.043 A 
ATOM     30  C   UNL     1       4.848  -8.290   2.577  0.00  0.00    +0.004 A 
ATOM     31  C   UNL     1       5.902  -9.028   3.082  0.00  0.00    +0.004 A 
BRANCH  26  33
ATOM     32  C   UNL     1       6.855 -11.993   4.153  0.00  0.00    +0.009 C 
ATOM     33  C   UNL     1       6.876 -10.595   4.773  0.00  0.00    +0.032 C 
ENDBRANCH  26  33
ENDBRANCH   1  29
BRANCH   6  34
ATOM     34  C   UNL     1      -2.548  -5.284  -0.415  0.00  0.00    +0.337 C 
ATOM     35  O   UNL     1      -3.408  -5.972  -0.933  0.00  0.00    -0.245 OA
BRANCH  34  36
ATOM     36  O   UNL     1      -2.815  -4.002  -0.089  0.00  0.00    -0.465 OA
ATOM     37  C   UNL     1      -4.128  -3.518  -0.380  0.00  0.00    +0.280 C 
ENDBRANCH  34  36
ENDBRANCH   6  34
TORSDOF 8
