REMARK  Name = ZINC54379796
REMARK  4 active torsions:
REMARK  status: ('A' for Active; 'I' for Inactive)
REMARK    1  A    between atoms: C_1  and  N_2
REMARK    2  A    between atoms: N_2  and  C_3
REMARK    3  A    between atoms: C_3  and  C_4
REMARK    4  A    between atoms: C_12  and  C_17
REMARK                            x       y       z     vdW  Elec       q    Type
REMARK                         _______ _______ _______ _____ _____    ______ ____
ROOT
ATOM      1  C   UNL     1       0.069   0.403   1.050  0.00  0.00    +0.131 C 
ATOM      2  N   UNL     1       0.241  -0.795   0.225  0.00  0.00    -0.312 N 
ATOM      3  C   UNL     1       0.212  -0.695  -1.154  0.00  0.00    +0.150 A 
ATOM      4  C   UNL     1       1.367  -0.316  -1.858  0.00  0.00    +0.141 A 
ATOM      5  N   UNL     1       1.328  -0.223  -3.184  0.00  0.00    -0.247 NA
ATOM      6  C   UNL     1       0.211  -0.486  -3.831  0.00  0.00    +0.131 A 
ATOM      7  C   UNL     1      -0.930  -0.860  -3.136  0.00  0.00    +0.132 A 
ATOM      8  N   UNL     1      -0.905  -0.962  -1.820  0.00  0.00    -0.237 NA
ENDROOT
BRANCH   4   9
ATOM      9  C   UNL     1       2.619  -0.022  -1.129  0.00  0.00    +0.116 C 
ATOM     10  N   UNL     1       2.947  -0.737  -0.054  0.00  0.00    -0.385 N 
ATOM     11  N   UNL     1       3.418   0.959  -1.546  0.00  0.00    -0.343 N 
ATOM     12  H   UNL     1       2.425  -1.518   0.187  0.00  0.00    +0.157 HD
ATOM     13  H   UNL     1       3.178   1.480  -2.328  0.00  0.00    +0.144 HD
ATOM     14  H   UNL     1       4.239   1.152  -1.067  0.00  0.00    +0.144 HD
ATOM     15  H   UNL     1       3.708  -0.476   0.488  0.00  0.00    +0.157 HD
ENDBRANCH   4   9
BRANCH   2  16
ATOM     16  C   UNL     1       0.442  -2.099   0.861  0.00  0.00    +0.142 C 
BRANCH  16  17
ATOM     17  C   UNL     1      -0.895  -2.693   1.224  0.00  0.00    -0.016 A 
ATOM     18  C   UNL     1      -1.429  -2.479   2.481  0.00  0.00    +0.006 A 
ATOM     19  C   UNL     1      -2.655  -3.024   2.813  0.00  0.00    +0.000 A 
ATOM     20  C   UNL     1      -3.349  -3.782   1.888  0.00  0.00    +0.001 A 
ATOM     21  C   UNL     1      -2.816  -3.997   0.631  0.00  0.00    +0.015 A 
ATOM     22  C   UNL     1      -1.591  -3.448   0.296  0.00  0.00    +0.023 A 
ATOM     23 BR   UNL     1      -0.865  -3.735  -1.426  0.00  0.00    -0.050 Br
ENDBRANCH  16  17
ENDBRANCH   2  16
TORSDOF 3
