REMARK  Name = ZINC22920947
REMARK  10 active torsions:
REMARK  status: ('A' for Active; 'I' for Inactive)
REMARK    1  A    between atoms: C_1  and  C_2
REMARK    2  A    between atoms: C_2  and  O_3
REMARK    3  A    between atoms: O_3  and  C_4
REMARK    4  A    between atoms: C_4  and  C_6
REMARK    5  A    between atoms: C_7  and  C_37
REMARK    6  A    between atoms: C_13  and  C_17
REMARK    7  A    between atoms: C_17  and  N_18
REMARK    8  A    between atoms: N_21  and  C_24
REMARK    9  A    between atoms: C_24  and  C_25
REMARK   10  A    between atoms: C_24  and  C_31
REMARK                            x       y       z     vdW  Elec       q    Type
REMARK                         _______ _______ _______ _____ _____    ______ ____
ROOT
ATOM      1  N   UNL     1      -2.056  -1.933   3.140  0.00  0.00    +0.386 N 
ATOM      2  C   UNL     1      -2.391  -2.242   1.743  0.00  0.00    -0.063 C 
ATOM      3  C   UNL     1      -1.257  -1.767   0.832  0.00  0.00    +0.067 C 
ATOM      4  N   UNL     1      -1.058  -0.323   1.015  0.00  0.00    -0.295 NA
ATOM      5  C   UNL     1      -0.723  -0.013   2.412  0.00  0.00    +0.067 C 
ATOM      6  C   UNL     1      -1.857  -0.488   3.323  0.00  0.00    -0.063 C 
ATOM      7  H   UNL     1      -1.110  -2.439   3.383  0.00  0.00    -0.081 HD
ENDROOT
BRANCH   1   8
ATOM      8  C   UNL     1      -3.087  -2.442   4.054  0.00  0.00    -0.003 C 
BRANCH   8  16
ATOM      9  C   UNL     1      -1.857  -8.562   3.038  0.00  0.00    +0.102 A 
ATOM     10  C   UNL     1      -2.887  -8.083   3.795  0.00  0.00    -0.015 A 
ATOM     11  C   UNL     1      -3.056  -6.706   3.946  0.00  0.00    +0.076 A 
ATOM     12  C   UNL     1      -4.088  -5.968   4.710  0.00  0.00    +0.260 A 
ATOM     13  O   UNL     1      -4.954  -6.563   5.327  0.00  0.00    -0.267 OA
ATOM     14  N   UNL     1      -4.042  -4.621   4.710  0.00  0.00    -0.312 N 
ATOM     15  H   UNL     1      -4.790  -4.045   5.275  0.00  0.00    +0.170 HD
ATOM     16  C   UNL     1      -3.086  -3.948   4.023  0.00  0.00    +0.094 A 
ATOM     17  N   UNL     1      -2.162  -4.568   3.340  0.00  0.00    -0.229 NA
ATOM     18  C   UNL     1      -2.113  -5.892   3.278  0.00  0.00    +0.116 A 
ATOM     19  S   UNL     1      -1.050  -7.070   2.482  0.00  0.00    -0.062 S 
ATOM     20  C   UNL     1      -3.839  -9.040   4.466  0.00  0.00    +0.046 C 
BRANCH   9  21
ATOM     21  C   UNL     1      -1.502  -9.954   2.752  0.00  0.00    +0.346 C 
ATOM     22  O   UNL     1      -2.168 -10.859   3.218  0.00  0.00    -0.244 OA
BRANCH  21  23
ATOM     23  O   UNL     1      -0.437 -10.232   1.973  0.00  0.00    -0.461 OA
BRANCH  23  25
ATOM     24  C   UNL     1       1.089 -11.750   0.834  0.00  0.00    +0.048 C 
ATOM     25  C   UNL     1      -0.144 -11.634   1.732  0.00  0.00    +0.229 C 
ENDBRANCH  23  25
ENDBRANCH  21  23
ENDBRANCH   9  21
ENDBRANCH   8  16
ENDBRANCH   1   8
BRANCH   4  26
ATOM     26  C   UNL     1      -0.027   0.187   0.101  0.00  0.00    +0.117 C 
BRANCH  26  27
ATOM     27  C   UNL     1       0.149   1.668   0.317  0.00  0.00    -0.026 A 
ATOM     28  C   UNL     1      -0.955   2.471   0.532  0.00  0.00    +0.005 A 
ATOM     29  C   UNL     1      -0.793   3.829   0.735  0.00  0.00    +0.000 A 
ATOM     30  C   UNL     1       0.472   4.385   0.713  0.00  0.00    +0.000 A 
ATOM     31  C   UNL     1       1.576   3.582   0.492  0.00  0.00    +0.000 A 
ATOM     32  C   UNL     1       1.415   2.224   0.294  0.00  0.00    +0.005 A 
ENDBRANCH  26  27
BRANCH  26  33
ATOM     33  C   UNL     1      -0.449  -0.066  -1.324  0.00  0.00    -0.026 A 
ATOM     34  C   UNL     1      -1.770   0.104  -1.694  0.00  0.00    +0.005 A 
ATOM     35  C   UNL     1      -2.156  -0.123  -3.002  0.00  0.00    +0.000 A 
ATOM     36  C   UNL     1      -1.224  -0.531  -3.937  0.00  0.00    +0.000 A 
ATOM     37  C   UNL     1       0.096  -0.707  -3.566  0.00  0.00    +0.000 A 
ATOM     38  C   UNL     1       0.484  -0.474  -2.259  0.00  0.00    +0.005 A 
ENDBRANCH  26  33
ENDBRANCH   4  26
TORSDOF 8
