REMARK  Name = ZINC03314605
REMARK  8 active torsions:
REMARK  status: ('A' for Active; 'I' for Inactive)
REMARK    1  A    between atoms: C_1  and  C_2
REMARK    2  A    between atoms: C_2  and  C_3
REMARK    3  A    between atoms: C_3  and  C_4
REMARK    4  A    between atoms: C_4  and  C_25
REMARK    5  A    between atoms: N_7  and  C_11
REMARK    6  A    between atoms: C_11  and  C_12
REMARK    7  A    between atoms: C_21  and  C_24
REMARK    8  A    between atoms: C_22  and  C_23
REMARK                            x       y       z     vdW  Elec       q    Type
REMARK                         _______ _______ _______ _____ _____    ______ ____
ROOT
ATOM      1  C   UNL     1      -3.881   0.801  -3.535  0.00  0.00    +0.138 C 
ATOM      2  C   UNL     1      -3.277   0.221  -2.272  0.00  0.00    +0.251 C 
ATOM      3  O   UNL     1      -2.825  -0.894  -2.122  0.00  0.00    -0.272 OA
ATOM      4  N   UNL     1      -3.345   1.202  -1.351  0.00  0.00    -0.220 N 
ATOM      5  C   UNL     1      -3.907   2.309  -1.850  0.00  0.00    +0.310 C 
ATOM      6  O   UNL     1      -4.081   3.326  -1.208  0.00  0.00    -0.252 OA
ATOM      7  N   UNL     1      -4.255   2.171  -3.142  0.00  0.00    -0.281 N 
ATOM      8  H   UNL     1      -4.673   2.841  -3.704  0.00  0.00    +0.152 HD
ENDROOT
BRANCH   1   9
ATOM      9  C   UNL     1      -5.097   0.015  -3.951  0.00  0.00    -0.015 A 
ATOM     10  C   UNL     1      -4.966  -1.053  -4.819  0.00  0.00    +0.006 A 
ATOM     11  C   UNL     1      -6.082  -1.777  -5.197  0.00  0.00    +0.000 A 
ATOM     12  C   UNL     1      -7.329  -1.427  -4.715  0.00  0.00    +0.000 A 
ATOM     13  C   UNL     1      -7.461  -0.356  -3.851  0.00  0.00    +0.000 A 
ATOM     14  C   UNL     1      -6.345   0.365  -3.469  0.00  0.00    +0.006 A 
ENDBRANCH   1   9
BRANCH   1  15
ATOM     15  C   UNL     1      -2.847   0.828  -4.663  0.00  0.00    +0.040 C 
BRANCH  15  17
ATOM     16  C   UNL     1      -0.709   1.860  -5.442  0.00  0.00    +0.004 C 
ATOM     17  C   UNL     1      -1.691   1.752  -4.274  0.00  0.00    -0.000 C 
ENDBRANCH  15  17
ENDBRANCH   1  15
BRANCH   4  18
ATOM     18  C   UNL     1      -2.869   1.071   0.028  0.00  0.00    +0.154 C 
BRANCH  18  19
ATOM     19  C   UNL     1      -1.444   1.553   0.116  0.00  0.00    -0.012 A 
ATOM     20  C   UNL     1      -0.838   2.134  -0.951  0.00  0.00    +0.098 A 
ATOM     21  C   UNL     1       0.496   2.583  -0.841  0.00  0.00    +0.338 A 
ATOM     22  O   UNL     1       1.026   3.108  -1.804  0.00  0.00    -0.245 OA
ATOM     23  O   UNL     1       1.195   2.447   0.296  0.00  0.00    -0.422 OA
ATOM     24  C   UNL     1       0.653   1.873   1.391  0.00  0.00    +0.142 A 
ATOM     25  C   UNL     1      -0.672   1.403   1.353  0.00  0.00    +0.023 A 
ATOM     26  C   UNL     1      -1.235   0.809   2.486  0.00  0.00    +0.012 A 
ATOM     27  C   UNL     1      -0.492   0.688   3.628  0.00  0.00    +0.004 A 
ATOM     28  C   UNL     1       0.815   1.150   3.670  0.00  0.00    -0.044 A 
ATOM     29  C   UNL     1       1.389   1.739   2.562  0.00  0.00    -0.005 A 
ATOM     30  C   UNL     1       2.810   2.236   2.621  0.00  0.00    +0.048 C 
ATOM     31  C   UNL     1       1.616   1.007   4.938  0.00  0.00    +0.044 C 
ENDBRANCH  18  19
ENDBRANCH   4  18
TORSDOF 5
