REMARK  Name = ZINC10591219
REMARK  7 active torsions:
REMARK  status: ('A' for Active; 'I' for Inactive)
REMARK    1  A    between atoms: C_3  and  C_6
REMARK    2  A    between atoms: N_11  and  S_14
REMARK    3  A    between atoms: S_14  and  C_17
REMARK    4  A    between atoms: C_17  and  C_18
REMARK    5  A    between atoms: C_18  and  N_19
REMARK    6  A    between atoms: C_20  and  C_22
REMARK    7  A    between atoms: N_27  and  C_29
REMARK                            x       y       z     vdW  Elec       q    Type
REMARK                         _______ _______ _______ _____ _____    ______ ____
ROOT
ATOM      1  C   UNL     1       6.792   3.506  -0.033  0.00  0.00    +0.128 C 
ENDROOT
BRANCH   1   2
ATOM      2  N   UNL     1       7.198   3.542  -1.440  0.00  0.00    -0.313 N 
ATOM      3  C   UNL     1       8.433   3.966  -1.775  0.00  0.00    +0.218 C 
ATOM      4  O   UNL     1       9.208   4.317  -0.911  0.00  0.00    -0.275 OA
ATOM      5  H   UNL     1       6.577   3.261  -2.131  0.00  0.00    +0.149 HD
BRANCH   3   6
ATOM      6  C   UNL     1       8.850   4.003  -3.223  0.00  0.00    +0.101 C 
ATOM      7  C   UNL     1       8.817   2.587  -3.845  0.00  0.00    +0.110 C 
ATOM      8  C   UNL     1      10.229   2.072  -3.671  0.00  0.00    +0.221 C 
ATOM      9  O   UNL     1      10.561   0.910  -3.769  0.00  0.00    -0.275 OA
ATOM     10  N   UNL     1      11.061   3.091  -3.395  0.00  0.00    -0.271 N 
ATOM     11  C   UNL     1      10.344   4.371  -3.358  0.00  0.00    +0.127 C 
BRANCH  10  12
ATOM     12  C   UNL     1      12.435   2.949  -3.170  0.00  0.00    +0.036 A 
ATOM     13  C   UNL     1      13.042   1.710  -3.331  0.00  0.00    +0.025 A 
ATOM     14  C   UNL     1      14.399   1.574  -3.114  0.00  0.00    +0.022 A 
ATOM     15  C   UNL     1      15.152   2.668  -2.724  0.00  0.00    +0.041 A 
ATOM     16  C   UNL     1      14.549   3.902  -2.558  0.00  0.00    +0.022 A 
ATOM     17  C   UNL     1      13.193   4.045  -2.779  0.00  0.00    +0.025 A 
ATOM     18 CL   UNL     1      16.857   2.492  -2.446  0.00  0.00    -0.084 Cl
ENDBRANCH  10  12
ENDBRANCH   3   6
ENDBRANCH   1   2
BRANCH   1  19
ATOM     19  C   UNL     1       5.355   2.991   0.070  0.00  0.00    +0.204 C 
BRANCH  19  20
ATOM     20  S   UNL     1       4.853   2.946   1.813  0.00  0.00    +0.033 S 
ATOM     21  O   UNL     1       4.749   4.267   2.326  0.00  0.00    -0.158 OA
ATOM     22  O   UNL     1       5.593   1.954   2.510  0.00  0.00    -0.158 OA
BRANCH  20  28
ATOM     23  C   UNL     1      -0.234   0.993   0.557  0.00  0.00    +0.282 C 
ATOM     24  O   UNL     1      -0.444  -0.206   0.525  0.00  0.00    -0.267 OA
ATOM     25  N   UNL     1       1.032   1.455   0.574  0.00  0.00    -0.292 N 
ATOM     26  C   UNL     1       1.302   2.897   0.482  0.00  0.00    +0.125 C 
ATOM     27  C   UNL     1       2.163   3.307   1.690  0.00  0.00    +0.128 C 
ATOM     28  N   UNL     1       3.297   2.378   1.793  0.00  0.00    -0.178 NA
ATOM     29  C   UNL     1       3.027   0.936   1.878  0.00  0.00    +0.128 C 
ATOM     30  C   UNL     1       2.166   0.527   0.676  0.00  0.00    +0.125 C 
BRANCH  23  33
ATOM     31  C   UNL     1      -3.401   2.808   0.643  0.00  0.00    +0.042 A 
ATOM     32  C   UNL     1      -2.681   1.603   0.664  0.00  0.00    +0.054 A 
ATOM     33  C   UNL     1      -1.359   1.933   0.572  0.00  0.00    +0.189 A 
ATOM     34  O   UNL     1      -1.269   3.278   0.503  0.00  0.00    -0.458 OA
ATOM     35  C   UNL     1      -2.498   3.808   0.541  0.00  0.00    +0.196 A 
ENDBRANCH  23  33
ENDBRANCH  20  28
ENDBRANCH  19  20
ENDBRANCH   1  19
TORSDOF 7
