REMARK  Name = ZINC20047571
REMARK  4 active torsions:
REMARK  status: ('A' for Active; 'I' for Inactive)
REMARK    1  A    between atoms: C_3  and  O_17
REMARK    2  A    between atoms: C_6  and  N_7
REMARK    3  A    between atoms: N_7  and  C_8
REMARK    4  A    between atoms: O_17  and  C_18
REMARK                            x       y       z     vdW  Elec       q    Type
REMARK                         _______ _______ _______ _____ _____    ______ ____
ROOT
ATOM      1  C   UNL     1      -0.029   1.401   0.277  0.00  0.00    +0.026 A 
ATOM      2  C   UNL     1      -0.023   0.044   0.534  0.00  0.00    +0.048 A 
ATOM      3  C   UNL     1       1.174  -0.609   0.784  0.00  0.00    +0.130 A 
ATOM      4  C   UNL     1       2.367   0.099   0.777  0.00  0.00    +0.048 A 
ATOM      5  C   UNL     1       2.362   1.456   0.521  0.00  0.00    +0.026 A 
ATOM      6  C   UNL     1       1.164   2.111   0.270  0.00  0.00    +0.028 A 
ENDROOT
BRANCH   6   7
ATOM      7  N   UNL     1       1.159   3.486   0.009  0.00  0.00    -0.333 N 
ATOM      8  H   UNL     1       0.209   4.005  -0.189  0.00  0.00    +0.147 HD
BRANCH   7   9
ATOM      9  C   UNL     1       2.418   4.235   0.001  0.00  0.00    +0.157 C 
ATOM     10  C   UNL     1       2.212   5.579  -0.702  0.00  0.00    +0.032 C 
ATOM     11  C   UNL     1       0.823   6.124  -0.426  0.00  0.00    +0.004 C 
ATOM     12  C   UNL     1       0.594   6.512   1.023  0.00  0.00    +0.019 C 
ATOM     13  C   UNL     1       0.607   5.278   1.927  0.00  0.00    +0.104 C 
ATOM     14  N   UNL     1       1.998   4.993   2.315  0.00  0.00    -0.314 N 
ATOM     15  C   UNL     1       2.863   4.497   1.425  0.00  0.00    +0.233 C 
ATOM     16  O   UNL     1       4.006   4.260   1.753  0.00  0.00    -0.274 OA
ATOM     17  H   UNL     1       2.334   5.189   3.344  0.00  0.00    +0.149 HD
ENDBRANCH   7   9
ENDBRANCH   6   7
BRANCH   3  18
ATOM     18  O   UNL     1       1.179  -1.946   1.037  0.00  0.00    -0.406 OA
BRANCH  18  19
ATOM     19  C   UNL     1       2.448  -2.554   1.286  0.00  0.00    +0.575 C 
ATOM     20  F   UNL     1       3.040  -1.958   2.405  0.00  0.00    -0.133 F 
ATOM     21  F   UNL     1       2.271  -3.921   1.525  0.00  0.00    -0.133 F 
ATOM     22  F   UNL     1       3.276  -2.379   0.172  0.00  0.00    -0.133 F 
ENDBRANCH  18  19
ENDBRANCH   3  18
TORSDOF 4
