REMARK  Name = ZINC09135435
REMARK  11 active torsions:
REMARK  status: ('A' for Active; 'I' for Inactive)
REMARK    1  A    between atoms: C_1  and  C_2
REMARK    2  A    between atoms: C_5  and  N_11
REMARK    3  A    between atoms: C_6  and  N_8
REMARK    4  A    between atoms: C_12  and  C_14
REMARK    5  A    between atoms: N_16  and  C_17
REMARK    6  A    between atoms: C_17  and  C_18
REMARK    7  A    between atoms: C_18  and  C_20
REMARK    8  A    between atoms: C_18  and  N_61
REMARK    9  A    between atoms: N_29  and  C_30
REMARK   10  A    between atoms: C_31  and  N_61
REMARK   11  A    between atoms: C_32  and  N_61
REMARK                            x       y       z     vdW  Elec       q    Type
REMARK                         _______ _______ _______ _____ _____    ______ ____
ROOT
ATOM      1  C   UNL     1       1.677  -3.055   7.617  0.00  0.00    +0.299 C 
ATOM      2  O   UNL     1       0.480  -2.858   7.637  0.00  0.00    -0.265 OA
ATOM      3  N   UNL     1       2.415  -2.617   6.577  0.00  0.00    -0.309 N 
ATOM      4  H   UNL     1       3.372  -2.775   6.561  0.00  0.00    +0.149 HD
ENDROOT
BRANCH   1   6
ATOM      5  N   UNL     1       1.596  -4.222   9.783  0.00  0.00    -0.276 N 
ATOM      6  C   UNL     1       2.334  -3.784   8.743  0.00  0.00    +0.303 C 
ATOM      7  O   UNL     1       3.531  -3.981   8.723  0.00  0.00    -0.265 OA
ATOM      8  H   UNL     1       0.631  -4.121   9.770  0.00  0.00    +0.155 HD
BRANCH   5  13
ATOM      9  C   UNL     1       4.133  -6.657  14.232  0.00  0.00    +0.044 C 
ATOM     10  C   UNL     1       3.459  -6.010  13.050  0.00  0.00    -0.048 A 
ATOM     11  C   UNL     1       3.884  -6.305  11.767  0.00  0.00    +0.005 A 
ATOM     12  C   UNL     1       3.268  -5.714  10.681  0.00  0.00    +0.026 A 
ATOM     13  C   UNL     1       2.221  -4.822  10.879  0.00  0.00    +0.064 A 
ATOM     14  C   UNL     1       1.800  -4.525  12.169  0.00  0.00    +0.148 A 
ATOM     15  C   UNL     1       2.417  -5.123  13.250  0.00  0.00    +0.038 A 
BRANCH  14  16
ATOM     16  N   UNL     1       0.689  -3.571  12.385  0.00  0.00    +0.058 N 
ATOM     17  O   UNL     1       0.345  -3.282  13.517  0.00  0.00    -0.126 OA
ATOM     18  O   UNL     1       0.118  -3.075  11.430  0.00  0.00    -0.126 OA
ENDBRANCH  14  16
ENDBRANCH   5  13
ENDBRANCH   1   6
BRANCH   3  19
ATOM     19  C   UNL     1       1.772  -1.903   5.472  0.00  0.00    +0.094 C 
BRANCH  19  20
ATOM     20  C   UNL     1       2.802  -1.625   4.375  0.00  0.00    -0.021 C 
BRANCH  20  21
ATOM     21  C   UNL     1       2.153  -0.843   3.263  0.00  0.00    -0.059 A 
ATOM     22  C   UNL     1       0.953  -1.270   2.724  0.00  0.00    +0.004 A 
ATOM     23  C   UNL     1       0.362  -0.555   1.705  0.00  0.00    +0.023 A 
ATOM     24  C   UNL     1       0.968   0.602   1.211  0.00  0.00    +0.033 A 
ATOM     25  C   UNL     1       2.165   1.028   1.757  0.00  0.00    -0.026 A 
ATOM     26  C   UNL     1       2.755   0.301   2.780  0.00  0.00    +0.007 A 
ATOM     27  C   UNL     1       2.862   2.278   1.280  0.00  0.00    +0.038 C 
ATOM     28  C   UNL     1       2.280   2.709  -0.068  0.00  0.00    +0.024 C 
ATOM     29  C   UNL     1       0.751   2.672   0.044  0.00  0.00    +0.105 C 
ATOM     30  N   UNL     1       0.324   1.277   0.175  0.00  0.00    -0.333 N 
ATOM     31  C   UNL     1      -1.136   1.184   0.313  0.00  0.00    +0.129 C 
ENDBRANCH  20  21
BRANCH  20  34
ATOM     32  C   UNL     1       2.238  -3.900   3.766  0.00  0.00    -0.096 C 
ATOM     33  C   UNL     1       3.952  -2.708   2.540  0.00  0.00    -0.096 C 
ATOM     34  N   UNL     1       3.329  -2.908   3.866  0.00  0.00    +0.382 N 
ATOM     35  H   UNL     1       4.040  -3.259   4.518  0.00  0.00    -0.082 HD
ENDBRANCH  20  34
ENDBRANCH  19  20
ENDBRANCH   3  19
TORSDOF 7
