REMARK  Name = ZINC45939377
REMARK  6 active torsions:
REMARK  status: ('A' for Active; 'I' for Inactive)
REMARK    1  A    between atoms: C_1  and  C_2
REMARK    2  A    between atoms: C_3  and  N_22
REMARK    3  A    between atoms: C_7  and  S_8
REMARK    4  A    between atoms: S_8  and  N_11
REMARK    5  A    between atoms: N_11  and  N_12
REMARK    6  A    between atoms: C_13  and  C_15
REMARK                            x       y       z     vdW  Elec       q    Type
REMARK                         _______ _______ _______ _____ _____    ______ ____
ROOT
ATOM      1  S   UNL     1      -0.078   0.161   2.876  0.00  0.00    +0.074 S 
ATOM      2  O   UNL     1      -1.167   1.069   2.960  0.00  0.00    -0.152 OA
ATOM      3  O   UNL     1       0.142  -0.856   3.844  0.00  0.00    -0.152 OA
ENDROOT
BRANCH   1  10
ATOM      4  C   UNL     1       1.923  -1.845   1.817  0.00  0.00    +0.048 C 
ATOM      5  C   UNL     1       0.749  -1.553   0.919  0.00  0.00    +0.006 A 
ATOM      6  C   UNL     1       0.636  -2.193  -0.302  0.00  0.00    +0.131 A 
ATOM      7  C   UNL     1      -0.441  -1.925  -1.125  0.00  0.00    +0.033 A 
ATOM      8  C   UNL     1      -1.406  -1.018  -0.729  0.00  0.00    +0.004 A 
ATOM      9  C   UNL     1      -1.293  -0.379   0.491  0.00  0.00    +0.029 A 
ATOM     10  C   UNL     1      -0.218  -0.649   1.317  0.00  0.00    +0.112 A 
BRANCH   6  11
ATOM     11  N   UNL     1       1.669  -3.164  -0.726  0.00  0.00    +0.057 N 
ATOM     12  O   UNL     1       1.641  -3.628  -1.842  0.00  0.00    -0.126 OA
ATOM     13  O   UNL     1       2.541  -3.494   0.044  0.00  0.00    -0.126 OA
ENDBRANCH   6  11
ENDBRANCH   1  10
BRANCH   1  14
ATOM     14  N   UNL     1       1.300   1.077   2.829  0.00  0.00    -0.108 NA
ATOM     15  H   UNL     1       1.983   0.961   3.508  0.00  0.00    +0.172 HD
BRANCH  14  16
ATOM     16  N   UNL     1       1.480   2.020   1.808  0.00  0.00    -0.228 N 
ATOM     17  C   UNL     1       1.712   3.311   2.117  0.00  0.00    +0.259 C 
ATOM     18  O   UNL     1       1.854   3.643   3.278  0.00  0.00    -0.269 OA
ATOM     19  H   UNL     1       1.438   1.743   0.880  0.00  0.00    +0.171 HD
BRANCH  17  20
ATOM     20  C   UNL     1       1.794   4.324   1.045  0.00  0.00    +0.038 A 
ATOM     21  C   UNL     1       1.512   3.970  -0.277  0.00  0.00    +0.016 A 
ATOM     22  C   UNL     1       1.589   4.919  -1.273  0.00  0.00    +0.039 A 
ATOM     23  C   UNL     1       1.948   6.222  -0.966  0.00  0.00    +0.123 A 
ATOM     24  C   UNL     1       2.229   6.579   0.344  0.00  0.00    +0.039 A 
ATOM     25  C   UNL     1       2.148   5.640   1.349  0.00  0.00    +0.016 A 
ATOM     26  F   UNL     1       2.023   7.148  -1.947  0.00  0.00    -0.205 F 
ENDBRANCH  17  20
ENDBRANCH  14  16
ENDBRANCH   1  14
TORSDOF 5
