REMARK  Name = ZINC00121917
REMARK  4 active torsions:
REMARK  status: ('A' for Active; 'I' for Inactive)
REMARK    1  A    between atoms: C_1  and  S_2
REMARK    2  A    between atoms: S_2  and  C_3
REMARK    3  A    between atoms: C_4  and  C_24
REMARK    4  A    between atoms: C_5  and  C_15
REMARK                            x       y       z     vdW  Elec       q    Type
REMARK                         _______ _______ _______ _____ _____    ______ ____
ROOT
ATOM      1  C   UNL     1      -0.843   4.525   1.194  0.00  0.00    +0.092 C 
ATOM      2  C   UNL     1       0.440   4.077   1.247  0.00  0.00    +0.158 C 
ATOM      3  C   UNL     1       1.143   3.595   0.010  0.00  0.00    +0.077 C 
ATOM      4  C   UNL     1       0.447   4.084  -1.235  0.00  0.00    +0.025 C 
ATOM      5  C   UNL     1      -0.829   4.524  -1.189  0.00  0.00    +0.049 C 
ATOM      6  N   UNL     1      -1.515   4.553  -0.005  0.00  0.00    -0.248 NA
ATOM      7  C   UNL     1      -1.534   4.995  -2.438  0.00  0.00    +0.056 C 
ATOM      8  C   UNL     1      -0.517   5.604  -3.403  0.00  0.00    +0.014 C 
ATOM      9  C   UNL     1       0.543   4.547  -3.727  0.00  0.00    +0.080 C 
ATOM     10  C   UNL     1       1.164   4.068  -2.443  0.00  0.00    +0.162 C 
ATOM     11  O   UNL     1       2.309   3.659  -2.451  0.00  0.00    -0.292 OA
ENDROOT
BRANCH   3  12
ATOM     12  C   UNL     1       1.169   2.088   0.003  0.00  0.00    -0.034 A 
ATOM     13  C   UNL     1      -0.018   1.378   0.010  0.00  0.00    +0.008 A 
ATOM     14  C   UNL     1       0.001  -0.005   0.003  0.00  0.00    +0.050 A 
ATOM     15  C   UNL     1       1.209  -0.682  -0.012  0.00  0.00    +0.166 A 
ATOM     16  C   UNL     1       2.404   0.034  -0.019  0.00  0.00    +0.167 A 
ATOM     17  C   UNL     1       2.378   1.419  -0.012  0.00  0.00    +0.053 A 
ATOM     18  O   UNL     1       3.443  -0.852  -0.034  0.00  0.00    -0.453 OA
ATOM     19  C   UNL     1       2.872  -2.108  -0.448  0.00  0.00    +0.466 C 
ATOM     20  O   UNL     1       1.499  -2.016  -0.022  0.00  0.00    -0.453 OA
ENDBRANCH   3  12
BRANCH   1  22
ATOM     21  C   UNL     1      -3.261   5.526   1.991  0.00  0.00    +0.091 C 
ATOM     22  S   UNL     1      -1.645   5.070   2.666  0.00  0.00    -0.112 S 
ENDBRANCH   1  22
BRANCH   2  23
ATOM     23  C   UNL     1       1.130   4.061   2.501  0.00  0.00    +0.074 C 
ATOM     24  N   UNL     1       1.678   4.048   3.497  0.00  0.00    -0.196 NA
ENDBRANCH   2  23
TORSDOF 3
