REMARK  Name = ZINC14991174
REMARK  9 active torsions:
REMARK  status: ('A' for Active; 'I' for Inactive)
REMARK    1  A    between atoms: C_1  and  C_2
REMARK    2  A    between atoms: C_6  and  C_26
REMARK    3  A    between atoms: C_16  and  N_57
REMARK    4  A    between atoms: C_20  and  C_21
REMARK    5  A    between atoms: C_20  and  N_57
REMARK    6  A    between atoms: C_21  and  C_22
REMARK    7  A    between atoms: C_21  and  C_23
REMARK    8  A    between atoms: C_21  and  C_24
REMARK    9  A    between atoms: C_24  and  O_25
REMARK                            x       y       z     vdW  Elec       q    Type
REMARK                         _______ _______ _______ _____ _____    ______ ____
ROOT
ATOM      1  C   UNL     1       1.674   9.395  -0.063  0.00  0.00    +0.044 C 
ATOM      2  C   UNL     1       1.385   8.206  -0.943  0.00  0.00    -0.048 A 
ATOM      3  C   UNL     1       0.754   8.398  -2.170  0.00  0.00    +0.004 A 
ATOM      4  C   UNL     1       0.478   7.344  -2.989  0.00  0.00    +0.012 A 
ATOM      5  C   UNL     1       0.835   6.048  -2.590  0.00  0.00    +0.022 A 
ATOM      6  C   UNL     1       0.576   4.922  -3.394  0.00  0.00    +0.051 A 
ATOM      7  N   UNL     1       0.941   3.737  -2.951  0.00  0.00    -0.219 NA
ATOM      8  C   UNL     1       1.543   3.589  -1.772  0.00  0.00    +0.219 A 
ATOM      9  N   UNL     1       1.807   4.606  -0.975  0.00  0.00    -0.214 NA
ATOM     10  C   UNL     1       1.478   5.851  -1.341  0.00  0.00    +0.077 A 
ATOM     11  C   UNL     1       1.746   6.960  -0.525  0.00  0.00    +0.032 A 
ATOM     12  N   UNL     1       1.901   2.316  -1.365  0.00  0.00    -0.300 N 
ATOM     13  C   UNL     1       1.401   2.036  -0.000  0.00  0.00    +0.108 C 
ATOM     14  C   UNL     1      -0.019   1.539   0.011  0.00  0.00    +0.017 C 
ATOM     15  C   UNL     1       0.002  -0.004   0.002  0.00  0.00    -0.014 C 
ATOM     16  C   UNL     1       0.266  -0.544  -1.327  0.00  0.00    -0.070 C 
ATOM     17  C   UNL     1       1.640  -0.103  -1.873  0.00  0.00    +0.003 C 
ATOM     18  C   UNL     1       1.522   1.308  -2.380  0.00  0.00    +0.106 C 
ATOM     19  C   UNL     1      -0.105   5.069  -4.730  0.00  0.00    +0.066 C 
ENDROOT
BRANCH  16  20
ATOM     20  N   UNL     1       0.231  -2.017  -1.253  0.00  0.00    +0.381 N 
ATOM     21  H   UNL     1      -0.479  -2.305  -0.569  0.00  0.00    -0.086 HD
ATOM     22  H   UNL     1       1.151  -2.363  -0.958  0.00  0.00    -0.086 HD
BRANCH  20  23
ATOM     23  C   UNL     1      -0.104  -2.588  -2.571  0.00  0.00    -0.074 C 
BRANCH  23  24
ATOM     24  C   UNL     1      -0.133  -4.114  -2.463  0.00  0.00    -0.027 C 
ATOM     25  C   UNL     1       1.240  -4.620  -2.017  0.00  0.00    +0.011 C 
ATOM     26  C   UNL     1      -1.189  -4.533  -1.438  0.00  0.00    +0.011 C 
BRANCH  24  27
ATOM     27  C   UNL     1      -0.479  -4.715  -3.827  0.00  0.00    +0.160 C 
BRANCH  27  28
ATOM     28  O   UNL     1      -0.506  -6.140  -3.727  0.00  0.00    -0.395 OA
ATOM     29  H   UNL     1      -0.720  -6.589  -4.556  0.00  0.00    +0.209 HD
ENDBRANCH  27  28
ENDBRANCH  24  27
ENDBRANCH  23  24
ENDBRANCH  20  23
ENDBRANCH  16  20
TORSDOF 5
