REMARK  Name = ZINC20684485
REMARK  5 active torsions:
REMARK  status: ('A' for Active; 'I' for Inactive)
REMARK    1  A    between atoms: C_1  and  C_2
REMARK    2  A    between atoms: C_2  and  N_3
REMARK    3  A    between atoms: C_14  and  C_16
REMARK    4  A    between atoms: C_27  and  S_32
REMARK    5  A    between atoms: S_32  and  N_35
REMARK                            x       y       z     vdW  Elec       q    Type
REMARK                         _______ _______ _______ _____ _____    ______ ____
ROOT
ATOM      1  C   UNL     1      -8.292   1.183  -1.110  0.00  0.00    +0.105 C 
ATOM      2  C   UNL     1      -8.018   2.273  -2.131  0.00  0.00    +0.029 C 
ATOM      3  C   UNL     1      -8.461   2.030  -3.580  0.00  0.00    +0.033 C 
ATOM      4  C   UNL     1      -7.438   2.860  -4.358  0.00  0.00    -0.030 C 
ATOM      5  C   UNL     1      -6.321   2.983  -3.651  0.00  0.00    -0.023 C 
ATOM      6  C   UNL     1      -6.480   2.234  -2.378  0.00  0.00    +0.049 C 
ATOM      7  C   UNL     1      -5.810   2.661  -1.131  0.00  0.00    -0.018 A 
ATOM      8  C   UNL     1      -4.644   3.396  -1.132  0.00  0.00    +0.034 A 
ATOM      9  C   UNL     1      -4.044   3.752   0.062  0.00  0.00    +0.106 A 
ATOM     10  C   UNL     1      -4.618   3.379   1.263  0.00  0.00    +0.030 A 
ATOM     11  C   UNL     1      -5.791   2.652   1.274  0.00  0.00    +0.025 A 
ATOM     12  C   UNL     1      -6.403   2.289   0.081  0.00  0.00    +0.031 A 
ATOM     13  N   UNL     1      -7.610   1.580   0.117  0.00  0.00    -0.336 N 
ATOM     14  H   UNL     1      -8.043   1.323   1.095  0.00  0.00    +0.147 HD
ENDROOT
BRANCH   1  26
ATOM     15  N   UNL     1     -13.849   0.509  -0.361  0.00  0.00    -0.340 N 
ATOM     16  C   UNL     1     -14.099  -0.591  -1.162  0.00  0.00    +0.050 A 
ATOM     17  C   UNL     1     -15.264  -1.298  -1.445  0.00  0.00    +0.026 A 
ATOM     18  C   UNL     1     -15.224  -2.380  -2.297  0.00  0.00    +0.002 A 
ATOM     19  C   UNL     1     -14.030  -2.775  -2.880  0.00  0.00    +0.001 A 
ATOM     20  C   UNL     1     -12.866  -2.087  -2.612  0.00  0.00    +0.010 A 
ATOM     21  C   UNL     1     -12.891  -0.992  -1.752  0.00  0.00    +0.008 A 
ATOM     22  C   UNL     1     -11.857  -0.061  -1.263  0.00  0.00    +0.008 A 
ATOM     23  C   UNL     1     -12.507   0.842  -0.409  0.00  0.00    +0.050 A 
ATOM     24  C   UNL     1     -11.770   1.848   0.207  0.00  0.00    +0.027 A 
ATOM     25  C   UNL     1     -10.414   1.950  -0.024  0.00  0.00    +0.007 A 
ATOM     26  C   UNL     1      -9.774   1.057  -0.869  0.00  0.00    -0.026 A 
ATOM     27  C   UNL     1     -10.489   0.057  -1.493  0.00  0.00    +0.016 A 
BRANCH  15  29
ATOM     28  C   UNL     1     -15.470   2.339  -0.418  0.00  0.00    +0.027 C 
ATOM     29  C   UNL     1     -14.860   1.218   0.426  0.00  0.00    +0.119 C 
ENDBRANCH  15  29
ENDBRANCH   1  26
BRANCH   9  30
ATOM     30  S   UNL     1      -2.550   4.687   0.052  0.00  0.00    +0.061 S 
ATOM     31  O   UNL     1      -2.486   5.363   1.300  0.00  0.00    -0.153 OA
ATOM     32  O   UNL     1      -2.510   5.376  -1.190  0.00  0.00    -0.153 OA
BRANCH  30  33
ATOM     33  N   UNL     1      -1.296   3.606   0.034  0.00  0.00    -0.177 NA
ATOM     34  C   UNL     1      -0.741   3.124  -1.238  0.00  0.00    +0.109 C 
ATOM     35  C   UNL     1      -0.752   1.593  -1.232  0.00  0.00    +0.017 C 
ATOM     36  C   UNL     1      -0.013   1.086   0.008  0.00  0.00    +0.003 C 
ATOM     37  C   UNL     1      -0.729   1.579   1.268  0.00  0.00    +0.017 C 
ATOM     38  C   UNL     1      -0.717   3.111   1.290  0.00  0.00    +0.109 C 
ENDBRANCH  30  33
ENDBRANCH   9  30
TORSDOF 4
