REMARK  Name = ZINC09465721
REMARK  9 active torsions:
REMARK  status: ('A' for Active; 'I' for Inactive)
REMARK    1  A    between atoms: C_1  and  N_62
REMARK    2  A    between atoms: C_2  and  C_3
REMARK    3  A    between atoms: C_2  and  N_62
REMARK    4  A    between atoms: C_8  and  O_13
REMARK    5  A    between atoms: O_13  and  C_14
REMARK    6  A    between atoms: C_15  and  N_16
REMARK    7  A    between atoms: C_15  and  N_62
REMARK    8  A    between atoms: C_19  and  C_23
REMARK    9  A    between atoms: C_19  and  C_29
REMARK                            x       y       z     vdW  Elec       q    Type
REMARK                         _______ _______ _______ _____ _____    ______ ____
ROOT
ATOM      1  N   UNL     1       0.639   2.217   0.657  0.00  0.00    -0.241 N 
ATOM      2  C   UNL     1       1.960   1.960   0.728  0.00  0.00    +0.254 C 
ATOM      3  O   UNL     1       2.809   2.633   1.273  0.00  0.00    -0.272 OA
ATOM      4  C   UNL     1       2.165   0.655  -0.015  0.00  0.00    +0.164 C 
ATOM      5  N   UNL     1       0.808   0.294  -0.461  0.00  0.00    -0.278 N 
ATOM      6  C   UNL     1      -0.012   1.265  -0.021  0.00  0.00    +0.308 C 
ATOM      7  O   UNL     1      -1.212   1.277  -0.218  0.00  0.00    -0.252 OA
ATOM      8  H   UNL     1       0.556  -0.491  -0.972  0.00  0.00    +0.152 HD
ENDROOT
BRANCH   4   9
ATOM      9  C   UNL     1       2.718  -0.400   0.908  0.00  0.00    -0.011 A 
ATOM     10  C   UNL     1       2.127  -1.648   0.965  0.00  0.00    +0.006 A 
ATOM     11  C   UNL     1       2.637  -2.617   1.808  0.00  0.00    +0.000 A 
ATOM     12  C   UNL     1       3.732  -2.335   2.602  0.00  0.00    +0.000 A 
ATOM     13  C   UNL     1       4.321  -1.085   2.550  0.00  0.00    +0.000 A 
ATOM     14  C   UNL     1       3.813  -0.117   1.703  0.00  0.00    +0.006 A 
ENDBRANCH   4   9
BRANCH   4  15
ATOM     15  C   UNL     1       3.077   0.853  -1.198  0.00  0.00    -0.011 A 
ATOM     16  C   UNL     1       4.310   1.454  -1.028  0.00  0.00    +0.006 A 
ATOM     17  C   UNL     1       5.148   1.631  -2.113  0.00  0.00    +0.000 A 
ATOM     18  C   UNL     1       4.750   1.215  -3.370  0.00  0.00    +0.000 A 
ATOM     19  C   UNL     1       3.515   0.618  -3.541  0.00  0.00    +0.000 A 
ATOM     20  C   UNL     1       2.678   0.437  -2.455  0.00  0.00    +0.006 A 
ENDBRANCH   4  15
BRANCH   1  21
ATOM     21  C   UNL     1      -0.003   3.396   1.244  0.00  0.00    +0.043 C 
BRANCH  21  23
ATOM     22  C   UNL     1      -1.696   2.359   2.630  0.00  0.00    -0.093 C 
ATOM     23  N   UNL     1      -0.403   3.074   2.630  0.00  0.00    +0.391 N 
ATOM     24  H   UNL     1       0.312   2.470   3.052  0.00  0.00    -0.079 HD
BRANCH  23  25
ATOM     25  C   UNL     1      -0.512   4.316   3.425  0.00  0.00    -0.041 C 
BRANCH  25  26
ATOM     26  C   UNL     1      -0.702   3.949   4.874  0.00  0.00    -0.063 A 
ATOM     27  C   UNL     1      -1.992   3.802   5.382  0.00  0.00    +0.002 A 
ATOM     28  C   UNL     1      -2.198   3.467   6.684  0.00  0.00    +0.009 A 
ATOM     29  C   UNL     1      -1.096   3.277   7.537  0.00  0.00    -0.014 A 
ATOM     30  C   UNL     1      -1.270   2.937   8.888  0.00  0.00    +0.054 A 
ATOM     31  C   UNL     1      -0.177   2.760   9.686  0.00  0.00    +0.121 A 
ATOM     32  C   UNL     1       1.116   2.913   9.176  0.00  0.00    +0.046 A 
ATOM     33  C   UNL     1       1.319   3.242   7.872  0.00  0.00    +0.012 A 
ATOM     34  C   UNL     1       0.216   3.432   7.022  0.00  0.00    -0.017 A 
ATOM     35  C   UNL     1       0.389   3.773   5.669  0.00  0.00    +0.010 A 
BRANCH  31  36
ATOM     36  O   UNL     1      -0.347   2.430  10.994  0.00  0.00    -0.495 OA
ATOM     37  C   UNL     1       0.835   2.259  11.779  0.00  0.00    +0.277 C 
ENDBRANCH  31  36
ENDBRANCH  25  26
ENDBRANCH  23  25
ENDBRANCH  21  23
ENDBRANCH   1  21
TORSDOF 7
