REMARK  Name = ZINC00823589
REMARK  6 active torsions:
REMARK  status: ('A' for Active; 'I' for Inactive)
REMARK    1  A    between atoms: C_1  and  C_2
REMARK    2  A    between atoms: C_5  and  O_8
REMARK    3  A    between atoms: O_8  and  C_9
REMARK    4  A    between atoms: C_9  and  C_11
REMARK    5  A    between atoms: C_12  and  C_26
REMARK    6  A    between atoms: C_17  and  C_19
REMARK                            x       y       z     vdW  Elec       q    Type
REMARK                         _______ _______ _______ _____ _____    ______ ____
ROOT
ATOM      1  C   UNL     1       2.362  -0.153  -0.022  0.00  0.00    +0.078 C 
ATOM      2  C   UNL     1       1.149  -0.746  -0.013  0.00  0.00    +0.021 C 
ATOM      3  N   UNL     1       0.002  -0.004   0.002  0.00  0.00    -0.273 N 
ATOM      4  C   UNL     1      -0.016   1.335   0.009  0.00  0.00    +0.304 C 
ATOM      5  O   UNL     1      -1.088   1.908   0.018  0.00  0.00    -0.252 OA
ATOM      6  N   UNL     1       1.115   2.067   0.003  0.00  0.00    -0.288 N 
ATOM      7  C   UNL     1       2.407   1.361  -0.014  0.00  0.00    +0.143 C 
ATOM      8  C   UNL     1       1.058  -2.250  -0.021  0.00  0.00    +0.061 C 
ATOM      9  H   UNL     1      -0.847  -0.473   0.008  0.00  0.00    +0.156 HD
ATOM     10  H   UNL     1       1.079   3.037   0.008  0.00  0.00    +0.151 HD
ENDROOT
BRANCH   7  11
ATOM     11  C   UNL     1       3.190   1.796   1.199  0.00  0.00    -0.022 A 
ATOM     12  C   UNL     1       2.581   1.828   2.439  0.00  0.00    +0.007 A 
ATOM     13  C   UNL     1       3.300   2.223   3.552  0.00  0.00    +0.015 A 
ATOM     14  C   UNL     1       4.625   2.595   3.423  0.00  0.00    +0.018 A 
ATOM     15  C   UNL     1       5.233   2.568   2.180  0.00  0.00    +0.015 A 
ATOM     16  C   UNL     1       4.515   2.168   1.069  0.00  0.00    +0.007 A 
ATOM     17 BR   UNL     1       5.607   3.142   4.944  0.00  0.00    -0.050 Br
ENDBRANCH   7  11
BRANCH   1  18
ATOM     18  C   UNL     1       3.550  -0.920  -0.038  0.00  0.00    +0.339 C 
ATOM     19  O   UNL     1       3.490  -2.136  -0.045  0.00  0.00    -0.245 OA
BRANCH  18  20
ATOM     20  O   UNL     1       4.751  -0.304  -0.046  0.00  0.00    -0.458 OA
BRANCH  20  25
ATOM     21  C   UNL     1       9.955  -2.522   0.610  0.00  0.00    +0.007 C 
ATOM     22  C   UNL     1       8.715  -1.626   0.628  0.00  0.00    -0.014 C 
ATOM     23  C   UNL     1       8.287  -1.319  -0.809  0.00  0.00    +0.007 C 
ATOM     24  C   UNL     1       7.047  -0.423  -0.791  0.00  0.00    +0.045 C 
ATOM     25  C   UNL     1       5.909  -1.141  -0.063  0.00  0.00    +0.177 C 
ATOM     26  C   UNL     1       6.337  -1.448   1.374  0.00  0.00    +0.045 C 
ATOM     27  C   UNL     1       7.577  -2.344   1.356  0.00  0.00    +0.007 C 
ENDBRANCH  20  25
ENDBRANCH  18  20
ENDBRANCH   1  18
TORSDOF 4
