REMARK  Name = ZINC38610185
REMARK  5 active torsions:
REMARK  status: ('A' for Active; 'I' for Inactive)
REMARK    1  A    between atoms: C_4  and  O_33
REMARK    2  A    between atoms: C_5  and  C_7
REMARK    3  A    between atoms: N_15  and  C_25
REMARK    4  A    between atoms: C_16  and  C_18
REMARK    5  A    between atoms: C_25  and  C_26
REMARK                            x       y       z     vdW  Elec       q    Type
REMARK                         _______ _______ _______ _____ _____    ______ ____
ROOT
ATOM      1  C   UNL     1       1.347  -2.466   0.162  0.00  0.00    +0.102 A 
ATOM      2  C   UNL     1       0.145  -3.183   0.163  0.00  0.00    +0.035 A 
ATOM      3  C   UNL     1       0.502  -4.515   0.081  0.00  0.00    +0.126 A 
ATOM      4  N   UNL     1       1.867  -4.540   0.035  0.00  0.00    -0.272 N 
ATOM      5  H   UNL     1       2.408  -5.343  -0.025  0.00  0.00    +0.189 HD
ATOM      6  N   UNL     1       2.329  -3.341   0.079  0.00  0.00    -0.173 NA
ATOM      7  C   UNL     1      -0.720  -5.326   0.077  0.00  0.00    +0.266 C 
ATOM      8  O   UNL     1      -0.748  -6.540   0.014  0.00  0.00    -0.268 OA
ATOM      9  N   UNL     1      -1.807  -4.537   0.154  0.00  0.00    -0.281 N 
ATOM     10  C   UNL     1      -1.357  -3.139   0.213  0.00  0.00    +0.142 C 
ENDROOT
BRANCH  10  11
ATOM     11  C   UNL     1      -1.815  -2.502   1.500  0.00  0.00    -0.022 A 
ATOM     12  C   UNL     1      -1.591  -3.141   2.705  0.00  0.00    +0.007 A 
ATOM     13  C   UNL     1      -2.010  -2.557   3.886  0.00  0.00    +0.015 A 
ATOM     14  C   UNL     1      -2.654  -1.332   3.861  0.00  0.00    +0.018 A 
ATOM     15  C   UNL     1      -2.877  -0.693   2.655  0.00  0.00    +0.015 A 
ATOM     16  C   UNL     1      -2.453  -1.276   1.475  0.00  0.00    +0.007 A 
ATOM     17 BR   UNL     1      -3.228  -0.533   5.475  0.00  0.00    -0.050 Br
ENDBRANCH  10  11
BRANCH   1  22
ATOM     18  C   UNL     1       0.835   1.201  -0.496  0.00  0.00    +0.001 A 
ATOM     19  C   UNL     1       1.755   1.766   0.370  0.00  0.00    +0.004 A 
ATOM     20  C   UNL     1       2.544   0.962   1.170  0.00  0.00    +0.046 A 
ATOM     21  C   UNL     1       2.417  -0.417   1.109  0.00  0.00    +0.126 A 
ATOM     22  C   UNL     1       1.489  -0.990   0.235  0.00  0.00    +0.044 A 
ATOM     23  C   UNL     1       0.699  -0.171  -0.567  0.00  0.00    +0.014 A 
BRANCH  21  24
ATOM     24  O   UNL     1       3.193  -1.208   1.894  0.00  0.00    -0.506 OA
ATOM     25  H   UNL     1       2.803  -1.409   2.756  0.00  0.00    +0.292 HD
ENDBRANCH  21  24
ENDBRANCH   1  22
BRANCH   9  26
ATOM     26  C   UNL     1      -3.199  -4.992   0.175  0.00  0.00    +0.144 C 
BRANCH  26  27
ATOM     27  C   UNL     1      -3.630  -5.223   1.601  0.00  0.00    -0.030 A 
ATOM     28  C   UNL     1      -3.452  -6.463   2.184  0.00  0.00    +0.006 A 
ATOM     29  C   UNL     1      -3.848  -6.675   3.492  0.00  0.00    +0.020 A 
ATOM     30  C   UNL     1      -4.422  -5.646   4.216  0.00  0.00    +0.041 A 
ATOM     31  C   UNL     1      -4.600  -4.404   3.631  0.00  0.00    +0.020 A 
ATOM     32  C   UNL     1      -4.199  -4.192   2.326  0.00  0.00    +0.006 A 
ATOM     33 CL   UNL     1      -4.920  -5.911   5.858  0.00  0.00    -0.084 Cl
ENDBRANCH  26  27
ENDBRANCH   9  26
TORSDOF 5
