REMARK  Name = ZINC03405647
REMARK  11 active torsions:
REMARK  status: ('A' for Active; 'I' for Inactive)
REMARK    1  A    between atoms: C_1  and  C_2
REMARK    2  A    between atoms: C_2  and  C_3
REMARK    3  A    between atoms: C_3  and  N_4
REMARK    4  A    between atoms: C_5  and  N_34
REMARK    5  A    between atoms: C_6  and  C_13
REMARK    6  A    between atoms: C_13  and  C_15
REMARK    7  A    between atoms: C_15  and  S_16
REMARK    8  A    between atoms: S_16  and  C_17
REMARK    9  A    between atoms: C_20  and  C_29
REMARK   10  A    between atoms: N_21  and  C_22
REMARK   11  A    between atoms: C_22  and  C_23
REMARK                            x       y       z     vdW  Elec       q    Type
REMARK                         _______ _______ _______ _____ _____    ______ ____
ROOT
ATOM      1  C   UNL     1      -4.789   5.455   0.062  0.00  0.00    +0.157 C 
ENDROOT
BRANCH   1   2
ATOM      2  C   UNL     1      -5.525   6.758  -0.117  0.00  0.00    +0.182 C 
ATOM      3  O   UNL     1      -4.918   7.758  -0.444  0.00  0.00    -0.291 OA
BRANCH   2   6
ATOM      4  N   UNL     1      -8.959   8.045   0.257  0.00  0.00    -0.281 N 
ATOM      5  C   UNL     1      -7.608   8.040   0.053  0.00  0.00    +0.116 A 
ATOM      6  C   UNL     1      -6.919   6.816   0.093  0.00  0.00    +0.120 A 
ATOM      7  C   UNL     1      -7.696   5.600   0.366  0.00  0.00    +0.266 A 
ATOM      8  O   UNL     1      -7.150   4.513   0.417  0.00  0.00    -0.267 OA
ATOM      9  N   UNL     1      -9.026   5.713   0.560  0.00  0.00    -0.274 N 
ATOM     10  H   UNL     1      -9.569   4.894   0.747  0.00  0.00    +0.173 HD
ATOM     11  C   UNL     1      -9.631   6.910   0.504  0.00  0.00    +0.331 A 
ATOM     12  O   UNL     1     -10.832   6.968   0.684  0.00  0.00    -0.246 OA
BRANCH   5  13
ATOM     13  N   UNL     1      -6.941   9.201  -0.190  0.00  0.00    -0.344 N 
ATOM     14  H   UNL     1      -5.999   9.181  -0.420  0.00  0.00    +0.144 HD
ATOM     15  H   UNL     1      -7.408  10.050  -0.134  0.00  0.00    +0.144 HD
ENDBRANCH   5  13
BRANCH   4  16
ATOM     16  C   UNL     1      -9.687   9.316   0.212  0.00  0.00    +0.128 C 
BRANCH  16  18
ATOM     17  C   UNL     1     -10.480  11.262   1.563  0.00  0.00    +0.005 C 
ATOM     18  C   UNL     1      -9.720   9.935   1.611  0.00  0.00    +0.018 C 
ENDBRANCH  16  18
ENDBRANCH   4  16
ENDBRANCH   2   6
ENDBRANCH   1   2
BRANCH   1  19
ATOM     19  S   UNL     1      -3.029   5.704  -0.277  0.00  0.00    -0.078 S 
BRANCH  19  20
ATOM     20  C   UNL     1      -2.430   4.070   0.000  0.00  0.00    +0.193 A 
ATOM     21  N   UNL     1      -3.146   3.027   0.354  0.00  0.00    -0.122 NA
ATOM     22  N   UNL     1      -2.394   1.992   0.470  0.00  0.00    -0.128 NA
ATOM     23  C   UNL     1      -1.147   2.310   0.197  0.00  0.00    +0.172 A 
ATOM     24  N   UNL     1      -1.132   3.653  -0.107  0.00  0.00    -0.297 N 
BRANCH  23  25
ATOM     25  C   UNL     1       0.012   1.404   0.219  0.00  0.00    +0.056 A 
ATOM     26  C   UNL     1       0.037   0.032   0.243  0.00  0.00    +0.019 A 
ATOM     27  C   UNL     1       1.257  -0.606   0.255  0.00  0.00    +0.008 A 
ATOM     28  C   UNL     1       2.394   0.138   0.243  0.00  0.00    +0.046 A 
ATOM     29  S   UNL     1       1.752   1.803   0.214  0.00  0.00    -0.094 S 
ENDBRANCH  23  25
BRANCH  24  30
ATOM     30  C   UNL     1       0.032   4.465  -0.471  0.00  0.00    +0.161 C 
BRANCH  30  31
ATOM     31  C   UNL     1       0.216   4.436  -1.967  0.00  0.00    -0.028 A 
ATOM     32  C   UNL     1       1.010   3.464  -2.546  0.00  0.00    +0.005 A 
ATOM     33  C   UNL     1       1.175   3.434  -3.918  0.00  0.00    +0.000 A 
ATOM     34  C   UNL     1       0.555   4.382  -4.710  0.00  0.00    +0.000 A 
ATOM     35  C   UNL     1      -0.234   5.357  -4.130  0.00  0.00    +0.000 A 
ATOM     36  C   UNL     1      -0.404   5.384  -2.759  0.00  0.00    +0.005 A 
ENDBRANCH  30  31
ENDBRANCH  24  30
ENDBRANCH  19  20
ENDBRANCH   1  19
TORSDOF 10
