REMARK  Name = ZINC62855093
REMARK  6 active torsions:
REMARK  status: ('A' for Active; 'I' for Inactive)
REMARK    1  A    between atoms: C_1  and  C_2
REMARK    2  A    between atoms: C_2  and  C_3
REMARK    3  A    between atoms: C_3  and  C_9
REMARK    4  A    between atoms: N_11  and  C_12
REMARK    5  A    between atoms: C_17  and  O_18
REMARK    6  A    between atoms: O_18  and  C_19
REMARK                            x       y       z     vdW  Elec       q    Type
REMARK                         _______ _______ _______ _____ _____    ______ ____
ROOT
ATOM      1  C   UNL     1      -2.593  -0.125   0.793  0.00  0.00    +0.222 C 
ATOM      2  O   UNL     1      -3.296  -0.928   1.369  0.00  0.00    -0.275 OA
ATOM      3  N   UNL     1      -2.535   1.151   1.223  0.00  0.00    -0.282 N 
ATOM      4  H   UNL     1      -1.909   1.772   0.819  0.00  0.00    +0.155 HD
ENDROOT
BRANCH   1   5
ATOM      5  C   UNL     1      -1.784  -0.553  -0.404  0.00  0.00    +0.032 C 
ATOM      6  C   UNL     1      -2.059   0.396  -1.574  0.00  0.00    +0.012 C 
ATOM      7  C   UNL     1      -3.535   0.292  -1.967  0.00  0.00    -0.018 C 
ATOM      8  C   UNL     1      -3.866  -1.162  -2.310  0.00  0.00    -0.083 C 
ATOM      9  N   UNL     1      -3.607  -2.014  -1.143  0.00  0.00    +0.380 N 
ATOM     10  C   UNL     1      -2.179  -1.976  -0.805  0.00  0.00    -0.066 C 
ATOM     11  H   UNL     1      -4.147  -1.681  -0.358  0.00  0.00    -0.086 HD
ATOM     12  H   UNL     1      -3.876  -2.963  -1.355  0.00  0.00    -0.086 HD
BRANCH   5  14
ATOM     13  C   UNL     1      -0.042  -1.367   1.192  0.00  0.00    +0.005 C 
ATOM     14  C   UNL     1      -0.295  -0.516  -0.055  0.00  0.00    +0.011 C 
ENDBRANCH   5  14
ENDBRANCH   1   5
BRANCH   3  15
ATOM     15  C   UNL     1      -3.380   1.581   2.255  0.00  0.00    +0.078 A 
ATOM     16  C   UNL     1      -3.791   0.689   3.235  0.00  0.00    +0.047 A 
ATOM     17  C   UNL     1      -4.625   1.115   4.253  0.00  0.00    +0.044 A 
ATOM     18  C   UNL     1      -5.051   2.431   4.297  0.00  0.00    +0.039 A 
ATOM     19  C   UNL     1      -4.644   3.326   3.323  0.00  0.00    +0.063 A 
ATOM     20  C   UNL     1      -3.804   2.907   2.304  0.00  0.00    +0.155 A 
ATOM     21 BR   UNL     1      -5.229   5.123   3.388  0.00  0.00    -0.046 Br
ATOM     22 CL   UNL     1      -5.139  -0.003   5.477  0.00  0.00    -0.083 Cl
BRANCH  20  23
ATOM     23  O   UNL     1      -3.400   3.787   1.349  0.00  0.00    -0.492 OA
ATOM     24  C   UNL     1      -4.222   3.907   0.187  0.00  0.00    +0.277 C 
ENDBRANCH  20  23
ENDBRANCH   3  15
TORSDOF 4
