REMARK  Name = ZINC43436959
REMARK  9 active torsions:
REMARK  status: ('A' for Active; 'I' for Inactive)
REMARK    1  A    between atoms: C_1  and  C_2
REMARK    2  A    between atoms: C_2  and  C_3
REMARK    3  A    between atoms: C_2  and  C_4
REMARK    4  A    between atoms: C_4  and  C_5
REMARK    5  A    between atoms: C_5  and  C_7
REMARK    6  A    between atoms: C_5  and  N_11
REMARK    7  A    between atoms: C_7  and  O_9
REMARK    8  A    between atoms: O_9  and  C_10
REMARK    9  A    between atoms: C_19  and  C_20
REMARK                            x       y       z     vdW  Elec       q    Type
REMARK                         _______ _______ _______ _____ _____    ______ ____
ROOT
ATOM      1  N   UNL     1      -2.710  -2.325  -0.266  0.00  0.00    -0.313 N 
ATOM      2  C   UNL     1      -3.158  -3.118  -1.304  0.00  0.00    +0.070 A 
ATOM      3  C   UNL     1      -2.544  -3.716  -2.396  0.00  0.00    +0.029 A 
ATOM      4  C   UNL     1      -3.291  -4.468  -3.277  0.00  0.00    +0.017 A 
ATOM      5  C   UNL     1      -4.657  -4.631  -3.080  0.00  0.00    +0.020 A 
ATOM      6  C   UNL     1      -5.282  -4.045  -2.003  0.00  0.00    +0.045 A 
ATOM      7  C   UNL     1      -4.539  -3.280  -1.101  0.00  0.00    +0.090 A 
ATOM      8  N   UNL     1      -4.856  -2.593   0.027  0.00  0.00    -0.231 NA
ATOM      9  C   UNL     1      -3.785  -2.040   0.518  0.00  0.00    +0.126 A 
ATOM     10 BR   UNL     1      -5.663  -5.665  -4.302  0.00  0.00    -0.050 Br
ENDROOT
BRANCH   9  11
ATOM     11  C   UNL     1      -3.743  -1.201   1.769  0.00  0.00    +0.183 C 
ATOM     12 CL   UNL     1      -4.028   0.528   1.344  0.00  0.00    -0.117 Cl
ENDBRANCH   9  11
BRANCH   1  13
ATOM     13  C   UNL     1      -1.332  -1.880  -0.045  0.00  0.00    +0.197 C 
BRANCH  13  14
ATOM     14  C   UNL     1      -0.846  -2.393   1.286  0.00  0.00    +0.330 C 
ATOM     15  O   UNL     1      -1.542  -3.134   1.939  0.00  0.00    -0.249 OA
BRANCH  14  16
ATOM     16  O   UNL     1       0.360  -2.025   1.747  0.00  0.00    -0.466 OA
ATOM     17  C   UNL     1       0.803  -2.632   2.963  0.00  0.00    +0.280 C 
ENDBRANCH  14  16
ENDBRANCH  13  14
BRANCH  13  18
ATOM     18  C   UNL     1      -1.283  -0.351  -0.052  0.00  0.00    +0.039 C 
BRANCH  18  20
ATOM     19  C   UNL     1      -1.779   1.692  -1.401  0.00  0.00    +0.007 C 
ATOM     20  C   UNL     1      -1.683   0.166  -1.435  0.00  0.00    -0.015 C 
ATOM     21  C   UNL     1      -0.629  -0.256  -2.462  0.00  0.00    +0.007 C 
ENDBRANCH  18  20
ENDBRANCH  13  18
ENDBRANCH   1  13
TORSDOF 6
