REMARK  Name = ZINC35698825
REMARK  11 active torsions:
REMARK  status: ('A' for Active; 'I' for Inactive)
REMARK    1  A    between atoms: C_1  and  C_2
REMARK    2  A    between atoms: C_2  and  O_3
REMARK    3  A    between atoms: O_3  and  C_4
REMARK    4  A    between atoms: C_4  and  C_6
REMARK    5  A    between atoms: C_12  and  C_14
REMARK    6  A    between atoms: C_18  and  C_20
REMARK    7  A    between atoms: C_20  and  S_21
REMARK    8  A    between atoms: S_21  and  C_22
REMARK    9  A    between atoms: C_24  and  C_37
REMARK   10  A    between atoms: C_26  and  N_28
REMARK   11  A    between atoms: C_34  and  C_36
REMARK                            x       y       z     vdW  Elec       q    Type
REMARK                         _______ _______ _______ _____ _____    ______ ____
ROOT
ATOM      1  C   UNL     1       1.345  -6.218  -5.811  0.00  0.00    +0.037 A 
ATOM      2  C   UNL     1       1.903  -6.837  -4.691  0.00  0.00    +0.013 A 
ATOM      3  C   UNL     1       2.074  -8.206  -4.677  0.00  0.00    +0.001 A 
ATOM      4  C   UNL     1       1.693  -8.965  -5.770  0.00  0.00    +0.004 A 
ATOM      5  C   UNL     1       1.140  -8.358  -6.883  0.00  0.00    -0.036 A 
ATOM      6  C   UNL     1       0.958  -6.990  -6.907  0.00  0.00    +0.017 A 
ENDROOT
BRANCH   1  13
ATOM      7  C   UNL     1       4.516  -2.393  -5.624  0.00  0.00    +0.101 C 
ATOM      8  C   UNL     1       4.585  -3.921  -5.652  0.00  0.00    +0.033 C 
ATOM      9  C   UNL     1       3.398  -4.497  -4.875  0.00  0.00    +0.109 C 
ATOM     10  N   UNL     1       2.156  -3.940  -5.428  0.00  0.00    -0.297 N 
ATOM     11  C   UNL     1       2.021  -2.480  -5.531  0.00  0.00    +0.109 C 
ATOM     12  C   UNL     1       3.224  -1.927  -6.301  0.00  0.00    +0.033 C 
ATOM     13  C   UNL     1       1.159  -4.752  -5.833  0.00  0.00    +0.247 C 
ATOM     14  O   UNL     1       0.108  -4.278  -6.217  0.00  0.00    -0.270 OA
BRANCH   7  15
ATOM     15  C   UNL     1       5.701  -1.822  -6.359  0.00  0.00    +0.310 C 
ATOM     16  O   UNL     1       5.531  -1.116  -7.324  0.00  0.00    -0.251 OA
BRANCH  15  17
ATOM     17  O   UNL     1       6.946  -2.099  -5.941  0.00  0.00    -0.465 OA
BRANCH  17  19
ATOM     18  C   UNL     1       9.355  -1.949  -6.064  0.00  0.00    +0.048 C 
ATOM     19  C   UNL     1       8.023  -1.525  -6.685  0.00  0.00    +0.229 C 
ENDBRANCH  17  19
ENDBRANCH  15  17
ENDBRANCH   7  15
ENDBRANCH   1  13
BRANCH   5  20
ATOM     20  C   UNL     1       0.729  -9.193  -8.068  0.00  0.00    +0.112 C 
BRANCH  20  21
ATOM     21  S   UNL     1      -0.997  -9.716  -7.870  0.00  0.00    -0.081 S 
BRANCH  21  22
ATOM     22  C   UNL     1      -1.322 -10.669  -9.316  0.00  0.00    +0.190 A 
ATOM     23  N   UNL     1      -0.358 -10.835 -10.211  0.00  0.00    -0.227 NA
ATOM     24  C   UNL     1      -0.565 -11.545 -11.310  0.00  0.00    +0.044 A 
ATOM     25  C   UNL     1      -1.804 -12.118 -11.521  0.00  0.00    +0.066 A 
ATOM     26  C   UNL     1      -2.800 -11.926 -10.561  0.00  0.00    +0.126 A 
ATOM     27  N   UNL     1      -2.522 -11.206  -9.479  0.00  0.00    -0.207 NA
ATOM     28  C   UNL     1       0.540 -11.725 -12.319  0.00  0.00    +0.066 C 
BRANCH  26  29
ATOM     29  N   UNL     1      -4.057 -12.482 -10.732  0.00  0.00    -0.312 N 
ATOM     30  C   UNL     1      -5.174 -12.089  -9.861  0.00  0.00    +0.125 C 
ATOM     31  C   UNL     1      -6.331 -11.599 -10.739  0.00  0.00    +0.126 C 
ATOM     32  N   UNL     1      -6.573 -12.592 -11.795  0.00  0.00    -0.299 N 
ATOM     33  C   UNL     1      -5.457 -12.986 -12.666  0.00  0.00    +0.126 C 
ATOM     34  C   UNL     1      -4.300 -13.472 -11.791  0.00  0.00    +0.125 C 
ATOM     35  C   UNL     1      -7.796 -13.133 -11.961  0.00  0.00    +0.213 C 
ATOM     36  O   UNL     1      -8.710 -12.800 -11.236  0.00  0.00    -0.276 OA
ATOM     37  C   UNL     1      -8.029 -14.150 -13.049  0.00  0.00    +0.109 C 
ENDBRANCH  26  29
ENDBRANCH  21  22
ENDBRANCH  20  21
ENDBRANCH   5  20
TORSDOF 8
