REMARK  Name = ZINC63512102
REMARK  5 active torsions:
REMARK  status: ('A' for Active; 'I' for Inactive)
REMARK    1  A    between atoms: C_1  and  C_2
REMARK    2  A    between atoms: C_4  and  C_7
REMARK    3  A    between atoms: C_7  and  N_14
REMARK    4  A    between atoms: N_14  and  C_15
REMARK    5  A    between atoms: C_15  and  C_16
REMARK                            x       y       z     vdW  Elec       q    Type
REMARK                         _______ _______ _______ _____ _____    ______ ____
ROOT
ATOM      1  N   UNL     1      -2.475  -3.087   1.162  0.00  0.00    +0.390 N 
ATOM      2  H   UNL     1      -3.058  -2.270   1.260  0.00  0.00    -0.084 HD
ATOM      3  H   UNL     1      -3.054  -3.897   1.003  0.00  0.00    -0.084 HD
ENDROOT
BRANCH   1   4
ATOM      4  C   UNL     1      -1.565  -2.905   0.022  0.00  0.00    -0.003 C 
ATOM      5  C   UNL     1      -2.375  -2.888  -1.246  0.00  0.00    -0.005 C 
ATOM      6  C   UNL     1      -3.667  -3.698  -1.014  0.00  0.00    -0.001 C 
ATOM      7  C   UNL     1      -3.448  -5.133  -1.118  0.00  0.00    -0.000 C 
ATOM      8  C   UNL     1      -2.457  -5.655  -0.057  0.00  0.00    -0.000 C 
ATOM      9  C   UNL     1      -1.058  -5.361  -0.525  0.00  0.00    -0.001 C 
ATOM     10  C   UNL     1      -0.516  -4.032   0.037  0.00  0.00    -0.005 C 
BRANCH   4  14
ATOM     11  C   UNL     1      -0.845   2.024   0.553  0.00  0.00    +0.112 C 
ATOM     12  C   UNL     1      -0.564   0.552   0.398  0.00  0.00    +0.224 A 
ATOM     13  N   UNL     1      -1.459  -0.391   0.291  0.00  0.00    -0.198 NA
ATOM     14  C   UNL     1      -0.861  -1.581   0.169  0.00  0.00    +0.161 A 
ATOM     15  N   UNL     1       0.430  -1.409   0.196  0.00  0.00    -0.063 NA
ATOM     16  O   UNL     1       0.649  -0.013   0.341  0.00  0.00    -0.338 OA
ENDBRANCH   4  14
ENDBRANCH   1   4
BRANCH   1  17
ATOM     17  C   UNL     1      -1.690  -3.278   2.389  0.00  0.00    -0.045 C 
BRANCH  17  18
ATOM     18  C   UNL     1      -2.616  -3.308   3.577  0.00  0.00    -0.057 A 
ATOM     19  C   UNL     1      -2.904  -2.160   4.250  0.00  0.00    +0.002 A 
ATOM     20  C   UNL     1      -3.758  -2.169   5.351  0.00  0.00    +0.001 A 
ATOM     21  C   UNL     1      -4.328  -3.325   5.787  0.00  0.00    +0.008 A 
ATOM     22  C   UNL     1      -4.054  -4.530   5.118  0.00  0.00    -0.018 A 
ATOM     23  C   UNL     1      -3.191  -4.521   3.994  0.00  0.00    -0.017 A 
ATOM     24  C   UNL     1      -2.922  -5.726   3.322  0.00  0.00    +0.009 A 
ATOM     25  C   UNL     1      -3.497  -6.881   3.754  0.00  0.00    +0.001 A 
ATOM     26  C   UNL     1      -4.351  -6.889   4.856  0.00  0.00    +0.001 A 
ATOM     27  C   UNL     1      -4.624  -5.744   5.539  0.00  0.00    +0.008 A 
ENDBRANCH  17  18
ENDBRANCH   1  17
TORSDOF 4
