REMARK  Name = ZINC00803167
REMARK  2 active torsions:
REMARK  status: ('A' for Active; 'I' for Inactive)
REMARK    1  A    between atoms: C_3  and  C_6
REMARK    2  A    between atoms: C_9  and  C_18
REMARK                            x       y       z     vdW  Elec       q    Type
REMARK                         _______ _______ _______ _____ _____    ______ ____
ROOT
ATOM      1  C   UNL     1       3.761   1.845  -0.024  0.00  0.00    +0.149 C 
ATOM      2  C   UNL     1       4.503   1.327   1.214  0.00  0.00    +0.059 C 
ATOM      3  C   UNL     1       6.003   1.607   1.073  0.00  0.00    +0.106 C 
ATOM      4  N   UNL     1       6.512   0.868  -0.099  0.00  0.00    -0.307 N 
ATOM      5  C   UNL     1       5.723   0.909  -1.241  0.00  0.00    +0.216 A 
ATOM      6  N   UNL     1       4.445   1.364  -1.224  0.00  0.00    -0.223 N 
ATOM      7  N   UNL     1       3.967   1.267  -2.531  0.00  0.00    -0.132 NA
ATOM      8  C   UNL     1       4.946   0.774  -3.257  0.00  0.00    +0.233 A 
ATOM      9  N   UNL     1       6.011   0.554  -2.464  0.00  0.00    -0.180 NA
ATOM     10  N   UNL     1       4.888   0.515  -4.627  0.00  0.00    -0.326 N 
ATOM     11  H   UNL     1       7.351   0.381  -0.073  0.00  0.00    +0.149 HD
ATOM     12  H   UNL     1       4.074   0.700  -5.122  0.00  0.00    +0.145 HD
ATOM     13  H   UNL     1       5.660   0.149  -5.085  0.00  0.00    +0.145 HD
ENDROOT
BRANCH   3  14
ATOM     14  C   UNL     1       6.226   3.085   0.878  0.00  0.00    -0.026 A 
ATOM     15  C   UNL     1       6.034   3.655  -0.366  0.00  0.00    +0.007 A 
ATOM     16  C   UNL     1       6.239   5.010  -0.546  0.00  0.00    +0.022 A 
ATOM     17  C   UNL     1       6.636   5.797   0.520  0.00  0.00    +0.059 A 
ATOM     18  C   UNL     1       6.828   5.226   1.767  0.00  0.00    +0.060 A 
ATOM     19  C   UNL     1       6.617   3.871   1.946  0.00  0.00    +0.027 A 
ATOM     20 CL   UNL     1       7.326   6.212   3.106  0.00  0.00    -0.082 Cl
ATOM     21 CL   UNL     1       6.893   7.499   0.295  0.00  0.00    -0.082 Cl
ENDBRANCH   3  14
BRANCH   1  24
ATOM     22  C   UNL     1      -0.016   1.351   0.009  0.00  0.00    +0.008 A 
ATOM     23  C   UNL     1       1.183   2.038   0.002  0.00  0.00    +0.013 A 
ATOM     24  C   UNL     1       2.343   1.336  -0.013  0.00  0.00    +0.014 A 
ATOM     25  S   UNL     1       1.754  -0.349  -0.017  0.00  0.00    -0.099 S 
ATOM     26  C   UNL     1       0.002  -0.004   0.002  0.00  0.00    +0.045 A 
ENDBRANCH   1  24
TORSDOF 2
