REMARK  Name = ZINC04660898
REMARK  6 active torsions:
REMARK  status: ('A' for Active; 'I' for Inactive)
REMARK    1  A    between atoms: C_1  and  C_2
REMARK    2  A    between atoms: C_5  and  O_28
REMARK    3  A    between atoms: C_6  and  N_8
REMARK    4  A    between atoms: N_8  and  S_9
REMARK    5  A    between atoms: S_9  and  C_12
REMARK    6  A    between atoms: O_28  and  C_29
REMARK                            x       y       z     vdW  Elec       q    Type
REMARK                         _______ _______ _______ _____ _____    ______ ____
ROOT
ATOM      1  C   UNL     1       2.773   0.223   0.340  0.00  0.00    +0.120 A 
ATOM      2  C   UNL     1       2.922   1.188   1.322  0.00  0.00    +0.029 A 
ATOM      3  C   UNL     1       1.906   2.089   1.579  0.00  0.00    +0.003 A 
ATOM      4  C   UNL     1       0.724   2.040   0.857  0.00  0.00    +0.012 A 
ATOM      5  C   UNL     1       0.559   1.077  -0.132  0.00  0.00    +0.035 A 
ATOM      6  C   UNL     1       1.594   0.160  -0.394  0.00  0.00    +0.060 A 
ATOM      7  C   UNL     1       1.416  -0.864  -1.447  0.00  0.00    +0.196 C 
ATOM      8  O   UNL     1       2.369  -1.496  -1.857  0.00  0.00    -0.287 OA
ATOM      9  C   UNL     1       0.063  -1.110  -1.993  0.00  0.00    +0.033 A 
ATOM     10  C   UNL     1      -0.195  -2.240  -2.762  0.00  0.00    +0.012 A 
ATOM     11  C   UNL     1      -1.467  -2.454  -3.265  0.00  0.00    +0.001 A 
ATOM     12  C   UNL     1      -2.483  -1.553  -3.008  0.00  0.00    +0.001 A 
ATOM     13  C   UNL     1      -2.243  -0.423  -2.245  0.00  0.00    +0.012 A 
ATOM     14  C   UNL     1      -0.971  -0.193  -1.732  0.00  0.00    +0.033 A 
ATOM     15  C   UNL     1      -0.695   1.008  -0.913  0.00  0.00    +0.195 C 
ATOM     16  O   UNL     1      -1.490   1.927  -0.883  0.00  0.00    -0.287 OA
ENDROOT
BRANCH   1  17
ATOM     17  S   UNL     1       4.076  -0.920   0.020  0.00  0.00    +0.073 S 
ATOM     18  O   UNL     1       5.149  -0.564   0.881  0.00  0.00    -0.150 OA
ATOM     19  O   UNL     1       3.490  -2.215   0.027  0.00  0.00    -0.150 OA
BRANCH  17  20
ATOM     20  N   UNL     1       4.599  -0.645  -1.527  0.00  0.00    -0.213 N 
ATOM     21  H   UNL     1       4.552  -1.354  -2.188  0.00  0.00    +0.174 HD
BRANCH  20  27
ATOM     22  C   UNL     1       7.061   3.425  -0.287  0.00  0.00    +0.044 C 
ATOM     23  C   UNL     1       6.306   2.604  -1.301  0.00  0.00    -0.048 A 
ATOM     24  C   UNL     1       6.119   3.092  -2.581  0.00  0.00    +0.007 A 
ATOM     25  C   UNL     1       5.427   2.343  -3.516  0.00  0.00    +0.048 A 
ATOM     26  C   UNL     1       4.920   1.101  -3.171  0.00  0.00    +0.142 A 
ATOM     27  C   UNL     1       5.109   0.609  -1.881  0.00  0.00    +0.090 A 
ATOM     28  C   UNL     1       5.799   1.368  -0.948  0.00  0.00    +0.031 A 
BRANCH  26  29
ATOM     29  O   UNL     1       4.239   0.364  -4.089  0.00  0.00    -0.493 OA
ATOM     30  C   UNL     1       4.084   0.932  -5.391  0.00  0.00    +0.277 C 
ENDBRANCH  26  29
ENDBRANCH  20  27
ENDBRANCH  17  20
ENDBRANCH   1  17
TORSDOF 4
