REMARK  Name = ZINC04675363
REMARK  7 active torsions:
REMARK  status: ('A' for Active; 'I' for Inactive)
REMARK    1  A    between atoms: C_1  and  C_2
REMARK    2  A    between atoms: C_2  and  C_3
REMARK    3  A    between atoms: N_7  and  C_16
REMARK    4  A    between atoms: C_10  and  C_15
REMARK    5  A    between atoms: C_16  and  C_17
REMARK    6  A    between atoms: C_21  and  C_28
REMARK    7  A    between atoms: C_24  and  C_27
REMARK                            x       y       z     vdW  Elec       q    Type
REMARK                         _______ _______ _______ _____ _____    ______ ____
ROOT
ATOM      1  C   UNL     1      -0.729   1.579   1.267  0.00  0.00    +0.259 C 
ATOM      2  C   UNL     1      -0.076   0.976   2.485  0.00  0.00    +0.261 C 
ATOM      3  O   UNL     1      -0.502  -0.058   2.955  0.00  0.00    -0.271 OA
ATOM      4  N   UNL     1       0.984   1.591   3.050  0.00  0.00    -0.256 N 
ATOM      5  C   UNL     1       1.381   2.847   2.571  0.00  0.00    +0.079 A 
ATOM      6  C   UNL     1       2.595   3.395   2.953  0.00  0.00    +0.030 A 
ATOM      7  C   UNL     1       2.987   4.620   2.447  0.00  0.00    -0.048 A 
ATOM      8  C   UNL     1       2.171   5.300   1.561  0.00  0.00    +0.007 A 
ATOM      9  C   UNL     1       0.955   4.762   1.182  0.00  0.00    +0.048 A 
ATOM     10  C   UNL     1       0.553   3.538   1.689  0.00  0.00    +0.143 A 
ATOM     11  O   UNL     1      -0.646   3.005   1.333  0.00  0.00    -0.478 OA
ATOM     12  C   UNL     1       4.308   5.217   2.861  0.00  0.00    +0.044 C 
ENDROOT
BRANCH   1  14
ATOM     13  C   UNL     1      -0.753   1.593  -1.232  0.00  0.00    +0.008 C 
ATOM     14  C   UNL     1      -0.013   1.086   0.008  0.00  0.00    +0.051 C 
ENDBRANCH   1  14
BRANCH   4  15
ATOM     15  C   UNL     1       1.711   0.953   4.150  0.00  0.00    +0.209 C 
BRANCH  15  16
ATOM     16  C   UNL     1       1.096   1.364   5.463  0.00  0.00    +0.233 C 
ATOM     17  O   UNL     1       0.145   2.116   5.479  0.00  0.00    -0.274 OA
ATOM     18  N   UNL     1       1.604   0.897   6.621  0.00  0.00    -0.300 N 
ATOM     19  C   UNL     1       2.753  -0.019   6.619  0.00  0.00    +0.111 C 
ATOM     20  C   UNL     1       3.844   0.563   7.530  0.00  0.00    +0.004 C 
ATOM     21  C   UNL     1       3.254   0.827   8.918  0.00  0.00    +0.009 C 
ATOM     22  C   UNL     1       2.123   1.852   8.806  0.00  0.00    +0.004 C 
ATOM     23  C   UNL     1       1.016   1.289   7.909  0.00  0.00    +0.111 C 
ATOM     24  C   UNL     1       1.555   2.140  10.197  0.00  0.00    +0.009 C 
ATOM     25  C   UNL     1       4.364   1.875   6.938  0.00  0.00    +0.009 C 
ENDBRANCH  15  16
ENDBRANCH   4  15
TORSDOF 3
