REMARK  Name = ZINC12639954
REMARK  9 active torsions:
REMARK  status: ('A' for Active; 'I' for Inactive)
REMARK    1  A    between atoms: C_1  and  C_2
REMARK    2  A    between atoms: C_7  and  C_8
REMARK    3  A    between atoms: C_13  and  C_17
REMARK    4  A    between atoms: C_13  and  C_18
REMARK    5  A    between atoms: C_23  and  C_25
REMARK    6  A    between atoms: C_28  and  C_31
REMARK    7  A    between atoms: C_31  and  C_32
REMARK    8  A    between atoms: C_31  and  C_33
REMARK    9  A    between atoms: C_31  and  C_34
REMARK                            x       y       z     vdW  Elec       q    Type
REMARK                         _______ _______ _______ _____ _____    ______ ____
ROOT
ATOM      1  C   UNL     1       0.194   0.161   2.429  0.00  0.00    +0.162 C 
ATOM      2  C   UNL     1       1.560   0.819   2.475  0.00  0.00    +0.041 C 
ATOM      3  C   UNL     1       2.369   0.544   3.559  0.00  0.00    +0.028 C 
ATOM      4  C   UNL     1       3.736   1.178   3.657  0.00  0.00    +0.060 C 
ATOM      5  C   UNL     1       4.289   1.420   2.251  0.00  0.00    -0.023 C 
ATOM      6  C   UNL     1       3.317   2.320   1.482  0.00  0.00    +0.086 C 
ATOM      7  C   UNL     1       1.961   1.664   1.451  0.00  0.00    +0.164 C 
ATOM      8  O   UNL     1       1.210   1.877   0.517  0.00  0.00    -0.292 OA
ATOM      9  C   UNL     1       5.654   2.105   2.348  0.00  0.00    +0.011 C 
ATOM     10  C   UNL     1       4.436   0.083   1.522  0.00  0.00    +0.011 C 
ATOM     11  N   UNL     1       1.964  -0.272   4.522  0.00  0.00    -0.330 N 
ATOM     12  C   UNL     1       0.792  -0.889   4.557  0.00  0.00    +0.215 C 
ATOM     13  N   UNL     1      -0.128  -0.722   3.556  0.00  0.00    -0.209 N 
ATOM     14  N   UNL     1      -1.239  -1.500   3.891  0.00  0.00    -0.244 N 
ATOM     15  C   UNL     1      -0.936  -2.107   5.080  0.00  0.00    +0.146 C 
ATOM     16  N   UNL     1       0.260  -1.731   5.456  0.00  0.00    -0.198 NA
ATOM     17  H   UNL     1      -2.060  -1.592   3.383  0.00  0.00    +0.172 HD
ATOM     18  H   UNL     1       2.575  -0.430   5.259  0.00  0.00    +0.168 HD
ENDROOT
BRANCH   1  25
ATOM     19  C   UNL     1      -1.471   1.075   0.252  0.00  0.00    +0.044 C 
ATOM     20  C   UNL     1      -0.693  -0.209   0.117  0.00  0.00    -0.045 A 
ATOM     21  C   UNL     1      -0.771  -0.946  -1.050  0.00  0.00    +0.004 A 
ATOM     22  C   UNL     1      -0.058  -2.123  -1.173  0.00  0.00    +0.000 A 
ATOM     23  C   UNL     1       0.735  -2.563  -0.129  0.00  0.00    +0.000 A 
ATOM     24  C   UNL     1       0.814  -1.826   1.037  0.00  0.00    +0.006 A 
ATOM     25  C   UNL     1       0.104  -0.646   1.159  0.00  0.00    -0.018 A 
ENDBRANCH   1  25
BRANCH  15  26
ATOM     26  C   UNL     1      -1.818  -3.029   5.823  0.00  0.00    +0.016 A 
ATOM     27  C   UNL     1      -3.079  -3.354   5.317  0.00  0.00    +0.011 A 
ATOM     28  C   UNL     1      -3.897  -4.217   6.016  0.00  0.00    +0.005 A 
ATOM     29  C   UNL     1      -3.472  -4.760   7.215  0.00  0.00    -0.042 A 
ATOM     30  C   UNL     1      -2.224  -4.442   7.723  0.00  0.00    +0.005 A 
ATOM     31  C   UNL     1      -1.393  -3.586   7.031  0.00  0.00    +0.011 A 
BRANCH  29  32
ATOM     32  C   UNL     1      -4.372  -5.701   7.973  0.00  0.00    -0.013 C 
ATOM     33  C   UNL     1      -4.684  -6.920   7.103  0.00  0.00    +0.015 C 
ATOM     34  C   UNL     1      -3.672  -6.155   9.255  0.00  0.00    +0.015 C 
ATOM     35  C   UNL     1      -5.675  -4.983   8.331  0.00  0.00    +0.015 C 
ENDBRANCH  29  32
ENDBRANCH  15  26
TORSDOF 3
