REMARK  Name = ZINC43758067
REMARK  14 active torsions:
REMARK  status: ('A' for Active; 'I' for Inactive)
REMARK    1  A    between atoms: C_1  and  C_2
REMARK    2  A    between atoms: C_2  and  C_4
REMARK    3  A    between atoms: C_2  and  C_10
REMARK    4  A    between atoms: C_4  and  C_5
REMARK    5  A    between atoms: C_5  and  C_6
REMARK    6  A    between atoms: C_6  and  C_7
REMARK    7  A    between atoms: C_7  and  C_8
REMARK    8  A    between atoms: C_7  and  C_9
REMARK    9  A    between atoms: C_16  and  C_44
REMARK   10  A    between atoms: C_23  and  N_38
REMARK   11  A    between atoms: C_27  and  C_37
REMARK   12  A    between atoms: C_30  and  O_33
REMARK   13  A    between atoms: O_33  and  C_34
REMARK   14  A    between atoms: C_34  and  C_36
REMARK                            x       y       z     vdW  Elec       q    Type
REMARK                         _______ _______ _______ _____ _____    ______ ____
ROOT
ATOM      1  C   UNL     1       0.707  -0.748   1.562  0.00  0.00    -0.002 C 
ATOM      2  C   UNL     1       0.749  -2.273   1.341  0.00  0.00    +0.004 C 
ATOM      3  C   UNL     1      -0.044  -2.906   2.506  0.00  0.00    +0.004 C 
ATOM      4  C   UNL     1      -1.004  -1.769   2.965  0.00  0.00    -0.003 C 
ATOM      5  C   UNL     1      -0.097  -0.531   2.851  0.00  0.00    -0.026 C 
ATOM      6  C   UNL     1      -0.872   0.767   2.844  0.00  0.00    +0.007 C 
ATOM      7  C   UNL     1      -1.940   0.754   1.754  0.00  0.00    +0.005 C 
ATOM      8  C   UNL     1      -2.911  -0.403   2.024  0.00  0.00    +0.001 C 
ATOM      9  C   UNL     1      -2.152  -1.736   1.950  0.00  0.00    -0.013 C 
ATOM     10  C   UNL     1      -3.115  -2.881   2.296  0.00  0.00    -0.041 C 
ATOM     11  C   UNL     1      -4.342  -2.797   1.440  0.00  0.00    -0.042 C 
ATOM     12  C   UNL     1      -4.736  -1.710   0.857  0.00  0.00    -0.065 C 
ATOM     13  C   UNL     1      -4.002  -0.367   0.959  0.00  0.00    -0.008 C 
ATOM     14  C   UNL     1      -3.426   0.020  -0.401  0.00  0.00    +0.015 C 
ATOM     15  C   UNL     1      -4.274  -0.583  -1.519  0.00  0.00    +0.046 C 
ATOM     16  C   UNL     1      -5.750  -0.627  -1.128  0.00  0.00    +0.180 C 
ATOM     17  C   UNL     1      -5.981  -1.732  -0.014  0.00  0.00    +0.075 C 
ATOM     18  C   UNL     1      -5.022   0.702   1.354  0.00  0.00    +0.016 C 
ATOM     19  C   UNL     1       0.866  -0.509   4.039  0.00  0.00    +0.012 C 
ENDROOT
BRANCH  10  20
ATOM     20  N   UNL     1      -2.446  -4.168   2.061  0.00  0.00    +0.384 N 
ATOM     21  C   UNL     1      -1.894  -4.189   0.701  0.00  0.00    -0.078 C 
ATOM     22  C   UNL     1      -1.127  -5.495   0.478  0.00  0.00    -0.019 C 
ATOM     23  C   UNL     1      -2.081  -6.678   0.663  0.00  0.00    -0.004 C 
ATOM     24  C   UNL     1      -2.708  -6.604   2.058  0.00  0.00    -0.019 C 
ATOM     25  C   UNL     1      -3.416  -5.258   2.222  0.00  0.00    -0.078 C 
ATOM     26  H   UNL     1      -1.698  -4.283   2.727  0.00  0.00    -0.081 HD
ENDBRANCH  10  20
BRANCH   1  28
ATOM     27  C   UNL     1       0.064   1.454   0.571  0.00  0.00    +0.008 C 
ATOM     28  C   UNL     1       0.009  -0.063   0.384  0.00  0.00    -0.010 C 
BRANCH  28  29
ATOM     29  C   UNL     1       0.717  -0.443  -0.918  0.00  0.00    +0.003 C 
BRANCH  29  30
ATOM     30  C   UNL     1      -0.053   0.139  -2.105  0.00  0.00    +0.001 C 
BRANCH  30  31
ATOM     31  C   UNL     1       0.655  -0.240  -3.407  0.00  0.00    +0.003 C 
BRANCH  31  32
ATOM     32  C   UNL     1      -0.115   0.342  -4.595  0.00  0.00    -0.017 C 
ATOM     33  C   UNL     1      -0.063   1.870  -4.536  0.00  0.00    +0.007 C 
ATOM     34  C   UNL     1       0.520  -0.141  -5.900  0.00  0.00    +0.007 C 
ENDBRANCH  31  32
ENDBRANCH  30  31
ENDBRANCH  29  30
ENDBRANCH  28  29
ENDBRANCH   1  28
BRANCH  16  35
ATOM     35  O   UNL     1      -6.147   0.650  -0.624  0.00  0.00    -0.461 OA
BRANCH  35  36
ATOM     36  C   UNL     1      -6.620   1.537  -1.514  0.00  0.00    +0.304 C 
ATOM     37  O   UNL     1      -6.693   1.239  -2.682  0.00  0.00    -0.251 OA
ATOM     38  C   UNL     1      -7.058   2.904  -1.055  0.00  0.00    +0.136 C 
ENDBRANCH  35  36
ENDBRANCH  16  35
TORSDOF 8
