REMARK  Name = ZINC11911744
REMARK  6 active torsions:
REMARK  status: ('A' for Active; 'I' for Inactive)
REMARK    1  A    between atoms: C_1  and  N_2
REMARK    2  A    between atoms: C_10  and  C_11
REMARK    3  A    between atoms: C_11  and  C_12
REMARK    4  A    between atoms: C_12  and  N_13
REMARK    5  A    between atoms: C_14  and  C_16
REMARK    6  A    between atoms: C_25  and  C_27
REMARK                            x       y       z     vdW  Elec       q    Type
REMARK                         _______ _______ _______ _____ _____    ______ ____
ROOT
ATOM      1  C   UNL     1      -0.997   1.758  -3.630  0.00  0.00    +0.082 C 
ATOM      2  C   UNL     1      -0.346   2.889  -4.428  0.00  0.00    +0.021 C 
ATOM      3  C   UNL     1      -0.370   1.469  -4.993  0.00  0.00    -0.015 C 
ATOM      4  C   UNL     1      -1.314   1.187  -6.166  0.00  0.00    +0.026 C 
ATOM      5  C   UNL     1      -0.563   1.448  -7.478  0.00  0.00    +0.108 C 
ATOM      6  N   UNL     1       0.709   0.716  -7.450  0.00  0.00    -0.298 N 
ATOM      7  C   UNL     1       1.655   0.964  -6.354  0.00  0.00    +0.108 C 
ATOM      8  C   UNL     1       0.950   0.692  -5.020  0.00  0.00    +0.026 C 
ATOM      9  C   UNL     1       1.005  -0.173  -8.418  0.00  0.00    +0.257 C 
ATOM     10  O   UNL     1       2.058  -0.774  -8.388  0.00  0.00    -0.272 OA
ENDROOT
BRANCH   9  11
ATOM     11  C   UNL     1       0.028  -0.421  -9.538  0.00  0.00    +0.263 C 
ATOM     12  C   UNL     1      -0.101   0.829 -10.440  0.00  0.00    +0.093 C 
ATOM     13  C   UNL     1      -0.262   0.208 -11.814  0.00  0.00    -0.002 A 
ATOM     14  C   UNL     1      -0.691   0.724 -13.017  0.00  0.00    +0.007 A 
ATOM     15  C   UNL     1      -0.748  -0.087 -14.136  0.00  0.00    +0.000 A 
ATOM     16  C   UNL     1      -0.372  -1.414 -14.042  0.00  0.00    +0.004 A 
ATOM     17  C   UNL     1       0.061  -1.932 -12.839  0.00  0.00    +0.046 A 
ATOM     18  C   UNL     1       0.124  -1.121 -11.708  0.00  0.00    +0.125 A 
ATOM     19  O   UNL     1       0.531  -1.420 -10.441  0.00  0.00    -0.479 OA
ENDBRANCH   9  11
BRANCH   1  21
ATOM     20  N   UNL     1      -0.842   0.336  -1.612  0.00  0.00    -0.315 N 
ATOM     21  C   UNL     1      -0.268   1.258  -2.409  0.00  0.00    +0.217 C 
ATOM     22  O   UNL     1       0.835   1.687  -2.144  0.00  0.00    -0.275 OA
ATOM     23  H   UNL     1      -1.724  -0.007  -1.824  0.00  0.00    +0.149 HD
BRANCH  20  24
ATOM     24  C   UNL     1      -0.134  -0.150  -0.425  0.00  0.00    +0.112 C 
BRANCH  24  25
ATOM     25  C   UNL     1      -0.999  -1.183   0.298  0.00  0.00    +0.093 C 
BRANCH  25  35
ATOM     26  C   UNL     1       0.907  -3.616   0.408  0.00  0.00    +0.150 C 
ATOM     27  N   UNL     1       0.565  -2.757   1.544  0.00  0.00    -0.331 N 
ATOM     28  C   UNL     1       1.032  -2.884   2.837  0.00  0.00    +0.069 A 
ATOM     29  C   UNL     1       1.896  -3.767   3.470  0.00  0.00    +0.028 A 
ATOM     30  C   UNL     1       2.157  -3.621   4.815  0.00  0.00    +0.002 A 
ATOM     31  C   UNL     1       1.562  -2.597   5.540  0.00  0.00    +0.002 A 
ATOM     32  C   UNL     1       0.710  -1.719   4.933  0.00  0.00    +0.030 A 
ATOM     33  C   UNL     1       0.430  -1.848   3.570  0.00  0.00    +0.089 A 
ATOM     34  N   UNL     1      -0.352  -1.153   2.705  0.00  0.00    -0.232 NA
ATOM     35  C   UNL     1      -0.270  -1.683   1.519  0.00  0.00    +0.112 A 
ENDBRANCH  25  35
ENDBRANCH  24  25
ENDBRANCH  20  24
ENDBRANCH   1  21
TORSDOF 5
