REMARK  Name = ZINC04948556
REMARK  8 active torsions:
REMARK  status: ('A' for Active; 'I' for Inactive)
REMARK    1  A    between atoms: C_1  and  C_2
REMARK    2  A    between atoms: C_2  and  O_3
REMARK    3  A    between atoms: O_3  and  C_4
REMARK    4  A    between atoms: C_4  and  C_6
REMARK    5  A    between atoms: C_7  and  C_29
REMARK    6  A    between atoms: C_14  and  C_16
REMARK    7  A    between atoms: C_25  and  C_27
REMARK    8  A    between atoms: C_25  and  C_28
REMARK                            x       y       z     vdW  Elec       q    Type
REMARK                         _______ _______ _______ _____ _____    ______ ____
ROOT
ATOM      1  C   UNL     1      -0.832   1.645  -3.540  0.00  0.00    +0.101 A 
ATOM      2  C   UNL     1      -0.473   1.403  -4.859  0.00  0.00    -0.023 A 
ATOM      3  C   UNL     1      -1.260   1.935  -5.856  0.00  0.00    -0.003 A 
ATOM      4  C   UNL     1      -2.353   2.689  -5.444  0.00  0.00    +0.075 A 
ATOM      5  S   UNL     1      -2.296   2.650  -3.729  0.00  0.00    -0.066 S 
ATOM      6  N   UNL     1      -3.234   3.300  -6.299  0.00  0.00    -0.312 N 
ATOM      7  C   UNL     1      -2.860   3.437  -7.616  0.00  0.00    +0.016 C 
ATOM      8  C   UNL     1      -1.825   2.748  -8.137  0.00  0.00    +0.024 C 
ATOM      9  C   UNL     1      -1.009   1.755  -7.344  0.00  0.00    +0.086 C 
ATOM     10  C   UNL     1      -1.448   2.934  -9.483  0.00  0.00    +0.162 C 
ATOM     11  O   UNL     1      -0.518   2.294  -9.931  0.00  0.00    -0.292 OA
ATOM     12  C   UNL     1      -2.167   3.904 -10.377  0.00  0.00    +0.086 C 
ATOM     13  C   UNL     1      -2.760   5.029  -9.521  0.00  0.00    -0.023 C 
ATOM     14  C   UNL     1      -3.665   4.396  -8.461  0.00  0.00    +0.058 C 
ATOM     15  C   UNL     1      -1.634   5.808  -8.840  0.00  0.00    +0.011 C 
ATOM     16  C   UNL     1      -3.580   5.971 -10.404  0.00  0.00    +0.011 C 
ATOM     17  C   UNL     1       0.743   0.578  -5.190  0.00  0.00    +0.045 C 
ATOM     18  H   UNL     1      -4.092   3.626  -5.986  0.00  0.00    +0.152 HD
ENDROOT
BRANCH   9  19
ATOM     19  C   UNL     1      -1.395   0.355  -7.749  0.00  0.00    -0.035 A 
ATOM     20  C   UNL     1      -2.697  -0.078  -7.584  0.00  0.00    +0.004 A 
ATOM     21  C   UNL     1      -3.051  -1.360  -7.960  0.00  0.00    +0.000 A 
ATOM     22  C   UNL     1      -2.102  -2.212  -8.493  0.00  0.00    +0.000 A 
ATOM     23  C   UNL     1      -0.799  -1.780  -8.653  0.00  0.00    +0.000 A 
ATOM     24  C   UNL     1      -0.445  -0.497  -8.281  0.00  0.00    +0.004 A 
ENDBRANCH   9  19
BRANCH   1  25
ATOM     25  C   UNL     1      -0.198   1.210  -2.351  0.00  0.00    +0.346 C 
ATOM     26  O   UNL     1       0.804   0.522  -2.413  0.00  0.00    -0.244 OA
BRANCH  25  27
ATOM     27  O   UNL     1      -0.704   1.559  -1.150  0.00  0.00    -0.461 OA
BRANCH  27  29
ATOM     28  C   UNL     1      -0.729   1.579   1.267  0.00  0.00    +0.048 C 
ATOM     29  C   UNL     1      -0.013   1.086   0.008  0.00  0.00    +0.229 C 
ENDBRANCH  27  29
ENDBRANCH  25  27
ENDBRANCH   1  25
TORSDOF 4
