REMARK  Name = ZINC14987083
REMARK  14 active torsions:
REMARK  status: ('A' for Active; 'I' for Inactive)
REMARK    1  A    between atoms: C_1  and  N_2
REMARK    2  A    between atoms: C_3  and  C_15
REMARK    3  A    between atoms: C_6  and  S_7
REMARK    4  A    between atoms: S_7  and  C_8
REMARK    5  A    between atoms: C_8  and  C_9
REMARK    6  A    between atoms: C_15  and  C_17
REMARK    7  A    between atoms: C_15  and  N_24
REMARK    8  A    between atoms: C_17  and  C_18
REMARK    9  A    between atoms: N_24  and  S_25
REMARK   10  A    between atoms: S_25  and  C_28
REMARK   11  A    between atoms: C_30  and  O_36
REMARK   12  A    between atoms: C_33  and  O_34
REMARK   13  A    between atoms: O_34  and  C_35
REMARK   14  A    between atoms: O_36  and  C_37
REMARK                            x       y       z     vdW  Elec       q    Type
REMARK                         _______ _______ _______ _____ _____    ______ ____
ROOT
ATOM      1  C   UNL     1      -1.691   2.505   1.841  0.00  0.00    +0.148 C 
ENDROOT
BRANCH   1   4
ATOM      2  C   UNL     1      -1.275   5.494   0.954  0.00  0.00    +0.152 C 
ATOM      3  N   UNL     1      -1.848   5.038   2.223  0.00  0.00    -0.308 N 
ATOM      4  C   UNL     1      -2.037   3.744   2.626  0.00  0.00    +0.153 A 
ATOM      5  N   UNL     1      -2.565   3.782   3.816  0.00  0.00    -0.132 NA
ATOM      6  N   UNL     1      -2.727   5.002   4.189  0.00  0.00    -0.122 NA
ATOM      7  C   UNL     1      -2.306   5.815   3.248  0.00  0.00    +0.191 A 
BRANCH   7   8
ATOM      8  S   UNL     1      -2.324   7.576   3.301  0.00  0.00    -0.086 S 
BRANCH   8   9
ATOM      9  C   UNL     1      -3.051   7.834   4.938  0.00  0.00    +0.081 C 
BRANCH   9  10
ATOM     10  C   UNL     1      -3.168   9.335   5.213  0.00  0.00    -0.001 C 
ATOM     11  C   UNL     1      -1.770   9.950   5.290  0.00  0.00    +0.004 C 
ATOM     12  C   UNL     1      -1.887  11.451   5.564  0.00  0.00    +0.000 C 
ATOM     13  C   UNL     1      -2.614  11.671   6.892  0.00  0.00    +0.000 C 
ATOM     14  C   UNL     1      -4.013  11.055   6.815  0.00  0.00    +0.000 C 
ATOM     15  C   UNL     1      -3.896   9.555   6.540  0.00  0.00    +0.004 C 
ENDBRANCH   9  10
ENDBRANCH   8   9
ENDBRANCH   7   8
ENDBRANCH   1   4
BRANCH   1  16
ATOM     16  N   UNL     1      -2.751   1.508   2.011  0.00  0.00    -0.179 NA
ATOM     17  H   UNL     1      -2.765   0.946   2.802  0.00  0.00    +0.149 HD
BRANCH  16  18
ATOM     18  S   UNL     1      -3.924   1.341   0.855  0.00  0.00    +0.063 S 
ATOM     19  O   UNL     1      -4.284   2.654   0.448  0.00  0.00    -0.153 OA
ATOM     20  O   UNL     1      -4.873   0.417   1.370  0.00  0.00    -0.153 OA
BRANCH  18  21
ATOM     21  C   UNL     1      -3.175   0.569  -0.540  0.00  0.00    +0.150 A 
ATOM     22  C   UNL     1      -3.471  -0.746  -0.844  0.00  0.00    +0.077 A 
ATOM     23  C   UNL     1      -2.877  -1.355  -1.939  0.00  0.00    +0.122 A 
ATOM     24  C   UNL     1      -1.989  -0.643  -2.732  0.00  0.00    +0.049 A 
ATOM     25  C   UNL     1      -1.698   0.673  -2.432  0.00  0.00    +0.051 A 
ATOM     26  C   UNL     1      -2.292   1.283  -1.337  0.00  0.00    +0.147 A 
BRANCH  26  27
ATOM     27  O   UNL     1      -2.005   2.579  -1.041  0.00  0.00    -0.493 OA
ATOM     28  C   UNL     1      -1.154   3.278  -1.951  0.00  0.00    +0.277 C 
ENDBRANCH  26  27
BRANCH  23  29
ATOM     29  O   UNL     1      -3.164  -2.651  -2.235  0.00  0.00    -0.495 OA
ATOM     30  C   UNL     1      -2.516  -3.215  -3.377  0.00  0.00    +0.277 C 
ENDBRANCH  23  29
ENDBRANCH  18  21
ENDBRANCH  16  18
ENDBRANCH   1  16
BRANCH   1  31
ATOM     31  C   UNL     1      -0.366   1.933   2.349  0.00  0.00    +0.063 C 
BRANCH  31  32
ATOM     32  C   UNL     1       0.047   0.775   1.477  0.00  0.00    -0.045 A 
ATOM     33  C   UNL     1      -0.370  -0.506   1.786  0.00  0.00    +0.004 A 
ATOM     34  C   UNL     1       0.005  -1.568   0.985  0.00  0.00    +0.000 A 
ATOM     35  C   UNL     1       0.806  -1.350  -0.120  0.00  0.00    +0.000 A 
ATOM     36  C   UNL     1       1.228  -0.070  -0.426  0.00  0.00    +0.000 A 
ATOM     37  C   UNL     1       0.849   0.993   0.372  0.00  0.00    +0.004 A 
ENDBRANCH  31  32
ENDBRANCH   1  31
TORSDOF 11
