REMARK  Name = ZINC09015594
REMARK  5 active torsions:
REMARK  status: ('A' for Active; 'I' for Inactive)
REMARK    1  A    between atoms: C_1  and  N_2
REMARK    2  A    between atoms: N_2  and  C_3
REMARK    3  A    between atoms: N_2  and  S_4
REMARK    4  A    between atoms: S_4  and  C_7
REMARK    5  A    between atoms: C_17  and  C_19
REMARK                            x       y       z     vdW  Elec       q    Type
REMARK                         _______ _______ _______ _____ _____    ______ ____
ROOT
ATOM      1  C   UNL     1       1.682  -1.059  -1.905  0.00  0.00    +0.107 A 
ATOM      2  C   UNL     1       2.333  -0.110  -2.680  0.00  0.00    +0.030 A 
ATOM      3  C   UNL     1       3.640  -0.268  -3.058  0.00  0.00    +0.031 A 
ATOM      4  C   UNL     1       4.372  -1.414  -2.667  0.00  0.00    +0.080 A 
ATOM      5  C   UNL     1       3.677  -2.359  -1.879  0.00  0.00    +0.043 A 
ATOM      6  C   UNL     1       2.368  -2.189  -1.500  0.00  0.00    +0.045 A 
ATOM      7  S   UNL     1       4.912  -3.608  -1.608  0.00  0.00    -0.052 S 
ATOM      8  C   UNL     1       6.229  -2.823  -2.527  0.00  0.00    +0.166 A 
ATOM      9  N   UNL     1       5.656  -1.721  -2.951  0.00  0.00    -0.225 NA
ATOM     10  N   UNL     1       7.523  -3.266  -2.739  0.00  0.00    -0.259 N 
ATOM     11  C   UNL     1       8.379  -2.523  -3.468  0.00  0.00    +0.268 C 
ATOM     12  O   UNL     1       8.014  -1.465  -3.941  0.00  0.00    -0.268 OA
ATOM     13  H   UNL     1       7.814  -4.111  -2.361  0.00  0.00    +0.157 HD
ENDROOT
BRANCH  11  14
ATOM     14  C   UNL     1       9.764  -2.997  -3.695  0.00  0.00    +0.126 A 
ATOM     15  C   UNL     1      10.644  -2.208  -4.452  0.00  0.00    +0.033 A 
ATOM     16  C   UNL     1      11.923  -2.633  -4.667  0.00  0.00    +0.012 A 
ATOM     17  C   UNL     1      12.318  -3.865  -4.113  0.00  0.00    +0.000 A 
ATOM     18  C   UNL     1      13.618  -4.363  -4.294  0.00  0.00    +0.010 A 
ATOM     19  C   UNL     1      13.964  -5.558  -3.742  0.00  0.00    +0.001 A 
ATOM     20  C   UNL     1      13.045  -6.298  -2.999  0.00  0.00    +0.002 A 
ATOM     21  C   UNL     1      11.777  -5.848  -2.803  0.00  0.00    +0.028 A 
ATOM     22  C   UNL     1      11.380  -4.615  -3.356  0.00  0.00    +0.072 A 
ATOM     23  N   UNL     1      10.145  -4.148  -3.175  0.00  0.00    -0.242 NA
ENDBRANCH  11  14
BRANCH   1  24
ATOM     24  S   UNL     1      -0.000  -0.824  -1.437  0.00  0.00    +0.060 S 
ATOM     25  O   UNL     1      -0.531  -2.115  -1.167  0.00  0.00    -0.153 OA
ATOM     26  O   UNL     1      -0.572   0.049  -2.401  0.00  0.00    -0.153 OA
BRANCH  24  28
ATOM     27  C   UNL     1      -0.018   1.461   0.010  0.00  0.00    +0.131 C 
ATOM     28  N   UNL     1       0.002  -0.004   0.002  0.00  0.00    -0.183 NA
ATOM     29  C   UNL     1       0.024  -0.743   1.267  0.00  0.00    +0.131 C 
ENDBRANCH  24  28
ENDBRANCH   1  24
TORSDOF 3
