REMARK  Name = ZINC40849281
REMARK  5 active torsions:
REMARK  status: ('A' for Active; 'I' for Inactive)
REMARK    1  A    between atoms: C_1  and  C_2
REMARK    2  A    between atoms: C_5  and  C_8
REMARK    3  A    between atoms: N_21  and  C_22
REMARK    4  A    between atoms: C_22  and  C_23
REMARK    5  A    between atoms: C_33  and  C_35
REMARK                            x       y       z     vdW  Elec       q    Type
REMARK                         _______ _______ _______ _____ _____    ______ ____
ROOT
ATOM      1  C   UNL     1       0.059  -4.251  -0.021  0.00  0.00    +0.169 A 
ATOM      2  N   UNL     1      -0.293  -5.034  -1.024  0.00  0.00    -0.128 NA
ATOM      3  N   UNL     1      -0.152  -6.269  -0.690  0.00  0.00    -0.125 NA
ATOM      4  C   UNL     1       0.298  -6.347   0.545  0.00  0.00    +0.202 A 
ATOM      5  N   UNL     1       0.449  -5.059   1.001  0.00  0.00    -0.271 N 
ATOM      6  C   UNL     1       0.920  -4.846   2.285  0.00  0.00    +0.075 A 
ATOM      7  C   UNL     1       1.079  -3.555   2.774  0.00  0.00    +0.028 A 
ATOM      8  C   UNL     1       1.548  -3.354   4.054  0.00  0.00    +0.002 A 
ATOM      9  C   UNL     1       1.864  -4.435   4.865  0.00  0.00    +0.002 A 
ATOM     10  C   UNL     1       1.713  -5.721   4.400  0.00  0.00    +0.030 A 
ATOM     11  C   UNL     1       1.238  -5.945   3.102  0.00  0.00    +0.090 A 
ATOM     12  N   UNL     1       1.089  -7.215   2.645  0.00  0.00    -0.227 NA
ATOM     13  C   UNL     1       0.639  -7.459   1.435  0.00  0.00    +0.165 A 
ATOM     14  N   UNL     1       0.500  -8.763   0.998  0.00  0.00    -0.317 N 
ATOM     15  H   UNL     1       0.177  -8.942   0.101  0.00  0.00    +0.148 HD
ENDROOT
BRANCH   1  20
ATOM     16  C   UNL     1      -0.017   1.503   0.009  0.00  0.00    +0.044 C 
ATOM     17  C   UNL     1       0.003  -0.004   0.001  0.00  0.00    -0.050 A 
ATOM     18  C   UNL     1       1.179  -0.679   0.279  0.00  0.00    +0.004 A 
ATOM     19  C   UNL     1       1.204  -2.058   0.273  0.00  0.00    +0.012 A 
ATOM     20  C   UNL     1       0.040  -2.773  -0.013  0.00  0.00    +0.020 A 
ATOM     21  C   UNL     1      -1.143  -2.086  -0.292  0.00  0.00    +0.012 A 
ATOM     22  C   UNL     1      -1.156  -0.707  -0.278  0.00  0.00    +0.004 A 
ENDBRANCH   1  20
BRANCH  14  23
ATOM     23  C   UNL     1       0.842  -9.874   1.889  0.00  0.00    +0.199 C 
BRANCH  23  24
ATOM     24  C   UNL     1       0.603 -11.181   1.177  0.00  0.00    +0.237 C 
ATOM     25  O   UNL     1       0.188 -11.183   0.037  0.00  0.00    -0.274 OA
ATOM     26  N   UNL     1       0.850 -12.346   1.806  0.00  0.00    -0.267 N 
ATOM     27  C   UNL     1       1.322 -12.465   3.117  0.00  0.00    +0.040 A 
ATOM     28  C   UNL     1       1.635 -11.465   4.039  0.00  0.00    +0.024 A 
ATOM     29  C   UNL     1       2.092 -11.796   5.297  0.00  0.00    +0.002 A 
ATOM     30  C   UNL     1       2.244 -13.123   5.654  0.00  0.00    +0.000 A 
ATOM     31  C   UNL     1       1.936 -14.120   4.747  0.00  0.00    +0.005 A 
ATOM     32  C   UNL     1       1.478 -13.792   3.485  0.00  0.00    -0.024 A 
ATOM     33  C   UNL     1       1.075 -14.666   2.319  0.00  0.00    +0.059 C 
ATOM     34  C   UNL     1       0.657 -13.675   1.220  0.00  0.00    +0.083 C 
ATOM     35  C   UNL     1       1.549 -13.846  -0.012  0.00  0.00    +0.029 C 
ENDBRANCH  23  24
ENDBRANCH  14  23
TORSDOF 3
