REMARK  Name = ZINC04028539
REMARK  10 active torsions:
REMARK  status: ('A' for Active; 'I' for Inactive)
REMARK    1  A    between atoms: C_1  and  C_2
REMARK    2  A    between atoms: C_8  and  C_33
REMARK    3  A    between atoms: C_9  and  O_32
REMARK    4  A    between atoms: C_19  and  C_21
REMARK    5  A    between atoms: C_21  and  N_61
REMARK    6  A    between atoms: C_22  and  C_23
REMARK    7  A    between atoms: C_22  and  N_61
REMARK    8  A    between atoms: C_23  and  C_24
REMARK    9  A    between atoms: C_29  and  O_30
REMARK   10  A    between atoms: O_30  and  C_31
REMARK                            x       y       z     vdW  Elec       q    Type
REMARK                         _______ _______ _______ _____ _____    ______ ____
ROOT
ATOM      1  C   UNL     1      -3.338  -1.379  -5.465  0.00  0.00    +0.008 C 
ATOM      2  C   UNL     1      -4.593  -1.191  -4.624  0.00  0.00    -0.001 C 
ATOM      3  C   UNL     1      -5.662  -0.448  -5.418  0.00  0.00    +0.008 C 
ATOM      4  C   UNL     1      -6.962  -0.487  -4.601  0.00  0.00    +0.027 C 
ATOM      5  C   UNL     1      -6.689   0.131  -3.258  0.00  0.00    -0.027 C 
ATOM      6  C   UNL     1      -5.515   0.128  -2.704  0.00  0.00    -0.061 C 
ATOM      7  C   UNL     1      -4.285  -0.503  -3.305  0.00  0.00    +0.018 C 
ATOM      8  C   UNL     1      -3.203   0.558  -3.430  0.00  0.00    +0.132 C 
ATOM      9  C   UNL     1      -3.047   1.465  -2.245  0.00  0.00    +0.071 C 
ATOM     10  C   UNL     1      -4.331   1.968  -1.576  0.00  0.00    +0.187 C 
ATOM     11  C   UNL     1      -5.334   0.828  -1.371  0.00  0.00    +0.076 C 
ATOM     12  O   UNL     1      -3.853   2.372  -0.243  0.00  0.00    -0.460 OA
ATOM     13  C   UNL     1      -2.947   1.452   0.154  0.00  0.00    +0.309 C 
ATOM     14  O   UNL     1      -2.752   1.096   1.291  0.00  0.00    -0.251 OA
ATOM     15  C   UNL     1      -2.212   0.936  -1.075  0.00  0.00    +0.090 C 
ATOM     16  C   UNL     1      -3.807  -1.608  -2.349  0.00  0.00    +0.018 C 
ENDROOT
BRANCH   8  17
ATOM     17  O   UNL     1      -3.469   1.387  -4.571  0.00  0.00    -0.391 OA
ATOM     18  H   UNL     1      -2.769   2.024  -4.766  0.00  0.00    +0.210 HD
ENDBRANCH   8  17
BRANCH  15  19
ATOM     19  C   UNL     1      -0.795   1.527  -1.120  0.00  0.00    -0.067 C 
BRANCH  19  20
ATOM     20  N   UNL     1      -0.015   0.998   0.015  0.00  0.00    +0.380 N 
ATOM     21  H   UNL     1       0.032  -0.025  -0.054  0.00  0.00    -0.086 HD
ATOM     22  H   UNL     1      -0.475   1.261   0.894  0.00  0.00    -0.086 HD
BRANCH  20  23
ATOM     23  C   UNL     1       1.353   1.550  -0.003  0.00  0.00    -0.078 C 
BRANCH  23  24
ATOM     24  C   UNL     1       2.136   0.985   1.184  0.00  0.00    +0.020 C 
BRANCH  24  25
ATOM     25  C   UNL     1       3.536   1.544   1.173  0.00  0.00    -0.007 A 
ATOM     26  C   UNL     1       4.562   0.829   0.586  0.00  0.00    +0.007 A 
ATOM     27  C   UNL     1       5.845   1.343   0.571  0.00  0.00    +0.000 A 
ATOM     28  C   UNL     1       6.107   2.570   1.155  0.00  0.00    +0.004 A 
ATOM     29  C   UNL     1       5.086   3.286   1.748  0.00  0.00    +0.046 A 
ATOM     30  C   UNL     1       3.796   2.774   1.759  0.00  0.00    +0.123 A 
BRANCH  30  31
ATOM     31  O   UNL     1       2.790   3.477   2.342  0.00  0.00    -0.495 OA
ATOM     32  C   UNL     1       3.131   4.736   2.925  0.00  0.00    +0.277 C 
ENDBRANCH  30  31
ENDBRANCH  24  25
ENDBRANCH  23  24
ENDBRANCH  20  23
ENDBRANCH  19  20
ENDBRANCH  15  19
TORSDOF 7
