REMARK  Name = ZINC02987104
REMARK  6 active torsions:
REMARK  status: ('A' for Active; 'I' for Inactive)
REMARK    1  A    between atoms: C_1  and  C_2
REMARK    2  A    between atoms: C_5  and  C_8
REMARK    3  A    between atoms: N_10  and  C_11
REMARK    4  A    between atoms: C_11  and  N_13
REMARK    5  A    between atoms: C_16  and  C_19
REMARK    6  A    between atoms: C_22  and  N_25
REMARK                            x       y       z     vdW  Elec       q    Type
REMARK                         _______ _______ _______ _____ _____    ______ ____
ROOT
ATOM      1  N   UNL     1       3.635  -4.811  -0.058  0.00  0.00    -0.169 NA
ATOM      2  C   UNL     1       3.661  -6.199  -0.065  0.00  0.00    +0.162 A 
ATOM      3  N   UNL     1       4.698  -7.015  -0.079  0.00  0.00    -0.335 N 
ATOM      4  C   UNL     1       4.539  -8.330  -0.083  0.00  0.00    +0.055 A 
ATOM      5  C   UNL     1       3.276  -8.853  -0.073  0.00  0.00    +0.074 A 
ATOM      6  S   UNL     1       2.298  -7.356  -0.049  0.00  0.00    -0.060 S 
ATOM      7  H   UNL     1       5.719  -6.606  -0.087  0.00  0.00    +0.168 HD
ENDROOT
BRANCH   4   8
ATOM      8  C   UNL     1       5.720  -9.227  -0.099  0.00  0.00    -0.001 A 
ATOM      9  C   UNL     1       5.548 -10.611  -0.097  0.00  0.00    +0.012 A 
ATOM     10  C   UNL     1       6.651 -11.440  -0.117  0.00  0.00    +0.033 A 
ATOM     11  C   UNL     1       7.925 -10.902  -0.128  0.00  0.00    +0.126 A 
ATOM     12  C   UNL     1       8.101  -9.530  -0.124  0.00  0.00    +0.033 A 
ATOM     13  C   UNL     1       7.006  -8.690  -0.109  0.00  0.00    +0.012 A 
BRANCH  11  14
ATOM     14  N   UNL     1       9.104 -11.797  -0.143  0.00  0.00    +0.056 N 
ATOM     15  O   UNL     1      10.226 -11.325  -0.152  0.00  0.00    -0.126 OA
ATOM     16  O   UNL     1       8.951 -13.005  -0.146  0.00  0.00    -0.126 OA
ENDBRANCH  11  14
ENDBRANCH   4   8
BRANCH   1  17
ATOM     17  C   UNL     1       2.455  -4.159  -0.043  0.00  0.00    +0.163 C 
ATOM     18  S   UNL     1       0.989  -5.043  -0.033  0.00  0.00    -0.016 S 
BRANCH  17  21
ATOM     19  C   UNL     1       1.250  -2.160  -0.021  0.00  0.00    +0.250 C 
ATOM     20  O   UNL     1       0.209  -2.787  -0.014  0.00  0.00    -0.270 OA
ATOM     21  N   UNL     1       2.430  -2.812  -0.036  0.00  0.00    -0.262 N 
ATOM     22  H   UNL     1       3.372  -2.244  -0.042  0.00  0.00    +0.157 HD
BRANCH  19  27
ATOM     23  C   UNL     1       1.142   3.593   0.010  0.00  0.00    +0.044 C 
ATOM     24  C   UNL     1       1.170   2.086   0.002  0.00  0.00    -0.050 A 
ATOM     25  C   UNL     1      -0.017   1.375   0.010  0.00  0.00    +0.004 A 
ATOM     26  C   UNL     1       0.002  -0.004   0.002  0.00  0.00    +0.013 A 
ATOM     27  C   UNL     1       1.222  -0.682  -0.013  0.00  0.00    +0.037 A 
ATOM     28  C   UNL     1       2.416   0.041  -0.021  0.00  0.00    +0.013 A 
ATOM     29  C   UNL     1       2.383   1.420  -0.013  0.00  0.00    +0.004 A 
ENDBRANCH  19  27
ENDBRANCH  17  21
ENDBRANCH   1  17
TORSDOF 5
