REMARK  Name = ZINC39914605
REMARK  8 active torsions:
REMARK  status: ('A' for Active; 'I' for Inactive)
REMARK    1  A    between atoms: C_1  and  C_2
REMARK    2  A    between atoms: C_4  and  O_39
REMARK    3  A    between atoms: C_5  and  C_9
REMARK    4  A    between atoms: N_17  and  C_33
REMARK    5  A    between atoms: C_18  and  C_20
REMARK    6  A    between atoms: C_24  and  O_26
REMARK    7  A    between atoms: O_26  and  C_27
REMARK    8  A    between atoms: C_33  and  C_34
REMARK                            x       y       z     vdW  Elec       q    Type
REMARK                         _______ _______ _______ _____ _____    ______ ____
ROOT
ATOM      1  C   UNL     1      -0.115  -3.893  -0.450  0.00  0.00    +0.102 A 
ATOM      2  C   UNL     1      -0.050  -4.799   0.615  0.00  0.00    +0.035 A 
ATOM      3  C   UNL     1      -0.126  -6.056   0.046  0.00  0.00    +0.126 A 
ATOM      4  N   UNL     1      -0.230  -5.856  -1.302  0.00  0.00    -0.272 N 
ATOM      5  H   UNL     1      -0.301  -6.560  -1.965  0.00  0.00    +0.189 HD
ATOM      6  N   UNL     1      -0.227  -4.597  -1.559  0.00  0.00    -0.173 NA
ATOM      7  C   UNL     1      -0.064  -7.057   1.116  0.00  0.00    +0.266 C 
ATOM      8  O   UNL     1      -0.106  -8.260   0.945  0.00  0.00    -0.268 OA
ATOM      9  N   UNL     1       0.047  -6.456   2.314  0.00  0.00    -0.278 N 
ATOM     10  C   UNL     1       0.065  -5.003   2.101  0.00  0.00    +0.142 C 
ENDROOT
BRANCH   1  15
ATOM     11  C   UNL     1       0.054   1.854  -0.052  0.00  0.00    +0.045 C 
ATOM     12  C   UNL     1       0.008   0.351  -0.158  0.00  0.00    -0.029 A 
ATOM     13  C   UNL     1      -0.931  -0.253  -0.972  0.00  0.00    +0.050 A 
ATOM     14  C   UNL     1      -0.978  -1.634  -1.073  0.00  0.00    +0.126 A 
ATOM     15  C   UNL     1      -0.072  -2.413  -0.348  0.00  0.00    +0.045 A 
ATOM     16  C   UNL     1       0.871  -1.796   0.469  0.00  0.00    +0.034 A 
ATOM     17  C   UNL     1       0.911  -0.418   0.556  0.00  0.00    +0.045 A 
ATOM     18 CL   UNL     1       2.091   0.352   1.571  0.00  0.00    -0.083 Cl
BRANCH  14  19
ATOM     19  O   UNL     1      -1.902  -2.228  -1.872  0.00  0.00    -0.506 OA
ATOM     20  H   UNL     1      -1.602  -2.370  -2.781  0.00  0.00    +0.292 HD
ENDBRANCH  14  19
ENDBRANCH   1  15
BRANCH  10  21
ATOM     21  C   UNL     1      -1.104  -4.361   2.804  0.00  0.00    -0.019 A 
ATOM     22  C   UNL     1      -2.336  -4.989   2.811  0.00  0.00    +0.006 A 
ATOM     23  C   UNL     1      -3.409  -4.403   3.456  0.00  0.00    +0.004 A 
ATOM     24  C   UNL     1      -3.254  -3.188   4.095  0.00  0.00    +0.046 A 
ATOM     25  C   UNL     1      -2.018  -2.556   4.090  0.00  0.00    +0.129 A 
ATOM     26  C   UNL     1      -0.941  -3.149   3.447  0.00  0.00    +0.052 A 
BRANCH  25  27
ATOM     27  O   UNL     1      -1.863  -1.361   4.718  0.00  0.00    -0.456 OA
BRANCH  27  28
ATOM     28  C   UNL     1      -2.921  -0.861   5.409  0.00  0.00    +0.128 A 
ATOM     29  C   UNL     1      -3.234  -1.367   6.662  0.00  0.00    +0.046 A 
ATOM     30  C   UNL     1      -4.309  -0.857   7.363  0.00  0.00    +0.004 A 
ATOM     31  C   UNL     1      -5.074   0.157   6.815  0.00  0.00    +0.000 A 
ATOM     32  C   UNL     1      -4.765   0.662   5.566  0.00  0.00    +0.004 A 
ATOM     33  C   UNL     1      -3.686   0.160   4.864  0.00  0.00    +0.046 A 
ENDBRANCH  27  28
ENDBRANCH  25  27
ENDBRANCH  10  21
BRANCH   9  34
ATOM     34  C   UNL     1       0.134  -7.134   3.610  0.00  0.00    +0.183 C 
BRANCH  34  35
ATOM     35  C   UNL     1       1.580  -7.400   3.941  0.00  0.00    +0.122 A 
ATOM     36  C   UNL     1       2.397  -6.574   4.620  0.00  0.00    +0.046 A 
ATOM     37  C   UNL     1       3.654  -7.216   4.701  0.00  0.00    +0.041 A 
ATOM     38  C   UNL     1       3.530  -8.396   4.066  0.00  0.00    +0.195 A 
ATOM     39  O   UNL     1       2.271  -8.504   3.613  0.00  0.00    -0.466 OA
ENDBRANCH  34  35
ENDBRANCH   9  34
TORSDOF 7
