REMARK  Name = ZINC06760786
REMARK  7 active torsions:
REMARK  status: ('A' for Active; 'I' for Inactive)
REMARK    1  A    between atoms: C_1  and  C_2
REMARK    2  A    between atoms: C_3  and  O_28
REMARK    3  A    between atoms: C_4  and  C_16
REMARK    4  A    between atoms: C_16  and  N_48
REMARK    5  A    between atoms: C_17  and  C_18
REMARK    6  A    between atoms: C_17  and  N_48
REMARK    7  A    between atoms: C_22  and  C_24
REMARK                            x       y       z     vdW  Elec       q    Type
REMARK                         _______ _______ _______ _____ _____    ______ ____
ROOT
ATOM      1  C   UNL     1       0.379   9.360   6.756  0.00  0.00    +0.051 C 
ATOM      2  C   UNL     1       1.344   8.271   6.365  0.00  0.00    +0.034 A 
ATOM      3  C   UNL     1       0.938   6.946   6.373  0.00  0.00    +0.125 A 
ATOM      4  C   UNL     1       1.825   5.931   6.018  0.00  0.00    -0.022 A 
ATOM      5  C   UNL     1       3.104   6.230   5.646  0.00  0.00    +0.017 A 
ATOM      6  C   UNL     1       3.529   7.563   5.627  0.00  0.00    +0.022 A 
ATOM      7  C   UNL     1       2.640   8.591   5.989  0.00  0.00    +0.146 A 
ATOM      8  O   UNL     1       3.056   9.875   5.967  0.00  0.00    -0.422 OA
ATOM      9  C   UNL     1       4.306  10.201   5.607  0.00  0.00    +0.341 A 
ATOM     10  O   UNL     1       4.634  11.374   5.601  0.00  0.00    -0.245 OA
ATOM     11  C   UNL     1       5.253   9.221   5.234  0.00  0.00    +0.041 A 
ATOM     12  C   UNL     1       4.897   7.912   5.235  0.00  0.00    -0.027 A 
ATOM     13  C   UNL     1       6.061   7.049   4.806  0.00  0.00    +0.036 C 
ATOM     14  C   UNL     1       7.305   7.953   4.953  0.00  0.00    +0.010 C 
ATOM     15  C   UNL     1       6.696   9.364   4.799  0.00  0.00    +0.043 C 
ENDROOT
BRANCH   3  16
ATOM     16  O   UNL     1      -0.332   6.633   6.736  0.00  0.00    -0.506 OA
ATOM     17  H   UNL     1      -0.443   6.473   7.683  0.00  0.00    +0.292 HD
ENDBRANCH   3  16
BRANCH   4  18
ATOM     18  C   UNL     1       1.367   4.496   6.039  0.00  0.00    -0.043 C 
BRANCH  18  19
ATOM     19  N   UNL     1       0.595   4.217   4.813  0.00  0.00    +0.384 N 
ATOM     20  H   UNL     1       1.191   4.381   3.993  0.00  0.00    -0.085 HD
ATOM     21  H   UNL     1      -0.218   4.842   4.775  0.00  0.00    -0.085 HD
BRANCH  19  22
ATOM     22  C   UNL     1       0.134   2.816   4.806  0.00  0.00    -0.046 C 
BRANCH  22  23
ATOM     23  C   UNL     1      -0.650   2.561   3.544  0.00  0.00    -0.064 A 
ATOM     24  C   UNL     1      -2.016   2.773   3.524  0.00  0.00    +0.002 A 
ATOM     25  C   UNL     1      -2.735   2.539   2.367  0.00  0.00    +0.001 A 
ATOM     26  C   UNL     1      -2.087   2.098   1.228  0.00  0.00    +0.012 A 
ATOM     27  C   UNL     1      -0.722   1.881   1.250  0.00  0.00    +0.055 A 
ATOM     28  C   UNL     1      -0.003   2.115   2.407  0.00  0.00    +0.014 A 
BRANCH  27  29
ATOM     29  C   UNL     1      -0.017   1.395   0.010  0.00  0.00    +0.417 C 
ATOM     30  F   UNL     1       0.002  -0.004   0.002  0.00  0.00    -0.166 F 
ATOM     31  F   UNL     1       1.296   1.879  -0.000  0.00  0.00    -0.166 F 
ATOM     32  F   UNL     1      -0.694   1.858  -1.124  0.00  0.00    -0.166 F 
ENDBRANCH  27  29
ENDBRANCH  22  23
ENDBRANCH  19  22
ENDBRANCH  18  19
ENDBRANCH   4  18
TORSDOF 6
