REMARK  Name = ZINC16886258
REMARK  10 active torsions:
REMARK  status: ('A' for Active; 'I' for Inactive)
REMARK    1  A    between atoms: C_1  and  C_2
REMARK    2  A    between atoms: C_4  and  C_22
REMARK    3  A    between atoms: C_5  and  C_9
REMARK    4  A    between atoms: C_6  and  C_8
REMARK    5  A    between atoms: C_9  and  S_10
REMARK    6  A    between atoms: S_10  and  C_11
REMARK    7  A    between atoms: C_13  and  O_21
REMARK    8  A    between atoms: C_14  and  C_18
REMARK    9  A    between atoms: C_15  and  O_17
REMARK   10  A    between atoms: C_18  and  C_19
REMARK                            x       y       z     vdW  Elec       q    Type
REMARK                         _______ _______ _______ _____ _____    ______ ____
ROOT
ATOM      1  C   UNL     1      -3.670   0.533  -3.215  0.00  0.00    +0.195 A 
ATOM      2  N   UNL     1      -3.769  -0.101  -2.056  0.00  0.00    -0.187 NA
ATOM      3  C   UNL     1      -3.041   0.277  -1.010  0.00  0.00    +0.223 A 
ATOM      4  C   UNL     1      -2.170   1.352  -1.144  0.00  0.00    +0.079 A 
ATOM      5  C   UNL     1      -2.096   1.996  -2.374  0.00  0.00    +0.223 A 
ATOM      6  N   UNL     1      -2.850   1.561  -3.379  0.00  0.00    -0.187 NA
ENDROOT
BRANCH   5   7
ATOM      7  O   UNL     1      -1.264   3.052  -2.547  0.00  0.00    -0.492 OA
ATOM      8  H   UNL     1      -0.378   2.809  -2.848  0.00  0.00    +0.294 HD
ENDBRANCH   5   7
BRANCH   3   9
ATOM      9  O   UNL     1      -3.148  -0.377   0.173  0.00  0.00    -0.492 OA
ATOM     10  H   UNL     1      -3.823  -0.013   0.763  0.00  0.00    +0.294 HD
ENDBRANCH   3   9
BRANCH   1  11
ATOM     11  S   UNL     1      -4.655  -0.003  -4.574  0.00  0.00    -0.081 S 
BRANCH  11  12
ATOM     12  C   UNL     1      -4.123   1.181  -5.835  0.00  0.00    +0.113 C 
BRANCH  12  17
ATOM     13  C   UNL     1      -6.932   0.127 -10.774  0.00  0.00    +0.044 C 
ATOM     14  C   UNL     1      -6.199   0.402  -9.486  0.00  0.00    -0.050 A 
ATOM     15  C   UNL     1      -6.735   1.278  -8.560  0.00  0.00    +0.007 A 
ATOM     16  C   UNL     1      -6.063   1.529  -7.378  0.00  0.00    -0.046 A 
ATOM     17  C   UNL     1      -4.856   0.906  -7.123  0.00  0.00    -0.031 A 
ATOM     18  C   UNL     1      -4.317   0.035  -8.052  0.00  0.00    -0.046 A 
ATOM     19  C   UNL     1      -4.992  -0.221  -9.231  0.00  0.00    +0.007 A 
ATOM     20  C   UNL     1      -2.998  -0.640  -7.777  0.00  0.00    +0.044 C 
ATOM     21  C   UNL     1      -6.646   2.483  -6.368  0.00  0.00    +0.044 C 
ENDBRANCH  12  17
ENDBRANCH  11  12
ENDBRANCH   1  11
BRANCH   4  22
ATOM     22  C   UNL     1      -1.328   1.812   0.018  0.00  0.00    +0.072 C 
BRANCH  22  23
ATOM     23  C   UNL     1      -0.013   1.076   0.008  0.00  0.00    -0.029 C 
ATOM     24  C   UNL     1       1.113   1.746   0.001  0.00  0.00    +0.004 C 
ENDBRANCH  22  23
ENDBRANCH   4  22
TORSDOF 7
