REMARK  Name = ZINC14960621
REMARK  9 active torsions:
REMARK  status: ('A' for Active; 'I' for Inactive)
REMARK    1  A    between atoms: C_1  and  C_2
REMARK    2  A    between atoms: C_2  and  C_3
REMARK    3  A    between atoms: C_9  and  O_14
REMARK    4  A    between atoms: O_14  and  C_15
REMARK    5  A    between atoms: C_16  and  C_17
REMARK    6  A    between atoms: C_16  and  N_50
REMARK    7  A    between atoms: C_19  and  O_24
REMARK    8  A    between atoms: C_22  and  O_23
REMARK    9  A    between atoms: O_24  and  C_25
REMARK                            x       y       z     vdW  Elec       q    Type
REMARK                         _______ _______ _______ _____ _____    ______ ____
ROOT
ATOM      1  C   UNL     1      -0.011   1.501   0.794  0.00  0.00    +0.157 C 
ATOM      2  C   UNL     1       1.390   2.002   0.517  0.00  0.00    -0.033 C 
ATOM      3  C   UNL     1       0.818   3.948  -0.830  0.00  0.00    -0.039 C 
ATOM      4  C   UNL     1      -0.662   4.120  -0.547  0.00  0.00    -0.019 A 
ATOM      5  C   UNL     1      -1.218   5.381  -0.507  0.00  0.00    +0.051 A 
ATOM      6  C   UNL     1      -2.578   5.525  -0.265  0.00  0.00    +0.121 A 
ATOM      7  C   UNL     1      -3.369   4.403  -0.067  0.00  0.00    +0.049 A 
ATOM      8  C   UNL     1      -2.806   3.142  -0.101  0.00  0.00    +0.049 A 
ATOM      9  C   UNL     1      -1.445   3.001  -0.334  0.00  0.00    +0.122 A 
ATOM     10  O   UNL     1      -0.874   1.765  -0.319  0.00  0.00    -0.490 OA
ATOM     11  N   UNL     1       1.466   3.474   0.416  0.00  0.00    +0.388 N 
ATOM     12  H   UNL     1       0.976   3.885   1.220  0.00  0.00    -0.081 HD
ENDROOT
BRANCH   1  14
ATOM     13  C   UNL     1      -1.358  -0.497   1.453  0.00  0.00    +0.007 C 
ATOM     14  C   UNL     1       0.034  -0.007   1.050  0.00  0.00    +0.039 C 
ENDBRANCH   1  14
BRANCH   6  15
ATOM     15  O   UNL     1      -3.133   6.766  -0.222  0.00  0.00    -0.495 OA
ATOM     16  C   UNL     1      -4.538   6.839   0.032  0.00  0.00    +0.277 C 
ENDBRANCH   6  15
BRANCH  11  17
ATOM     17  C   UNL     1       2.873   3.905   0.445  0.00  0.00    -0.039 C 
BRANCH  17  18
ATOM     18  C   UNL     1       2.910   5.390   0.698  0.00  0.00    -0.019 A 
ATOM     19  C   UNL     1       3.234   6.258  -0.328  0.00  0.00    +0.051 A 
ATOM     20  C   UNL     1       3.268   7.624  -0.096  0.00  0.00    +0.121 A 
ATOM     21  C   UNL     1       2.975   8.121   1.166  0.00  0.00    +0.049 A 
ATOM     22  C   UNL     1       2.651   7.254   2.192  0.00  0.00    +0.049 A 
ATOM     23  C   UNL     1       2.613   5.887   1.958  0.00  0.00    +0.118 A 
BRANCH  23  24
ATOM     24  O   UNL     1       2.288   5.034   2.966  0.00  0.00    -0.507 OA
ATOM     25  H   UNL     1       3.035   4.788   3.529  0.00  0.00    +0.292 HD
ENDBRANCH  23  24
BRANCH  20  26
ATOM     26  O   UNL     1       3.586   8.478  -1.105  0.00  0.00    -0.495 OA
ATOM     27  C   UNL     1       3.601   9.873  -0.795  0.00  0.00    +0.277 C 
ENDBRANCH  20  26
ENDBRANCH  17  18
ENDBRANCH  11  17
TORSDOF 6
