REMARK  Name = ZINC00639255
REMARK  8 active torsions:
REMARK  status: ('A' for Active; 'I' for Inactive)
REMARK    1  A    between atoms: C_1  and  C_2
REMARK    2  A    between atoms: C_2  and  O_3
REMARK    3  A    between atoms: O_3  and  C_4
REMARK    4  A    between atoms: C_7  and  C_11
REMARK    5  A    between atoms: C_13  and  C_31
REMARK    6  A    between atoms: C_14  and  N_30
REMARK    7  A    between atoms: N_15  and  N_23
REMARK    8  A    between atoms: N_23  and  C_24
REMARK                            x       y       z     vdW  Elec       q    Type
REMARK                         _______ _______ _______ _____ _____    ______ ____
ROOT
ATOM      1  C   UNL     1       0.052   0.052  -0.060  0.00  0.00    +0.097 C 
ATOM      2  C   UNL     1       0.087   1.548  -0.169  0.00  0.00    +0.078 C 
ATOM      3  C   UNL     1       1.245   2.205  -0.438  0.00  0.00    +0.119 C 
ATOM      4  N   UNL     1       2.413   1.501  -0.609  0.00  0.00    -0.211 N 
ATOM      5  C   UNL     1       2.532   0.224  -0.131  0.00  0.00    +0.039 C 
ATOM      6  C   UNL     1       1.435  -0.511   0.148  0.00  0.00    +0.026 C 
ATOM      7  C   UNL     1       1.548  -1.824   0.639  0.00  0.00    +0.162 C 
ATOM      8  O   UNL     1       0.541  -2.453   0.896  0.00  0.00    -0.292 OA
ATOM      9  C   UNL     1       2.893  -2.463   0.852  0.00  0.00    +0.080 C 
ATOM     10  C   UNL     1       3.897  -1.852  -0.131  0.00  0.00    +0.014 C 
ATOM     11  C   UNL     1       3.918  -0.336   0.079  0.00  0.00    +0.053 C 
ENDROOT
BRANCH   1  15
ATOM     12  C   UNL     1      -1.595  -1.577  -3.653  0.00  0.00    +0.157 A 
ATOM     13  C   UNL     1      -2.164  -1.885  -2.425  0.00  0.00    +0.084 A 
ATOM     14  C   UNL     1      -1.629  -1.357  -1.264  0.00  0.00    +0.028 A 
ATOM     15  C   UNL     1      -0.529  -0.522  -1.326  0.00  0.00    -0.032 A 
ATOM     16  C   UNL     1       0.036  -0.208  -2.549  0.00  0.00    +0.028 A 
ATOM     17  C   UNL     1      -0.491  -0.738  -3.712  0.00  0.00    +0.084 A 
ATOM     18 CL   UNL     1       0.224  -0.350  -5.245  0.00  0.00    -0.080 Cl
ATOM     19 CL   UNL     1      -3.546  -2.933  -2.346  0.00  0.00    -0.080 Cl
BRANCH  12  20
ATOM     20  O   UNL     1      -2.119  -2.095  -4.795  0.00  0.00    -0.489 OA
BRANCH  20  22
ATOM     21  C   UNL     1      -3.603  -2.070  -6.703  0.00  0.00    +0.048 C 
ATOM     22  C   UNL     1      -3.140  -1.334  -5.444  0.00  0.00    +0.226 C 
ENDBRANCH  20  22
ENDBRANCH  12  20
ENDBRANCH   1  15
BRANCH   3  23
ATOM     23  N   UNL     1       1.248   3.575  -0.541  0.00  0.00    -0.344 N 
ATOM     24  H   UNL     1       0.424   4.072  -0.421  0.00  0.00    +0.144 HD
ATOM     25  H   UNL     1       2.075   4.045  -0.734  0.00  0.00    +0.144 HD
ENDBRANCH   3  23
BRANCH   4  26
ATOM     26  N   UNL     1       3.491   2.096  -1.277  0.00  0.00    -0.259 N 
ATOM     27  H   UNL     1       3.681   1.860  -2.198  0.00  0.00    +0.171 HD
BRANCH  26  28
ATOM     28  C   UNL     1       4.293   3.029  -0.616  0.00  0.00    +0.045 A 
ATOM     29  C   UNL     1       4.091   3.290   0.733  0.00  0.00    +0.024 A 
ATOM     30  C   UNL     1       4.889   4.210   1.385  0.00  0.00    +0.002 A 
ATOM     31  C   UNL     1       5.882   4.879   0.693  0.00  0.00    +0.000 A 
ATOM     32  C   UNL     1       6.083   4.626  -0.652  0.00  0.00    +0.002 A 
ATOM     33  C   UNL     1       5.292   3.703  -1.308  0.00  0.00    +0.024 A 
ENDBRANCH  26  28
ENDBRANCH   4  26
BRANCH   2  34
ATOM     34  C   UNL     1      -1.122   2.295   0.009  0.00  0.00    +0.099 C 
ATOM     35  N   UNL     1      -2.081   2.888   0.150  0.00  0.00    -0.191 NA
ENDBRANCH   2  34
TORSDOF 7
