REMARK  Name = ZINC33528719
REMARK  8 active torsions:
REMARK  status: ('A' for Active; 'I' for Inactive)
REMARK    1  A    between atoms: C_1  and  C_2
REMARK    2  A    between atoms: C_3  and  C_30
REMARK    3  A    between atoms: C_4  and  N_13
REMARK    4  A    between atoms: N_5  and  C_7
REMARK    5  A    between atoms: N_22  and  C_23
REMARK    6  A    between atoms: C_23  and  C_24
REMARK    7  A    between atoms: C_31  and  C_32
REMARK    8  A    between atoms: C_31  and  C_33
REMARK                            x       y       z     vdW  Elec       q    Type
REMARK                         _______ _______ _______ _____ _____    ______ ____
ROOT
ATOM      1  C   UNL     1       2.322  -1.298  -4.067  0.00  0.00    +0.065 C 
ATOM      2  C   UNL     1       3.253  -0.164  -3.725  0.00  0.00    +0.040 A 
ATOM      3  C   UNL     1       4.495  -0.286  -3.064  0.00  0.00    +0.036 A 
ATOM      4  C   UNL     1       5.028   0.993  -2.953  0.00  0.00    +0.134 A 
ATOM      5  N   UNL     1       4.135   1.846  -3.521  0.00  0.00    -0.240 N 
ATOM      6  N   UNL     1       3.047   1.098  -3.985  0.00  0.00    -0.295 N 
ATOM      7  H   UNL     1       2.124   1.411  -4.496  0.00  0.00    +0.187 HD
ENDROOT
BRANCH   4   8
ATOM      8  N   UNL     1       6.240   1.334  -2.372  0.00  0.00    -0.269 N 
ATOM      9  C   UNL     1       6.616   0.762  -1.173  0.00  0.00    +0.202 A 
ATOM     10  N   UNL     1       5.872  -0.044  -0.458  0.00  0.00    -0.214 NA
ATOM     11  C   UNL     1       6.549  -0.420   0.659  0.00  0.00    +0.091 A 
ATOM     12  C   UNL     1       6.235  -1.249   1.739  0.00  0.00    +0.030 A 
ATOM     13  C   UNL     1       7.155  -1.438   2.745  0.00  0.00    +0.002 A 
ATOM     14  C   UNL     1       8.392  -0.812   2.696  0.00  0.00    +0.002 A 
ATOM     15  C   UNL     1       8.718   0.009   1.636  0.00  0.00    +0.028 A 
ATOM     16  C   UNL     1       7.803   0.212   0.614  0.00  0.00    +0.070 A 
ATOM     17  N   UNL     1       7.822   0.949  -0.558  0.00  0.00    -0.307 N 
ATOM     18  H   UNL     1       6.902   2.059  -2.867  0.00  0.00    +0.156 HD
BRANCH  17  19
ATOM     19  C   UNL     1       8.927   1.778  -1.047  0.00  0.00    +0.160 C 
BRANCH  19  20
ATOM     20  C   UNL     1       8.777   3.180  -0.515  0.00  0.00    -0.028 A 
ATOM     21  C   UNL     1       8.065   4.120  -1.237  0.00  0.00    +0.005 A 
ATOM     22  C   UNL     1       7.923   5.405  -0.747  0.00  0.00    +0.000 A 
ATOM     23  C   UNL     1       8.502   5.752   0.460  0.00  0.00    +0.000 A 
ATOM     24  C   UNL     1       9.217   4.813   1.179  0.00  0.00    +0.000 A 
ATOM     25  C   UNL     1       9.355   3.527   0.692  0.00  0.00    +0.005 A 
ENDBRANCH  19  20
ENDBRANCH  17  19
ENDBRANCH   4   8
BRANCH   5  26
ATOM     26  C   UNL     1       4.278   3.236  -3.624  0.00  0.00    +0.065 A 
ATOM     27  C   UNL     1       4.915   3.946  -2.614  0.00  0.00    +0.028 A 
ATOM     28  C   UNL     1       5.059   5.316  -2.720  0.00  0.00    +0.002 A 
ATOM     29  C   UNL     1       4.562   5.981  -3.826  0.00  0.00    +0.000 A 
ATOM     30  C   UNL     1       3.923   5.278  -4.830  0.00  0.00    +0.002 A 
ATOM     31  C   UNL     1       3.780   3.907  -4.732  0.00  0.00    +0.028 A 
ENDBRANCH   5  26
BRANCH   3  32
ATOM     32  C   UNL     1       5.113  -1.534  -2.588  0.00  0.00    +0.017 C 
ATOM     33  C   UNL     1       4.460  -2.316  -1.712  0.00  0.00    -0.043 C 
ATOM     34  C   UNL     1       5.095  -3.591  -1.219  0.00  0.00    +0.044 C 
BRANCH  33  35
ATOM     35  C   UNL     1       3.122  -1.927  -1.232  0.00  0.00    -0.022 A 
ATOM     36  C   UNL     1       2.014  -2.732  -1.513  0.00  0.00    +0.008 A 
ATOM     37  C   UNL     1       0.765  -2.361  -1.060  0.00  0.00    +0.001 A 
ATOM     38  C   UNL     1       0.607  -1.196  -0.331  0.00  0.00    +0.000 A 
ATOM     39  C   UNL     1       1.699  -0.394  -0.050  0.00  0.00    +0.001 A 
ATOM     40  C   UNL     1       2.954  -0.751  -0.495  0.00  0.00    +0.008 A 
ENDBRANCH  33  35
ENDBRANCH   3  32
TORSDOF 6
