REMARK  Name = ZINC45091862
REMARK  8 active torsions:
REMARK  status: ('A' for Active; 'I' for Inactive)
REMARK    1  A    between atoms: C_1  and  C_2
REMARK    2  A    between atoms: C_2  and  C_3
REMARK    3  A    between atoms: C_2  and  C_4
REMARK    4  A    between atoms: C_2  and  C_5
REMARK    5  A    between atoms: C_5  and  N_6
REMARK    6  A    between atoms: N_6  and  C_7
REMARK    7  A    between atoms: N_6  and  S_8
REMARK    8  A    between atoms: S_8  and  C_11
REMARK                            x       y       z     vdW  Elec       q    Type
REMARK                         _______ _______ _______ _____ _____    ______ ____
ROOT
ATOM      1  S   UNL     1       2.143   1.469  -1.994  0.00  0.00    +0.064 S 
ATOM      2  O   UNL     1       3.148   1.614  -2.987  0.00  0.00    -0.153 OA
ATOM      3  O   UNL     1       0.774   1.749  -2.249  0.00  0.00    -0.153 OA
ENDROOT
BRANCH   1   4
ATOM      4  C   UNL     1       2.622   2.489  -0.639  0.00  0.00    +0.154 A 
ATOM      5  C   UNL     1       1.659   3.027   0.197  0.00  0.00    +0.153 A 
ATOM      6  C   UNL     1       2.035   3.829   1.261  0.00  0.00    +0.078 A 
ATOM      7  C   UNL     1       3.375   4.092   1.488  0.00  0.00    +0.127 A 
ATOM      8  C   UNL     1       4.338   3.553   0.651  0.00  0.00    +0.055 A 
ATOM      9  C   UNL     1       3.961   2.748  -0.409  0.00  0.00    +0.050 A 
ATOM     10 BR   UNL     1       5.277   2.006  -1.547  0.00  0.00    -0.048 Br
ATOM     11  F   UNL     1       3.744   4.874   2.525  0.00  0.00    -0.205 F 
ATOM     12  F   UNL     1       0.351   2.770  -0.026  0.00  0.00    -0.203 F 
ENDBRANCH   1   4
BRANCH   1  13
ATOM     13  N   UNL     1       2.215  -0.102  -1.473  0.00  0.00    -0.179 NA
ATOM     14  C   UNL     1       3.486  -0.830  -1.516  0.00  0.00    +0.131 C 
BRANCH  13  15
ATOM     15  C   UNL     1       1.009  -0.762  -0.969  0.00  0.00    +0.115 C 
BRANCH  15  17
ATOM     16  C   UNL     1       1.363  -2.760  -2.427  0.00  0.00    +0.012 C 
ATOM     17  C   UNL     1       0.399  -1.625  -2.076  0.00  0.00    -0.023 C 
ATOM     18  C   UNL     1       0.152  -0.764  -3.316  0.00  0.00    +0.012 C 
ATOM     19  C   UNL     1      -0.927  -2.214  -1.591  0.00  0.00    +0.012 C 
ENDBRANCH  15  17
ENDBRANCH  13  15
ENDBRANCH   1  13
TORSDOF 4
