REMARK  Name = ZINC36638045
REMARK  11 active torsions:
REMARK  status: ('A' for Active; 'I' for Inactive)
REMARK    1  A    between atoms: C_1  and  C_2
REMARK    2  A    between atoms: C_2  and  N_3
REMARK    3  A    between atoms: N_3  and  C_4
REMARK    4  A    between atoms: N_3  and  C_6
REMARK    5  A    between atoms: C_4  and  C_5
REMARK    6  A    between atoms: C_6  and  C_7
REMARK    7  A    between atoms: C_7  and  N_8
REMARK    8  A    between atoms: C_19  and  C_21
REMARK    9  A    between atoms: C_24  and  S_27
REMARK   10  A    between atoms: S_27  and  N_30
REMARK   11  A    between atoms: C_34  and  C_37
REMARK                            x       y       z     vdW  Elec       q    Type
REMARK                         _______ _______ _______ _____ _____    ______ ____
ROOT
ATOM      1  N   UNL     1       1.500  -3.873  -2.950  0.00  0.00    -0.248 N 
ATOM      2  C   UNL     1       0.491  -4.444  -3.707  0.00  0.00    +0.168 A 
ATOM      3  N   UNL     1      -0.150  -3.943  -4.736  0.00  0.00    -0.221 NA
ATOM      4  C   UNL     1      -1.122  -4.620  -5.386  0.00  0.00    +0.115 A 
ATOM      5  C   UNL     1      -1.887  -4.198  -6.500  0.00  0.00    +0.150 A 
ATOM      6  C   UNL     1      -2.844  -5.017  -7.044  0.00  0.00    +0.040 A 
ATOM      7  C   UNL     1      -3.096  -6.279  -6.526  0.00  0.00    +0.004 A 
ATOM      8  C   UNL     1      -2.368  -6.723  -5.438  0.00  0.00    +0.017 A 
ATOM      9  C   UNL     1      -1.408  -5.911  -4.887  0.00  0.00    +0.044 A 
ATOM     10  S   UNL     1      -0.263  -6.056  -3.536  0.00  0.00    -0.052 S 
ATOM     11  F   UNL     1      -1.671  -2.975  -7.034  0.00  0.00    -0.203 F 
ATOM     12  C   UNL     1       2.115  -4.594  -1.991  0.00  0.00    +0.252 C 
ATOM     13  O   UNL     1       1.845  -5.771  -1.849  0.00  0.00    -0.270 OA
ENDROOT
BRANCH  12  14
ATOM     14  C   UNL     1       3.116  -3.955  -1.112  0.00  0.00    +0.037 A 
ATOM     15  C   UNL     1       3.062  -2.581  -0.872  0.00  0.00    +0.015 A 
ATOM     16  C   UNL     1       4.000  -1.990  -0.051  0.00  0.00    +0.029 A 
ATOM     17  C   UNL     1       4.993  -2.756   0.534  0.00  0.00    +0.106 A 
ATOM     18  C   UNL     1       5.052  -4.118   0.299  0.00  0.00    +0.029 A 
ATOM     19  C   UNL     1       4.117  -4.723  -0.515  0.00  0.00    +0.015 A 
BRANCH  17  20
ATOM     20  S   UNL     1       6.188  -1.993   1.580  0.00  0.00    +0.061 S 
ATOM     21  O   UNL     1       7.334  -2.833   1.567  0.00  0.00    -0.153 OA
ATOM     22  O   UNL     1       6.242  -0.624   1.204  0.00  0.00    -0.153 OA
BRANCH  20  23
ATOM     23  N   UNL     1       5.586  -2.036   3.123  0.00  0.00    -0.176 NA
ATOM     24  C   UNL     1       4.755  -0.938   3.633  0.00  0.00    +0.109 C 
ATOM     25  C   UNL     1       3.444  -1.520   4.170  0.00  0.00    +0.017 C 
ATOM     26  C   UNL     1       3.757  -2.603   5.204  0.00  0.00    +0.006 C 
ATOM     27  C   UNL     1       4.550  -3.731   4.539  0.00  0.00    +0.002 C 
ATOM     28  C   UNL     1       5.869  -3.177   4.004  0.00  0.00    +0.112 C 
ATOM     29  C   UNL     1       4.834  -4.830   5.566  0.00  0.00    +0.009 C 
ENDBRANCH  20  23
ENDBRANCH  17  20
ENDBRANCH  12  14
BRANCH   1  30
ATOM     30  C   UNL     1       1.900  -2.485  -3.191  0.00  0.00    +0.097 C 
BRANCH  30  31
ATOM     31  C   UNL     1       0.810  -1.543  -2.675  0.00  0.00    -0.059 C 
BRANCH  31  32
ATOM     32  N   UNL     1       1.263  -0.152  -2.805  0.00  0.00    +0.380 N 
ATOM     33  H   UNL     1       2.133  -0.034  -2.308  0.00  0.00    -0.082 HD
BRANCH  32  35
ATOM     34  C   UNL     1       2.052   1.574  -4.353  0.00  0.00    -0.017 C 
ATOM     35  C   UNL     1       1.462   0.168  -4.225  0.00  0.00    -0.082 C 
ENDBRANCH  32  35
BRANCH  32  36
ATOM     36  C   UNL     1       0.249   0.748  -2.238  0.00  0.00    -0.082 C 
ATOM     37  C   UNL     1       0.127   0.495  -0.734  0.00  0.00    -0.017 C 
ENDBRANCH  32  36
ENDBRANCH  31  32
ENDBRANCH  30  31
ENDBRANCH   1  30
TORSDOF 8
