REMARK  Name = ZINC04326661
REMARK  5 active torsions:
REMARK  status: ('A' for Active; 'I' for Inactive)
REMARK    1  A    between atoms: C_7  and  C_11
REMARK    2  A    between atoms: N_12  and  N_13
REMARK    3  A    between atoms: C_14  and  C_16
REMARK    4  A    between atoms: C_16  and  O_17
REMARK    5  A    between atoms: O_17  and  C_18
REMARK                            x       y       z     vdW  Elec       q    Type
REMARK                         _______ _______ _______ _____ _____    ______ ____
ROOT
ATOM      1  N   UNL     1       1.965   6.551   0.018  0.00  0.00    -0.204 N 
ATOM      2  C   UNL     1       1.446   7.795   0.029  0.00  0.00    +0.270 C 
ATOM      3  O   UNL     1       0.242   7.949   0.041  0.00  0.00    -0.270 OA
ATOM      4  H   UNL     1       2.927   6.427   0.008  0.00  0.00    +0.177 HD
ENDROOT
BRANCH   1   6
ATOM      5  C   UNL     1       1.615   4.238   0.009  0.00  0.00    +0.140 C 
ATOM      6  N   UNL     1       1.115   5.437   0.020  0.00  0.00    -0.188 NA
BRANCH   5  13
ATOM      7  C   UNL     1      -3.045   3.774   0.048  0.00  0.00    +0.001 A 
ATOM      8  C   UNL     1      -3.443   2.444   0.045  0.00  0.00    +0.002 A 
ATOM      9  C   UNL     1      -2.510   1.432   0.031  0.00  0.00    +0.026 A 
ATOM     10  C   UNL     1      -1.153   1.738   0.016  0.00  0.00    +0.047 A 
ATOM     11  C   UNL     1      -0.751   3.084   0.024  0.00  0.00    +0.008 A 
ATOM     12  C   UNL     1      -1.706   4.098   0.038  0.00  0.00    +0.010 A 
ATOM     13  C   UNL     1       0.723   3.068   0.011  0.00  0.00    +0.020 A 
ATOM     14  C   UNL     1       1.096   1.760   0.001  0.00  0.00    +0.093 A 
ATOM     15  N   UNL     1      -0.011   0.966   0.007  0.00  0.00    -0.360 N 
ATOM     16  H   UNL     1       0.002  -0.004   0.002  0.00  0.00    +0.165 HD
ENDBRANCH   5  13
ENDBRANCH   1   6
BRANCH   2  17
ATOM     17  C   UNL     1       2.360   8.993   0.027  0.00  0.00    +0.326 C 
BRANCH  17  18
ATOM     18  O   UNL     1       1.578  10.188   0.040  0.00  0.00    -0.481 OA
BRANCH  18  19
ATOM     19  C   UNL     1       2.253  11.368   0.040  0.00  0.00    +0.141 A 
ATOM     20  C   UNL     1       3.640  11.374   0.027  0.00  0.00    +0.047 A 
ATOM     21  C   UNL     1       4.326  12.573   0.027  0.00  0.00    +0.005 A 
ATOM     22  C   UNL     1       3.631  13.769   0.039  0.00  0.00    +0.022 A 
ATOM     23  C   UNL     1       2.248  13.767   0.052  0.00  0.00    +0.063 A 
ATOM     24  C   UNL     1       1.557  12.568   0.047  0.00  0.00    +0.101 A 
ATOM     25 CL   UNL     1      -0.179  12.565   0.056  0.00  0.00    -0.078 Cl
ATOM     26 CL   UNL     1       1.378  15.270   0.068  0.00  0.00    -0.082 Cl
ENDBRANCH  18  19
ENDBRANCH  17  18
ENDBRANCH   2  17
TORSDOF 5
