REMARK  Name = ZINC38671198
REMARK  12 active torsions:
REMARK  status: ('A' for Active; 'I' for Inactive)
REMARK    1  A    between atoms: C_1  and  C_2
REMARK    2  A    between atoms: C_2  and  O_3
REMARK    3  A    between atoms: O_3  and  C_4
REMARK    4  A    between atoms: C_5  and  C_35
REMARK    5  A    between atoms: C_7  and  S_11
REMARK    6  A    between atoms: C_9  and  C_10
REMARK    7  A    between atoms: S_11  and  N_14
REMARK    8  A    between atoms: N_14  and  C_15
REMARK    9  A    between atoms: C_15  and  C_16
REMARK   10  A    between atoms: C_16  and  C_18
REMARK   11  A    between atoms: C_16  and  N_29
REMARK   12  A    between atoms: N_27  and  C_28
REMARK                            x       y       z     vdW  Elec       q    Type
REMARK                         _______ _______ _______ _____ _____    ______ ____
ROOT
ATOM      1  C   UNL     1      -1.219  -8.074   0.525  0.00  0.00    -0.022 C 
ENDROOT
BRANCH   1   2
ATOM      2  C   UNL     1      -2.681  -7.878   0.834  0.00  0.00    -0.059 A 
ATOM      3  C   UNL     1      -3.070  -6.923   1.755  0.00  0.00    +0.004 A 
ATOM      4  C   UNL     1      -4.409  -6.745   2.038  0.00  0.00    +0.023 A 
ATOM      5  C   UNL     1      -5.366  -7.526   1.398  0.00  0.00    +0.033 A 
ATOM      6  C   UNL     1      -4.975  -8.482   0.473  0.00  0.00    -0.026 A 
ATOM      7  C   UNL     1      -3.630  -8.651   0.193  0.00  0.00    +0.007 A 
ATOM      8  C   UNL     1      -5.983  -9.338  -0.246  0.00  0.00    +0.038 C 
ATOM      9  C   UNL     1      -7.304  -9.371   0.522  0.00  0.00    +0.024 C 
ATOM     10  C   UNL     1      -7.736  -7.931   0.829  0.00  0.00    +0.105 C 
ATOM     11  N   UNL     1      -6.718  -7.334   1.704  0.00  0.00    -0.333 N 
ATOM     12  C   UNL     1      -7.112  -6.550   2.877  0.00  0.00    +0.129 C 
ENDBRANCH   1   2
BRANCH   1  13
ATOM     13  N   UNL     1      -0.440  -7.981   1.767  0.00  0.00    +0.385 N 
ATOM     14  C   UNL     1       0.981  -8.195   1.468  0.00  0.00    -0.078 C 
ATOM     15  C   UNL     1       1.807  -8.020   2.745  0.00  0.00    -0.019 C 
ATOM     16  C   UNL     1       1.343  -9.038   3.790  0.00  0.00    -0.004 C 
ATOM     17  C   UNL     1      -0.156  -8.853   4.039  0.00  0.00    -0.019 C 
ATOM     18  C   UNL     1      -0.909  -8.998   2.715  0.00  0.00    -0.078 C 
ATOM     19  H   UNL     1      -0.561  -7.064   2.171  0.00  0.00    -0.081 HD
ENDBRANCH   1  13
BRANCH   1  20
ATOM     20  C   UNL     1      -0.755  -6.990  -0.450  0.00  0.00    +0.095 C 
BRANCH  20  21
ATOM     21  N   UNL     1      -1.485  -7.125  -1.713  0.00  0.00    -0.191 NA
ATOM     22  H   UNL     1      -1.983  -7.936  -1.901  0.00  0.00    +0.148 HD
BRANCH  21  23
ATOM     23  S   UNL     1      -1.462  -5.893  -2.819  0.00  0.00    +0.058 S 
ATOM     24  O   UNL     1      -1.765  -4.701  -2.106  0.00  0.00    -0.153 OA
ATOM     25  O   UNL     1      -2.229  -6.331  -3.932  0.00  0.00    -0.153 OA
BRANCH  23  29
ATOM     26  C   UNL     1       2.807  -5.480  -4.273  0.00  0.00    +0.126 A 
ATOM     27  C   UNL     1       1.929  -6.329  -4.930  0.00  0.00    -0.007 A 
ATOM     28  C   UNL     1       0.627  -6.453  -4.484  0.00  0.00    +0.035 A 
ATOM     29  C   UNL     1       0.200  -5.732  -3.385  0.00  0.00    +0.106 A 
ATOM     30  C   UNL     1       1.073  -4.885  -2.728  0.00  0.00    +0.035 A 
ATOM     31  C   UNL     1       2.378  -4.762  -3.166  0.00  0.00    -0.007 A 
ATOM     32  C   UNL     1       3.331  -3.843  -2.446  0.00  0.00    +0.047 C 
ATOM     33  C   UNL     1       2.393  -7.114  -6.129  0.00  0.00    +0.047 C 
BRANCH  26  34
ATOM     34  O   UNL     1       4.089  -5.356  -4.709  0.00  0.00    -0.492 OA
BRANCH  34  36
ATOM     35  C   UNL     1       6.426  -5.968  -4.764  0.00  0.00    +0.048 C 
ATOM     36  C   UNL     1       5.051  -6.257  -4.158  0.00  0.00    +0.226 C 
ENDBRANCH  34  36
ENDBRANCH  26  34
ENDBRANCH  23  29
ENDBRANCH  21  23
ENDBRANCH  20  21
ENDBRANCH   1  20
TORSDOF 8
