REMARK  Name = ZINC09958961
REMARK  4 active torsions:
REMARK  status: ('A' for Active; 'I' for Inactive)
REMARK    1  A    between atoms: C_4  and  C_7
REMARK    2  A    between atoms: C_13  and  C_15
REMARK    3  A    between atoms: C_16  and  C_17
REMARK    4  A    between atoms: C_22  and  C_23
REMARK                            x       y       z     vdW  Elec       q    Type
REMARK                         _______ _______ _______ _____ _____    ______ ____
ROOT
ATOM      1  C   UNL     1      -0.821   1.627  -1.190  0.00  0.00    +0.107 C 
ATOM      2  C   UNL     1      -0.013   1.086   0.008  0.00  0.00    +0.029 C 
ATOM      3  C   UNL     1      -0.802   1.617   1.234  0.00  0.00    +0.021 C 
ATOM      4  C   UNL     1      -1.283   2.998   0.716  0.00  0.00    +0.109 C 
ATOM      5  N   UNL     1      -1.592   2.783  -0.710  0.00  0.00    -0.291 N 
ATOM      6  C   UNL     1      -2.442   3.523  -1.449  0.00  0.00    +0.240 C 
ATOM      7  O   UNL     1      -2.622   3.252  -2.622  0.00  0.00    -0.271 OA
ENDROOT
BRANCH   1  11
ATOM      8  C   UNL     1       1.838   2.849  -4.302  0.00  0.00    +0.000 A 
ATOM      9  C   UNL     1       1.203   1.624  -4.377  0.00  0.00    +0.000 A 
ATOM     10  C   UNL     1       0.343   1.228  -3.370  0.00  0.00    +0.005 A 
ATOM     11  C   UNL     1       0.117   2.058  -2.288  0.00  0.00    -0.027 A 
ATOM     12  C   UNL     1       0.748   3.286  -2.216  0.00  0.00    +0.005 A 
ATOM     13  C   UNL     1       1.613   3.679  -3.220  0.00  0.00    +0.000 A 
ENDBRANCH   1  11
BRANCH   6  14
ATOM     14  C   UNL     1      -3.150   4.652  -0.842  0.00  0.00    +0.068 C 
ATOM     15  C   UNL     1      -4.000   5.393  -1.582  0.00  0.00    +0.014 C 
BRANCH  15  16
ATOM     16  C   UNL     1      -4.710   6.526  -0.972  0.00  0.00    -0.008 A 
ATOM     17  C   UNL     1      -4.508   6.841   0.374  0.00  0.00    +0.009 A 
ATOM     18  C   UNL     1      -5.177   7.907   0.940  0.00  0.00    +0.001 A 
ATOM     19  C   UNL     1      -6.052   8.670   0.184  0.00  0.00    +0.001 A 
ATOM     20  C   UNL     1      -6.266   8.376  -1.148  0.00  0.00    +0.019 A 
ATOM     21  C   UNL     1      -5.596   7.308  -1.743  0.00  0.00    +0.059 A 
BRANCH  21  22
ATOM     22  C   UNL     1      -5.811   7.002  -3.125  0.00  0.00    +0.100 C 
ATOM     23  N   UNL     1      -5.981   6.760  -4.222  0.00  0.00    -0.191 NA
ENDBRANCH  21  22
ENDBRANCH  15  16
ENDBRANCH   6  14
TORSDOF 4
