REMARK  Name = ZINC12848450
REMARK  7 active torsions:
REMARK  status: ('A' for Active; 'I' for Inactive)
REMARK    1  A    between atoms: C_1  and  C_2
REMARK    2  A    between atoms: C_2  and  C_3
REMARK    3  A    between atoms: C_10  and  C_12
REMARK    4  A    between atoms: C_18  and  C_27
REMARK    5  A    between atoms: C_21  and  C_23
REMARK    6  A    between atoms: C_30  and  O_33
REMARK    7  A    between atoms: O_33  and  C_34
REMARK                            x       y       z     vdW  Elec       q    Type
REMARK                         _______ _______ _______ _____ _____    ______ ____
ROOT
ATOM      1  C   UNL     1       4.015   1.058  -0.440  0.00  0.00    +0.091 C 
ATOM      2  C   UNL     1       4.597   1.956   0.415  0.00  0.00    +0.104 C 
ATOM      3  N   UNL     1       5.918   2.067   0.120  0.00  0.00    -0.269 N 
ATOM      4  N   UNL     1       6.231   1.249  -0.958  0.00  0.00    -0.226 N 
ATOM      5  C   UNL     1       5.077   0.574  -1.331  0.00  0.00    +0.126 C 
ATOM      6  N   UNL     1       5.029  -0.294  -2.300  0.00  0.00    -0.364 N 
ATOM      7  C   UNL     1       6.265  -0.627  -3.019  0.00  0.00    +0.113 C 
ATOM      8  C   UNL     1       7.197   0.585  -3.072  0.00  0.00    +0.062 C 
ATOM      9  C   UNL     1       7.511   1.066  -1.650  0.00  0.00    +0.201 C 
ATOM     10  H   UNL     1       6.548   2.633   0.592  0.00  0.00    +0.170 HD
ATOM     11  H   UNL     1       4.190  -0.716  -2.542  0.00  0.00    +0.161 HD
ENDROOT
BRANCH   1  18
ATOM     12  C   UNL     1       0.243   1.149  -0.871  0.00  0.00    +0.076 C 
ATOM     13  C   UNL     1      -0.370   1.233  -2.272  0.00  0.00    +0.022 C 
ATOM     14  C   UNL     1      -0.086   2.614  -2.868  0.00  0.00    +0.003 C 
ATOM     15  C   UNL     1       1.426   2.818  -2.989  0.00  0.00    +0.019 C 
ATOM     16  C   UNL     1       2.060   2.752  -1.595  0.00  0.00    +0.108 C 
ATOM     17  N   UNL     1       1.671   1.488  -0.955  0.00  0.00    -0.294 N 
ATOM     18  C   UNL     1       2.605   0.653  -0.458  0.00  0.00    +0.251 C 
ATOM     19  O   UNL     1       2.279  -0.436  -0.024  0.00  0.00    -0.270 OA
BRANCH  12  21
ATOM     20  C   UNL     1      -1.402  -0.622  -0.239  0.00  0.00    +0.006 C 
ATOM     21  C   UNL     1       0.085  -0.272  -0.326  0.00  0.00    +0.019 C 
ENDBRANCH  12  21
ENDBRANCH   1  18
BRANCH   7  22
ATOM     22  C   UNL     1       6.963  -1.759  -2.311  0.00  0.00    -0.025 A 
ATOM     23  C   UNL     1       6.995  -1.794  -0.929  0.00  0.00    +0.009 A 
ATOM     24  C   UNL     1       7.635  -2.831  -0.278  0.00  0.00    +0.046 A 
ATOM     25  C   UNL     1       8.245  -3.838  -1.012  0.00  0.00    +0.120 A 
ATOM     26  C   UNL     1       8.210  -3.801  -2.398  0.00  0.00    +0.046 A 
ATOM     27  C   UNL     1       7.565  -2.765  -3.045  0.00  0.00    +0.009 A 
BRANCH  25  28
ATOM     28  O   UNL     1       8.875  -4.859  -0.374  0.00  0.00    -0.495 OA
ATOM     29  C   UNL     1       9.480  -5.861  -1.193  0.00  0.00    +0.277 C 
ENDBRANCH  25  28
ENDBRANCH   7  22
BRANCH   9  30
ATOM     30  C   UNL     1       8.274   2.392  -1.694  0.00  0.00    +0.410 C 
ATOM     31  F   UNL     1       8.514   2.834  -0.388  0.00  0.00    -0.169 F 
ATOM     32  F   UNL     1       9.493   2.207  -2.355  0.00  0.00    -0.169 F 
ATOM     33  F   UNL     1       7.512   3.346  -2.377  0.00  0.00    -0.169 F 
ENDBRANCH   9  30
TORSDOF 5
