REMARK  Name = ZINC12565748
REMARK  10 active torsions:
REMARK  status: ('A' for Active; 'I' for Inactive)
REMARK    1  A    between atoms: C_1  and  C_2
REMARK    2  A    between atoms: C_2  and  O_3
REMARK    3  A    between atoms: O_3  and  C_4
REMARK    4  A    between atoms: C_4  and  C_6
REMARK    5  A    between atoms: C_10  and  N_11
REMARK    6  A    between atoms: C_12  and  C_14
REMARK    7  A    between atoms: C_14  and  C_16
REMARK    8  A    between atoms: C_14  and  N_71
REMARK    9  A    between atoms: C_22  and  N_71
REMARK   10  A    between atoms: C_31  and  C_35
REMARK                            x       y       z     vdW  Elec       q    Type
REMARK                         _______ _______ _______ _____ _____    ______ ____
ROOT
ATOM      1  N   UNL     1       4.526   0.945  -4.492  0.00  0.00    -0.280 N 
ATOM      2  C   UNL     1       5.816   1.151  -4.162  0.00  0.00    +0.208 C 
ATOM      3  O   UNL     1       6.112   1.433  -3.020  0.00  0.00    -0.277 OA
ATOM      4  H   UNL     1       4.289   0.719  -5.405  0.00  0.00    +0.155 HD
ENDROOT
BRANCH   1   9
ATOM      5  C   UNL     1       2.166   0.884  -3.672  0.00  0.00    +0.091 A 
ATOM      6  C   UNL     1       1.339   1.061  -2.490  0.00  0.00    -0.021 A 
ATOM      7  C   UNL     1       2.009   1.379  -1.361  0.00  0.00    -0.004 A 
ATOM      8  S   UNL     1       3.710   1.446  -1.848  0.00  0.00    -0.077 S 
ATOM      9  C   UNL     1       3.537   1.057  -3.527  0.00  0.00    +0.086 A 
ATOM     10  C   UNL     1       1.427   1.620  -0.003  0.00  0.00    +0.046 C 
ATOM     11  C   UNL     1      -0.013   1.086   0.008  0.00  0.00    -0.009 C 
ATOM     12  C   UNL     1      -0.738   1.596  -1.241  0.00  0.00    +0.008 C 
ATOM     13  C   UNL     1      -0.177   0.908  -2.486  0.00  0.00    +0.037 C 
ATOM     14  C   UNL     1      -0.735   1.582   1.262  0.00  0.00    +0.008 C 
BRANCH   5  15
ATOM     15  C   UNL     1       1.577   0.536  -4.967  0.00  0.00    +0.342 C 
ATOM     16  O   UNL     1       1.438  -0.631  -5.277  0.00  0.00    -0.245 OA
BRANCH  15  17
ATOM     17  O   UNL     1       1.189   1.511  -5.814  0.00  0.00    -0.461 OA
BRANCH  17  19
ATOM     18  C   UNL     1       0.236   2.327  -7.902  0.00  0.00    +0.048 C 
ATOM     19  C   UNL     1       0.613   1.093  -7.080  0.00  0.00    +0.229 C 
ENDBRANCH  17  19
ENDBRANCH  15  17
ENDBRANCH   5  15
ENDBRANCH   1   9
BRANCH   2  20
ATOM     20  C   UNL     1       6.891   1.029  -5.211  0.00  0.00    +0.047 C 
BRANCH  20  21
ATOM     21  C   UNL     1       6.879  -0.365  -5.783  0.00  0.00    -0.053 A 
ATOM     22  C   UNL     1       7.488  -1.399  -5.096  0.00  0.00    +0.002 A 
ATOM     23  C   UNL     1       7.473  -2.679  -5.618  0.00  0.00    +0.000 A 
ATOM     24  C   UNL     1       6.859  -2.922  -6.832  0.00  0.00    +0.000 A 
ATOM     25  C   UNL     1       6.255  -1.888  -7.522  0.00  0.00    +0.000 A 
ATOM     26  C   UNL     1       6.265  -0.609  -6.997  0.00  0.00    +0.002 A 
ENDBRANCH  20  21
BRANCH  20  27
ATOM     27  N   UNL     1       8.203   1.297  -4.592  0.00  0.00    +0.391 N 
ATOM     28  H   UNL     1       8.560   0.433  -4.168  0.00  0.00    -0.084 HD
ATOM     29  H   UNL     1       8.096   2.016  -3.867  0.00  0.00    -0.084 HD
BRANCH  27  30
ATOM     30  C   UNL     1       9.161   1.771  -5.609  0.00  0.00    -0.070 C 
ATOM     31  C   UNL     1       9.804   0.569  -6.305  0.00  0.00    -0.016 C 
ATOM     32  C   UNL     1      10.486   1.032  -7.594  0.00  0.00    -0.002 C 
ATOM     33  C   UNL     1       9.566   2.000  -8.340  0.00  0.00    -0.000 C 
ATOM     34  C   UNL     1      10.189   3.397  -8.340  0.00  0.00    -0.000 C 
ATOM     35  C   UNL     1      10.008   4.035  -6.961  0.00  0.00    -0.000 C 
ATOM     36  C   UNL     1      11.005   3.416  -5.979  0.00  0.00    -0.002 C 
ATOM     37  C   UNL     1      10.246   2.606  -4.926  0.00  0.00    -0.016 C 
ENDBRANCH  27  30
ENDBRANCH  20  27
ENDBRANCH   2  20
TORSDOF 8
