REMARK  Name = ZINC20686094
REMARK  6 active torsions:
REMARK  status: ('A' for Active; 'I' for Inactive)
REMARK    1  A    between atoms: C_1  and  C_2
REMARK    2  A    between atoms: C_3  and  N_27
REMARK    3  A    between atoms: C_9  and  C_18
REMARK    4  A    between atoms: C_21  and  N_24
REMARK    5  A    between atoms: N_24  and  C_25
REMARK    6  A    between atoms: N_24  and  C_26
REMARK                            x       y       z     vdW  Elec       q    Type
REMARK                         _______ _______ _______ _____ _____    ______ ____
ROOT
ATOM      1  C   UNL     1       0.108   1.767   0.053  0.00  0.00    +0.048 C 
ATOM      2  C   UNL     1      -0.670   1.960   1.329  0.00  0.00    +0.001 A 
ATOM      3  C   UNL     1      -0.024   1.865   2.542  0.00  0.00    +0.131 A 
ATOM      4  C   UNL     1      -0.724   2.043   3.720  0.00  0.00    +0.033 A 
ATOM      5  C   UNL     1      -2.077   2.325   3.676  0.00  0.00    +0.008 A 
ATOM      6  C   UNL     1      -2.731   2.425   2.467  0.00  0.00    -0.019 A 
ATOM      7  C   UNL     1      -2.037   2.240   1.268  0.00  0.00    +0.036 A 
ATOM      8  N   UNL     1      -2.630   2.278   0.008  0.00  0.00    -0.336 N 
ATOM      9  C   UNL     1      -4.052   2.656  -0.043  0.00  0.00    +0.105 C 
ATOM     10  C   UNL     1      -4.730   1.993   1.138  0.00  0.00    +0.029 C 
ATOM     11  C   UNL     1      -4.173   2.745   2.386  0.00  0.00    +0.049 C 
ATOM     12  C   UNL     1      -5.134   2.378   3.455  0.00  0.00    -0.023 C 
ATOM     13  C   UNL     1      -6.315   2.136   2.897  0.00  0.00    -0.030 C 
ATOM     14  C   UNL     1      -6.215   2.292   1.377  0.00  0.00    +0.033 C 
ATOM     15  H   UNL     1      -2.090   2.042  -0.921  0.00  0.00    +0.147 HD
ENDROOT
BRANCH   9  16
ATOM     16  C   UNL     1      -4.668   2.169  -1.329  0.00  0.00    -0.027 A 
ATOM     17  C   UNL     1      -4.290   0.947  -1.855  0.00  0.00    +0.007 A 
ATOM     18  C   UNL     1      -4.857   0.495  -3.031  0.00  0.00    +0.023 A 
ATOM     19  C   UNL     1      -5.798   1.275  -3.691  0.00  0.00    +0.029 A 
ATOM     20  C   UNL     1      -6.171   2.505  -3.162  0.00  0.00    +0.023 A 
ATOM     21  C   UNL     1      -5.605   2.948  -1.983  0.00  0.00    +0.007 A 
BRANCH  19  22
ATOM     22  N   UNL     1      -6.370   0.824  -4.883  0.00  0.00    -0.336 N 
ATOM     23  C   UNL     1      -7.260   1.701  -5.647  0.00  0.00    +0.129 C 
ATOM     24  C   UNL     1      -6.079  -0.527  -5.369  0.00  0.00    +0.129 C 
ENDBRANCH  19  22
ENDBRANCH   9  16
BRANCH   3  25
ATOM     25  N   UNL     1       1.426   1.571   2.583  0.00  0.00    +0.057 N 
ATOM     26  O   UNL     1       2.025   1.607   3.643  0.00  0.00    -0.126 OA
ATOM     27  O   UNL     1       2.020   1.292   1.557  0.00  0.00    -0.126 OA
ENDBRANCH   3  25
TORSDOF 3
