REMARK  Name = ZINC59376104
REMARK  5 active torsions:
REMARK  status: ('A' for Active; 'I' for Inactive)
REMARK    1  A    between atoms: C_8  and  C_10
REMARK    2  A    between atoms: N_15  and  C_16
REMARK    3  A    between atoms: C_16  and  C_17
REMARK    4  A    between atoms: N_19  and  C_20
REMARK    5  A    between atoms: C_27  and  C_30
REMARK                            x       y       z     vdW  Elec       q    Type
REMARK                         _______ _______ _______ _____ _____    ______ ____
ROOT
ATOM      1  C   UNL     1       5.272  -3.218  -3.007  0.00  0.00    +0.201 C 
ATOM      2  O   UNL     1       5.747  -4.319  -3.189  0.00  0.00    -0.278 OA
ATOM      3  N   UNL     1       5.473  -2.240  -3.912  0.00  0.00    -0.287 N 
ATOM      4  H   UNL     1       5.155  -1.341  -3.732  0.00  0.00    +0.155 HD
ENDROOT
BRANCH   3   5
ATOM      5  C   UNL     1       6.139  -2.521  -5.112  0.00  0.00    +0.035 A 
ATOM      6  C   UNL     1       5.991  -3.770  -5.710  0.00  0.00    +0.025 A 
ATOM      7  C   UNL     1       6.641  -4.059  -6.890  0.00  0.00    +0.029 A 
ATOM      8  C   UNL     1       7.449  -3.102  -7.488  0.00  0.00    +0.067 A 
ATOM      9  C   UNL     1       7.604  -1.840  -6.891  0.00  0.00    +0.091 A 
ATOM     10  C   UNL     1       6.936  -1.555  -5.697  0.00  0.00    +0.053 A 
ATOM     11  N   UNL     1       8.438  -1.124  -7.689  0.00  0.00    -0.224 NA
ATOM     12  C   UNL     1       8.796  -1.848  -8.709  0.00  0.00    +0.213 A 
ATOM     13  N   UNL     1       8.216  -3.076  -8.638  0.00  0.00    -0.335 N 
ATOM     14  H   UNL     1       8.322  -3.800  -9.275  0.00  0.00    +0.167 HD
BRANCH  12  15
ATOM     15  C   UNL     1       9.717  -1.391  -9.811  0.00  0.00    +0.450 C 
ATOM     16  F   UNL     1      10.388  -0.232  -9.407  0.00  0.00    -0.163 F 
ATOM     17  F   UNL     1      10.649  -2.397 -10.087  0.00  0.00    -0.163 F 
ATOM     18  F   UNL     1       8.969  -1.120 -10.962  0.00  0.00    -0.163 F 
ENDBRANCH  12  15
ENDBRANCH   3   5
BRANCH   1  19
ATOM     19  C   UNL     1       4.458  -2.944  -1.768  0.00  0.00    +0.020 C 
BRANCH  19  24
ATOM     20  C   UNL     1       3.471  -3.945   0.184  0.00  0.00    -0.011 C 
ATOM     21  C   UNL     1       4.280  -4.166   1.480  0.00  0.00    -0.010 C 
ATOM     22  C   UNL     1       5.465  -5.048   1.006  0.00  0.00    -0.020 C 
ATOM     23  C   UNL     1       5.731  -4.480  -0.410  0.00  0.00    -0.077 C 
ATOM     24  N   UNL     1       4.388  -4.162  -0.950  0.00  0.00    +0.391 N 
ATOM     25  H   UNL     1       4.056  -4.930  -1.513  0.00  0.00    -0.080 HD
BRANCH  20  33
ATOM     26  C   UNL     1       2.773   2.178   0.197  0.00  0.00    +0.002 A 
ATOM     27  C   UNL     1       1.396   2.075   0.052  0.00  0.00    +0.001 A 
ATOM     28  C   UNL     1       0.811   0.826  -0.027  0.00  0.00    +0.017 A 
ATOM     29  C   UNL     1       1.603  -0.294   0.040  0.00  0.00    +0.039 A 
ATOM     30  C   UNL     1       3.007  -0.218   0.188  0.00  0.00    +0.078 A 
ATOM     31  C   UNL     1       3.567   1.074   0.264  0.00  0.00    +0.029 A 
ATOM     32  N   UNL     1       3.607  -1.426   0.234  0.00  0.00    -0.246 NA
ATOM     33  C   UNL     1       2.935  -2.537   0.148  0.00  0.00    +0.066 A 
ATOM     34  S   UNL     1       1.333  -2.046  -0.012  0.00  0.00    -0.074 S 
ENDBRANCH  20  33
ENDBRANCH  19  24
ENDBRANCH   1  19
TORSDOF 5
