REMARK  Name = ZINC01499870
REMARK  6 active torsions:
REMARK  status: ('A' for Active; 'I' for Inactive)
REMARK    1  A    between atoms: C_1  and  C_2
REMARK    2  A    between atoms: C_5  and  N_9
REMARK    3  A    between atoms: N_9  and  C_10
REMARK    4  A    between atoms: C_10  and  C_11
REMARK    5  A    between atoms: N_13  and  N_14
REMARK    6  A    between atoms: C_15  and  C_16
REMARK                            x       y       z     vdW  Elec       q    Type
REMARK                         _______ _______ _______ _____ _____    ______ ____
ROOT
ATOM      1  C   UNL     1       0.005   1.362  -0.337  0.00  0.00    +0.249 C 
ATOM      2  O   UNL     1      -1.047   1.960  -0.424  0.00  0.00    -0.272 OA
ATOM      3  N   UNL     1       0.030   0.021  -0.467  0.00  0.00    -0.206 N 
ATOM      4  H   UNL     1       0.872  -0.457  -0.402  0.00  0.00    +0.177 HD
ENDROOT
BRANCH   3   5
ATOM      5  N   UNL     1      -1.159  -0.684  -0.696  0.00  0.00    -0.188 NA
ATOM      6  C   UNL     1      -1.135  -1.976  -0.820  0.00  0.00    +0.138 C 
BRANCH   6   7
ATOM      7  C   UNL     1      -2.386  -2.717  -1.061  0.00  0.00    -0.002 A 
ATOM      8  C   UNL     1      -3.600  -2.031  -1.150  0.00  0.00    +0.013 A 
ATOM      9  C   UNL     1      -4.769  -2.726  -1.380  0.00  0.00    +0.050 A 
ATOM     10  C   UNL     1      -4.745  -4.107  -1.514  0.00  0.00    +0.166 A 
ATOM     11  C   UNL     1      -3.538  -4.798  -1.421  0.00  0.00    +0.167 A 
ATOM     12  C   UNL     1      -2.362  -4.107  -1.196  0.00  0.00    +0.059 A 
ATOM     13  O   UNL     1      -3.784  -6.131  -1.587  0.00  0.00    -0.453 OA
ATOM     14  C   UNL     1      -5.090  -6.208  -2.188  0.00  0.00    +0.466 C 
ATOM     15  O   UNL     1      -5.746  -5.008  -1.738  0.00  0.00    -0.453 OA
ENDBRANCH   6   7
ENDBRANCH   3   5
BRANCH   1  16
ATOM     16  C   UNL     1       1.284   2.119  -0.091  0.00  0.00    +0.199 C 
BRANCH  16  17
ATOM     17  N   UNL     1       0.991   3.555   0.012  0.00  0.00    -0.334 N 
ATOM     18  H   UNL     1       0.372   3.743   0.786  0.00  0.00    +0.147 HD
BRANCH  17  23
ATOM     19  C   UNL     1       5.771   6.580   0.444  0.00  0.00    +0.044 C 
ATOM     20  C   UNL     1       4.501   5.776   0.329  0.00  0.00    -0.048 A 
ATOM     21  C   UNL     1       3.884   5.294   1.469  0.00  0.00    +0.020 A 
ATOM     22  C   UNL     1       2.720   4.557   1.368  0.00  0.00    +0.040 A 
ATOM     23  C   UNL     1       2.168   4.301   0.118  0.00  0.00    +0.056 A 
ATOM     24  C   UNL     1       2.793   4.783  -1.025  0.00  0.00    +0.040 A 
ATOM     25  C   UNL     1       3.954   5.524  -0.916  0.00  0.00    +0.020 A 
ATOM     26 BR   UNL     1       2.051   4.431  -2.729  0.00  0.00    -0.048 Br
ATOM     27 BR   UNL     1       1.878   3.898   2.927  0.00  0.00    -0.048 Br
ENDBRANCH  17  23
ENDBRANCH  16  17
ENDBRANCH   1  16
TORSDOF 5
