REMARK  Name = ZINC21556202
REMARK  14 active torsions:
REMARK  status: ('A' for Active; 'I' for Inactive)
REMARK    1  A    between atoms: C_1  and  C_2
REMARK    2  A    between atoms: C_2  and  C_3
REMARK    3  A    between atoms: C_3  and  C_4
REMARK    4  A    between atoms: C_3  and  C_5
REMARK    5  A    between atoms: C_3  and  C_6
REMARK    6  A    between atoms: N_14  and  C_18
REMARK    7  A    between atoms: C_18  and  C_19
REMARK    8  A    between atoms: N_21  and  N_22
REMARK    9  A    between atoms: C_23  and  C_25
REMARK   10  A    between atoms: C_25  and  C_27
REMARK   11  A    between atoms: C_25  and  O_28
REMARK   12  A    between atoms: O_28  and  C_29
REMARK   13  A    between atoms: C_33  and  C_36
REMARK   14  A    between atoms: C_34  and  C_35
REMARK                            x       y       z     vdW  Elec       q    Type
REMARK                         _______ _______ _______ _____ _____    ______ ____
ROOT
ATOM      1  C   UNL     1      -2.900  -8.054  -3.456  0.00  0.00    +0.215 C 
ENDROOT
BRANCH   1  10
ATOM      2  C   UNL     1      -1.435  -1.853  -1.628  0.00  0.00    -0.005 C 
ATOM      3  C   UNL     1      -0.660  -2.558  -2.743  0.00  0.00    +0.006 C 
ATOM      4  C   UNL     1      -0.642  -4.066  -2.475  0.00  0.00    +0.035 C 
ATOM      5  C   UNL     1      -2.072  -4.591  -2.417  0.00  0.00    +0.113 C 
ATOM      6  C   UNL     1      -2.865  -3.879  -1.326  0.00  0.00    +0.035 C 
ATOM      7  C   UNL     1      -2.874  -2.373  -1.599  0.00  0.00    +0.006 C 
ATOM      8  C   UNL     1      -2.075  -6.084  -2.180  0.00  0.00    +0.247 C 
ATOM      9  O   UNL     1      -1.629  -6.676  -1.221  0.00  0.00    -0.273 OA
ATOM     10  N   UNL     1      -2.679  -6.619  -3.262  0.00  0.00    -0.215 N 
ATOM     11  C   UNL     1      -3.051  -5.675  -4.136  0.00  0.00    +0.310 C 
ATOM     12  O   UNL     1      -3.615  -5.912  -5.186  0.00  0.00    -0.252 OA
ATOM     13  N   UNL     1      -2.732  -4.435  -3.719  0.00  0.00    -0.285 N 
ATOM     14  H   UNL     1      -2.870  -3.432  -4.149  0.00  0.00    +0.151 HD
BRANCH   2  15
ATOM     15  C   UNL     1      -1.443  -0.345  -1.888  0.00  0.00    -0.032 C 
ATOM     16  C   UNL     1      -2.217   0.360  -0.773  0.00  0.00    +0.011 C 
ATOM     17  C   UNL     1      -2.115  -0.063  -3.233  0.00  0.00    +0.011 C 
BRANCH  15  19
ATOM     18  C   UNL     1      -0.012   1.683  -2.177  0.00  0.00    +0.004 C 
ATOM     19  C   UNL     1      -0.004   0.175  -1.917  0.00  0.00    +0.003 C 
ENDBRANCH  15  19
ENDBRANCH   2  15
ENDBRANCH   1  10
BRANCH   1  20
ATOM     20  C   UNL     1      -4.234  -8.441  -2.872  0.00  0.00    +0.247 C 
ATOM     21  O   UNL     1      -4.932  -7.600  -2.345  0.00  0.00    -0.273 OA
ATOM     22  N   UNL     1      -4.652  -9.720  -2.935  0.00  0.00    -0.233 N 
ATOM     23  H   UNL     1      -4.019 -10.483  -3.413  0.00  0.00    +0.173 HD
BRANCH  22  24
ATOM     24  N   UNL     1      -5.893 -10.080  -2.392  0.00  0.00    -0.231 N 
ATOM     25  C   UNL     1      -6.310 -11.360  -2.455  0.00  0.00    +0.270 C 
ATOM     26  O   UNL     1      -5.612 -12.200  -2.982  0.00  0.00    -0.270 OA
ATOM     27  H   UNL     1      -6.525  -9.317  -1.915  0.00  0.00    +0.173 HD
BRANCH  25  28
ATOM     28  C   UNL     1      -7.645 -11.746  -1.871  0.00  0.00    +0.257 C 
ATOM     29  C   UNL     1      -7.616 -11.542  -0.355  0.00  0.00    +0.062 C 
BRANCH  28  30
ATOM     30  O   UNL     1      -7.912 -13.119  -2.162  0.00  0.00    -0.480 OA
BRANCH  30  31
ATOM     31  C   UNL     1      -9.216 -13.500  -2.194  0.00  0.00    +0.125 A 
ATOM     32  C   UNL     1     -10.212 -12.601  -1.839  0.00  0.00    +0.046 A 
ATOM     33  C   UNL     1     -11.537 -12.989  -1.877  0.00  0.00    +0.004 A 
ATOM     34  C   UNL     1     -11.871 -14.276  -2.258  0.00  0.00    +0.004 A 
ATOM     35  C   UNL     1     -10.881 -15.175  -2.607  0.00  0.00    -0.044 A 
ATOM     36  C   UNL     1      -9.554 -14.790  -2.576  0.00  0.00    -0.006 A 
ATOM     37  C   UNL     1      -8.475 -15.771  -2.956  0.00  0.00    +0.048 C 
ATOM     38  C   UNL     1     -11.248 -16.577  -3.022  0.00  0.00    +0.044 C 
ENDBRANCH  30  31
ENDBRANCH  28  30
ENDBRANCH  25  28
ENDBRANCH  22  24
ENDBRANCH   1  20
TORSDOF 8
