REMARK  Name = ZINC20702582
REMARK  11 active torsions:
REMARK  status: ('A' for Active; 'I' for Inactive)
REMARK    1  A    between atoms: C_1  and  C_2
REMARK    2  A    between atoms: C_6  and  C_40
REMARK    3  A    between atoms: C_7  and  N_8
REMARK    4  A    between atoms: N_8  and  S_9
REMARK    5  A    between atoms: S_9  and  C_12
REMARK    6  A    between atoms: C_25  and  C_28
REMARK    7  A    between atoms: C_31  and  O_36
REMARK    8  A    between atoms: C_32  and  O_34
REMARK    9  A    between atoms: O_34  and  C_35
REMARK   10  A    between atoms: O_36  and  C_37
REMARK   11  A    between atoms: C_37  and  C_39
REMARK                            x       y       z     vdW  Elec       q    Type
REMARK                         _______ _______ _______ _____ _____    ______ ____
ROOT
ATOM      1  C   UNL     1       0.016   2.553   0.719  0.00  0.00    +0.109 A 
ATOM      2  C   UNL     1      -0.106   1.180   0.605  0.00  0.00    +0.030 A 
ATOM      3  C   UNL     1      -1.280   0.634   0.126  0.00  0.00    +0.025 A 
ATOM      4  C   UNL     1      -2.332   1.464  -0.243  0.00  0.00    +0.031 A 
ATOM      5  C   UNL     1      -2.217   2.840  -0.123  0.00  0.00    -0.018 A 
ATOM      6  C   UNL     1      -1.031   3.377   0.358  0.00  0.00    +0.034 A 
ATOM      7  C   UNL     1      -3.326   3.771  -0.499  0.00  0.00    +0.049 C 
ATOM      8  C   UNL     1      -3.044   4.465  -1.811  0.00  0.00    -0.023 C 
ATOM      9  C   UNL     1      -4.155   4.619  -2.490  0.00  0.00    -0.030 C 
ATOM     10  C   UNL     1      -5.331   4.052  -1.719  0.00  0.00    +0.033 C 
ATOM     11  C   UNL     1      -4.666   3.048  -0.733  0.00  0.00    +0.029 C 
ATOM     12  C   UNL     1      -4.427   1.734  -1.482  0.00  0.00    +0.105 C 
ATOM     13  N   UNL     1      -3.522   0.894  -0.691  0.00  0.00    -0.336 N 
ATOM     14  H   UNL     1      -3.792  -0.149  -0.469  0.00  0.00    +0.147 HD
ENDROOT
BRANCH  12  15
ATOM     15  C   UNL     1      -3.805   2.025  -2.824  0.00  0.00    -0.023 A 
ATOM     16  C   UNL     1      -2.429   2.025  -2.961  0.00  0.00    +0.009 A 
ATOM     17  C   UNL     1      -1.854   2.291  -4.190  0.00  0.00    +0.050 A 
ATOM     18  C   UNL     1      -2.657   2.557  -5.287  0.00  0.00    +0.173 A 
ATOM     19  C   UNL     1      -4.042   2.556  -5.149  0.00  0.00    +0.163 A 
ATOM     20  C   UNL     1      -4.612   2.284  -3.916  0.00  0.00    +0.055 A 
BRANCH  19  21
ATOM     21  O   UNL     1      -4.834   2.817  -6.223  0.00  0.00    -0.491 OA
ATOM     22  C   UNL     1      -6.247   2.799  -6.007  0.00  0.00    +0.277 C 
ENDBRANCH  19  21
BRANCH  18  23
ATOM     23  O   UNL     1      -2.093   2.820  -6.497  0.00  0.00    -0.422 OA
BRANCH  23  24
ATOM     24  C   UNL     1      -1.992   4.109  -6.855  0.00  0.00    +0.309 C 
ATOM     25  O   UNL     1      -2.306   4.979  -6.077  0.00  0.00    -0.251 OA
ATOM     26  C   UNL     1      -1.486   4.472  -8.228  0.00  0.00    +0.136 C 
ENDBRANCH  23  24
ENDBRANCH  18  23
ENDBRANCH  12  15
BRANCH   1  27
ATOM     27  S   UNL     1       1.514   3.253   1.328  0.00  0.00    +0.072 S 
ATOM     28  O   UNL     1       1.205   4.579   1.738  0.00  0.00    -0.150 OA
ATOM     29  O   UNL     1       2.080   2.295   2.211  0.00  0.00    -0.150 OA
BRANCH  27  30
ATOM     30  N   UNL     1       2.550   3.385   0.043  0.00  0.00    -0.216 N 
ATOM     31  H   UNL     1       3.452   2.756  -0.002  0.00  0.00    +0.174 HD
BRANCH  30  38
ATOM     32  C   UNL     1       1.578   2.368  -2.429  0.00  0.00    +0.046 C 
ATOM     33  C   UNL     1       1.804   3.841  -2.206  0.00  0.00    -0.028 A 
ATOM     34  C   UNL     1       1.533   4.743  -3.216  0.00  0.00    +0.005 A 
ATOM     35  C   UNL     1       1.745   6.094  -3.014  0.00  0.00    +0.001 A 
ATOM     36  C   UNL     1       2.224   6.548  -1.799  0.00  0.00    +0.005 A 
ATOM     37  C   UNL     1       2.492   5.652  -0.782  0.00  0.00    -0.028 A 
ATOM     38  C   UNL     1       2.280   4.294  -0.982  0.00  0.00    +0.054 A 
ATOM     39  C   UNL     1       3.014   6.147   0.542  0.00  0.00    +0.046 C 
ENDBRANCH  30  38
ENDBRANCH  27  30
ENDBRANCH   1  27
TORSDOF 7
