REMARK  Name = ZINC09408730
REMARK  6 active torsions:
REMARK  status: ('A' for Active; 'I' for Inactive)
REMARK    1  A    between atoms: C_1  and  C_2
REMARK    2  A    between atoms: C_7  and  N_8
REMARK    3  A    between atoms: C_13  and  N_60
REMARK    4  A    between atoms: C_19  and  N_21
REMARK    5  A    between atoms: N_21  and  S_22
REMARK    6  A    between atoms: S_22  and  C_25
REMARK                            x       y       z     vdW  Elec       q    Type
REMARK                         _______ _______ _______ _____ _____    ______ ____
ROOT
ATOM      1  C   UNL     1       2.393   1.398  -1.154  0.00  0.00    -0.050 C 
ATOM      2  C   UNL     1       1.754   1.878   0.151  0.00  0.00    -0.014 C 
ATOM      3  C   UNL     1       0.258   1.557   0.134  0.00  0.00    -0.001 C 
ATOM      4  C   UNL     1       0.061   0.046  -0.004  0.00  0.00    +0.001 C 
ATOM      5  C   UNL     1       0.701  -0.434  -1.309  0.00  0.00    +0.019 C 
ATOM      6  C   UNL     1       2.196  -0.114  -1.292  0.00  0.00    +0.063 C 
ENDROOT
BRANCH   1  12
ATOM      7  N   UNL     1       6.190   3.050  -1.988  0.00  0.00    -0.333 N 
ATOM      8  C   UNL     1       5.957   1.644  -2.347  0.00  0.00    +0.086 C 
ATOM      9  C   UNL     1       4.451   1.385  -2.430  0.00  0.00    -0.059 C 
ATOM     10  C   UNL     1       4.062   3.111  -0.779  0.00  0.00    -0.059 C 
ATOM     11  C   UNL     1       5.568   3.371  -0.696  0.00  0.00    +0.086 C 
ATOM     12  N   UNL     1       3.841   1.690  -1.119  0.00  0.00    +0.385 N 
ATOM     13  H   UNL     1       4.283   1.103  -0.401  0.00  0.00    -0.081 HD
BRANCH   7  20
ATOM     14  C   UNL     1       7.178   4.940  -3.871  0.00  0.00    +0.045 C 
ATOM     15  C   UNL     1       8.081   4.259  -2.875  0.00  0.00    -0.029 A 
ATOM     16  C   UNL     1       9.432   4.547  -2.858  0.00  0.00    +0.006 A 
ATOM     17  C   UNL     1      10.261   3.924  -1.944  0.00  0.00    +0.020 A 
ATOM     18  C   UNL     1       9.742   3.010  -1.044  0.00  0.00    +0.043 A 
ATOM     19  C   UNL     1       8.390   2.723  -1.052  0.00  0.00    +0.043 A 
ATOM     20  C   UNL     1       7.556   3.343  -1.973  0.00  0.00    +0.034 A 
ATOM     21 CL   UNL     1      10.787   2.231   0.102  0.00  0.00    -0.083 Cl
ENDBRANCH   7  20
ENDBRANCH   1  12
BRANCH   6  22
ATOM     22  N   UNL     1       2.829  -0.794  -0.159  0.00  0.00    -0.188 NA
ATOM     23  H   UNL     1       2.852  -0.367   0.712  0.00  0.00    +0.148 HD
BRANCH  22  24
ATOM     24  S   UNL     1       3.506  -2.291  -0.365  0.00  0.00    +0.059 S 
ATOM     25  O   UNL     1       4.061  -2.662   0.889  0.00  0.00    -0.153 OA
ATOM     26  O   UNL     1       2.537  -3.086  -1.034  0.00  0.00    -0.153 OA
BRANCH  24  27
ATOM     27  C   UNL     1       4.858  -2.103  -1.479  0.00  0.00    +0.105 A 
ATOM     28  C   UNL     1       4.642  -2.155  -2.843  0.00  0.00    +0.030 A 
ATOM     29  C   UNL     1       5.702  -2.001  -3.717  0.00  0.00    +0.022 A 
ATOM     30  C   UNL     1       6.981  -1.807  -3.226  0.00  0.00    +0.041 A 
ATOM     31  C   UNL     1       7.197  -1.761  -1.860  0.00  0.00    +0.022 A 
ATOM     32  C   UNL     1       6.136  -1.909  -0.987  0.00  0.00    +0.030 A 
ATOM     33 CL   UNL     1       8.313  -1.622  -4.323  0.00  0.00    -0.084 Cl
ENDBRANCH  24  27
ENDBRANCH  22  24
ENDBRANCH   6  22
TORSDOF 5
