REMARK  Name = ZINC00908130
REMARK  4 active torsions:
REMARK  status: ('A' for Active; 'I' for Inactive)
REMARK    1  A    between atoms: C_1  and  C_2
REMARK    2  A    between atoms: C_2  and  C_25
REMARK    3  A    between atoms: C_6  and  C_16
REMARK    4  A    between atoms: C_11  and  O_15
REMARK                            x       y       z     vdW  Elec       q    Type
REMARK                         _______ _______ _______ _____ _____    ______ ____
ROOT
ATOM      1  C   UNL     1       6.228   6.412   1.616  0.00  0.00    +0.031 C 
ATOM      2  C   UNL     1       4.923   5.659   1.942  0.00  0.00    +0.033 C 
ATOM      3  C   UNL     1       3.991   5.772   0.744  0.00  0.00    +0.094 C 
ATOM      4  C   UNL     1       2.521   5.615   1.091  0.00  0.00    +0.180 C 
ATOM      5  C   UNL     1       2.134   4.144   1.256  0.00  0.00    +0.082 C 
ATOM      6  C   UNL     1       2.500   3.363  -0.004  0.00  0.00    +0.065 C 
ATOM      7  C   UNL     1       2.144   4.147  -1.240  0.00  0.00    +0.003 A 
ATOM      8  C   UNL     1       2.211   3.519  -2.474  0.00  0.00    +0.011 A 
ATOM      9  C   UNL     1       1.873   4.201  -3.627  0.00  0.00    +0.046 A 
ATOM     10  C   UNL     1       1.474   5.528  -3.556  0.00  0.00    +0.120 A 
ATOM     11  C   UNL     1       1.425   6.166  -2.328  0.00  0.00    +0.091 A 
ATOM     12  C   UNL     1       1.771   5.479  -1.169  0.00  0.00    +0.131 A 
ATOM     13  O   UNL     1       1.728   6.145   0.014  0.00  0.00    -0.468 OA
ATOM     14  N   UNL     1       2.173   6.349   2.305  0.00  0.00    -0.289 N 
ATOM     15  C   UNL     1       3.072   6.601   3.264  0.00  0.00    +0.133 C 
ATOM     16  S   UNL     1       2.563   7.417   4.681  0.00  0.00    -0.019 S 
ATOM     17  N   UNL     1       4.355   6.242   3.152  0.00  0.00    -0.321 N 
ATOM     18  C   UNL     1       5.285   4.191   2.201  0.00  0.00    +0.031 C 
ATOM     19  H   UNL     1       1.259   6.663   2.420  0.00  0.00    +0.151 HD
ATOM     20  H   UNL     1       4.940   6.377   3.922  0.00  0.00    +0.148 HD
ENDROOT
BRANCH   6  21
ATOM     21  C   UNL     1       1.742   2.057  -0.004  0.00  0.00    -0.003 A 
ATOM     22  C   UNL     1       2.223   0.790  -0.015  0.00  0.00    +0.012 A 
ATOM     23  C   UNL     1       1.332  -0.266  -0.012  0.00  0.00    +0.008 A 
ATOM     24  C   UNL     1       0.002  -0.004   0.002  0.00  0.00    +0.045 A 
ATOM     25  S   UNL     1      -0.022   1.781   0.012  0.00  0.00    -0.101 S 
ENDBRANCH   6  21
BRANCH  10  26
ATOM     26  O   UNL     1       1.133   6.199  -4.688  0.00  0.00    -0.507 OA
ATOM     27  H   UNL     1       1.874   6.651  -5.115  0.00  0.00    +0.292 HD
ENDBRANCH  10  26
TORSDOF 2
