REMARK  Name = ZINC18053906
REMARK  4 active torsions:
REMARK  status: ('A' for Active; 'I' for Inactive)
REMARK    1  A    between atoms: C_1  and  C_2
REMARK    2  A    between atoms: C_7  and  O_27
REMARK    3  A    between atoms: C_8  and  C_12
REMARK    4  A    between atoms: O_27  and  C_28
REMARK                            x       y       z     vdW  Elec       q    Type
REMARK                         _______ _______ _______ _____ _____    ______ ____
ROOT
ATOM      1  C   UNL     1       5.695  -1.077   1.716  0.00  0.00    +0.212 C 
ATOM      2  N   UNL     1       5.478  -0.442   3.029  0.00  0.00    -0.294 N 
ATOM      3  C   UNL     1       4.789  -1.164   3.993  0.00  0.00    +0.159 C 
ATOM      4  N   UNL     1       5.255  -2.453   4.252  0.00  0.00    -0.259 N 
ATOM      5  C   UNL     1       5.770  -3.129   3.149  0.00  0.00    +0.205 A 
ATOM      6  N   UNL     1       5.993  -2.495   1.946  0.00  0.00    -0.288 N 
ATOM      7  C   UNL     1       6.509  -3.424   1.088  0.00  0.00    +0.072 A 
ATOM      8  C   UNL     1       6.925  -3.359  -0.236  0.00  0.00    +0.028 A 
ATOM      9  C   UNL     1       7.406  -4.528  -0.804  0.00  0.00    +0.002 A 
ATOM     10  C   UNL     1       7.474  -5.715  -0.096  0.00  0.00    +0.002 A 
ATOM     11  C   UNL     1       7.067  -5.806   1.223  0.00  0.00    +0.030 A 
ATOM     12  C   UNL     1       6.579  -4.637   1.819  0.00  0.00    +0.091 A 
ATOM     13  N   UNL     1       6.112  -4.386   3.062  0.00  0.00    -0.214 NA
ATOM     14  N   UNL     1       3.764  -0.665   4.622  0.00  0.00    -0.375 N 
ATOM     15  H   UNL     1       5.805   0.453   3.212  0.00  0.00    +0.151 HD
ATOM     16  H   UNL     1       3.462   0.235   4.422  0.00  0.00    +0.158 HD
ATOM     17  H   UNL     1       5.222  -2.850   5.136  0.00  0.00    +0.158 HD
ATOM     18  H   UNL     1       3.301  -1.193   5.292  0.00  0.00    +0.158 HD
ENDROOT
BRANCH   1  25
ATOM     19  C   UNL     1      -0.621  -1.879   0.374  0.00  0.00    +0.052 C 
ATOM     20  C   UNL     1       0.315  -2.189  -0.797  0.00  0.00    +0.175 C 
ATOM     21  C   UNL     1       0.867  -0.884  -1.417  0.00  0.00    +0.083 C 
ATOM     22  C   UNL     1       2.171  -0.705  -0.663  0.00  0.00    +0.001 A 
ATOM     23  C   UNL     1       3.015   0.373  -0.522  0.00  0.00    +0.053 A 
ATOM     24  C   UNL     1       4.163   0.258   0.250  0.00  0.00    +0.127 A 
ATOM     25  C   UNL     1       4.452  -0.947   0.874  0.00  0.00    +0.038 A 
ATOM     26  C   UNL     1       3.606  -2.027   0.728  0.00  0.00    +0.056 A 
ATOM     27  C   UNL     1       2.454  -1.917  -0.048  0.00  0.00    +0.125 A 
ATOM     28  O   UNL     1       1.503  -2.855  -0.337  0.00  0.00    -0.488 OA
BRANCH  24  29
ATOM     29  O   UNL     1       5.001   1.319   0.393  0.00  0.00    -0.495 OA
ATOM     30  C   UNL     1       4.638   2.526  -0.280  0.00  0.00    +0.277 C 
ENDBRANCH  24  29
ENDBRANCH   1  25
TORSDOF 2
