REMARK  Name = ZINC47257566
REMARK  9 active torsions:
REMARK  status: ('A' for Active; 'I' for Inactive)
REMARK    1  A    between atoms: C_1  and  C_2
REMARK    2  A    between atoms: C_2  and  C_4
REMARK    3  A    between atoms: C_2  and  N_11
REMARK    4  A    between atoms: N_11  and  C_12
REMARK    5  A    between atoms: N_11  and  C_24
REMARK    6  A    between atoms: C_12  and  C_13
REMARK    7  A    between atoms: C_13  and  C_14
REMARK    8  A    between atoms: N_16  and  C_17
REMARK    9  A    between atoms: C_18  and  C_22
REMARK                            x       y       z     vdW  Elec       q    Type
REMARK                         _______ _______ _______ _____ _____    ______ ____
ROOT
ATOM      1  N   UNL     1       0.887  -0.474  -1.066  0.00  0.00    +0.386 N 
ATOM      2  H   UNL     1       0.502  -0.097  -1.919  0.00  0.00    -0.081 HD
ENDROOT
BRANCH   1   3
ATOM      3  C   UNL     1       0.976  -1.937  -1.174  0.00  0.00    -0.068 C 
ATOM      4  C   UNL     1       0.661  -2.566  -2.532  0.00  0.00    -0.017 C 
ATOM      5  C   UNL     1      -0.328  -2.711  -1.374  0.00  0.00    -0.017 C 
ENDBRANCH   1   3
BRANCH   1   7
ATOM      6  C   UNL     1       0.795  -0.268   1.372  0.00  0.00    -0.008 C 
ATOM      7  C   UNL     1       0.018  -0.119   0.063  0.00  0.00    -0.039 C 
BRANCH   7   8
ATOM      8  C   UNL     1      -0.443   1.308  -0.087  0.00  0.00    -0.043 A 
ATOM      9  C   UNL     1       0.203   2.154  -0.969  0.00  0.00    +0.003 A 
ATOM     10  C   UNL     1      -0.219   3.463  -1.108  0.00  0.00    +0.000 A 
ATOM     11  C   UNL     1      -1.288   3.927  -0.364  0.00  0.00    +0.001 A 
ATOM     12  C   UNL     1      -1.935   3.083   0.518  0.00  0.00    +0.020 A 
ATOM     13  C   UNL     1      -1.516   1.771   0.653  0.00  0.00    +0.043 A 
ATOM     14 CL   UNL     1      -2.332   0.707   1.756  0.00  0.00    -0.083 Cl
ENDBRANCH   7   8
ENDBRANCH   1   7
BRANCH   1  15
ATOM     15  C   UNL     1       2.228   0.083  -0.846  0.00  0.00    -0.068 C 
BRANCH  15  16
ATOM     16  C   UNL     1       3.085  -0.142  -2.094  0.00  0.00    +0.078 C 
BRANCH  16  17
ATOM     17  C   UNL     1       4.461   0.430  -1.868  0.00  0.00    +0.216 C 
ATOM     18  O   UNL     1       4.729   0.965  -0.814  0.00  0.00    -0.276 OA
ATOM     19  N   UNL     1       5.393   0.347  -2.839  0.00  0.00    -0.279 N 
ATOM     20  H   UNL     1       5.178  -0.081  -3.682  0.00  0.00    +0.155 HD
BRANCH  19  21
ATOM     21  C   UNL     1       6.660   0.874  -2.631  0.00  0.00    +0.089 A 
ATOM     22  C   UNL     1       7.732   0.884  -3.509  0.00  0.00    +0.080 A 
ATOM     23  C   UNL     1       8.949   1.504  -3.036  0.00  0.00    +0.028 A 
ATOM     24  C   UNL     1       8.905   2.005  -1.787  0.00  0.00    +0.048 A 
ATOM     25  S   UNL     1       7.242   1.650  -1.262  0.00  0.00    -0.081 S 
BRANCH  22  26
ATOM     26  C   UNL     1       7.640   0.311  -4.818  0.00  0.00    +0.102 C 
ATOM     27  N   UNL     1       7.566  -0.145  -5.856  0.00  0.00    -0.191 NA
ENDBRANCH  22  26
ENDBRANCH  19  21
ENDBRANCH  16  17
ENDBRANCH  15  16
ENDBRANCH   1  15
TORSDOF 8
