REMARK  Name = ZINC33701464
REMARK  9 active torsions:
REMARK  status: ('A' for Active; 'I' for Inactive)
REMARK    1  A    between atoms: C_1  and  C_2
REMARK    2  A    between atoms: C_2  and  C_4
REMARK    3  A    between atoms: C_2  and  O_31
REMARK    4  A    between atoms: C_4  and  C_6
REMARK    5  A    between atoms: C_4  and  N_9
REMARK    6  A    between atoms: C_10  and  C_12
REMARK    7  A    between atoms: C_15  and  C_18
REMARK    8  A    between atoms: C_18  and  O_19
REMARK    9  A    between atoms: O_19  and  C_20
REMARK                            x       y       z     vdW  Elec       q    Type
REMARK                         _______ _______ _______ _____ _____    ______ ____
ROOT
ATOM      1  C   UNL     1       6.248  -1.938  -0.070  0.00  0.00    +0.037 A 
ATOM      2  C   UNL     1       5.611  -1.682   1.145  0.00  0.00    +0.013 A 
ATOM      3  C   UNL     1       4.332  -1.164   1.153  0.00  0.00    +0.008 A 
ATOM      4  C   UNL     1       3.682  -0.899  -0.039  0.00  0.00    -0.010 A 
ATOM      5  C   UNL     1       4.306  -1.156  -1.247  0.00  0.00    +0.008 A 
ATOM      6  C   UNL     1       5.587  -1.669  -1.269  0.00  0.00    +0.013 A 
ENDROOT
BRANCH   1   8
ATOM      7  N   UNL     1       8.232  -2.740  -1.261  0.00  0.00    -0.298 N 
ATOM      8  C   UNL     1       7.618  -2.494  -0.087  0.00  0.00    +0.245 C 
ATOM      9  O   UNL     1       8.192  -2.728   0.959  0.00  0.00    -0.270 OA
ATOM     10  H   UNL     1       7.713  -2.528  -2.208  0.00  0.00    +0.150 HD
BRANCH   7  11
ATOM     11  C   UNL     1       9.589  -3.290  -1.278  0.00  0.00    +0.187 C 
BRANCH  11  12
ATOM     12  C   UNL     1       9.524  -4.791  -1.162  0.00  0.00    +0.233 C 
ATOM     13  O   UNL     1       8.450  -5.347  -1.074  0.00  0.00    -0.274 OA
ATOM     14  N   UNL     1      10.661  -5.516  -1.155  0.00  0.00    -0.328 N 
ATOM     15  H   UNL     1      10.613  -6.612  -1.071  0.00  0.00    +0.145 HD
ATOM     16  H   UNL     1      11.635  -5.013  -1.235  0.00  0.00    +0.145 HD
ENDBRANCH  11  12
BRANCH  11  18
ATOM     17  C   UNL     1      10.344  -1.385  -2.708  0.00  0.00    +0.040 C 
ATOM     18  C   UNL     1      10.278  -2.909  -2.590  0.00  0.00    +0.141 C 
BRANCH  18  19
ATOM     19  O   UNL     1      11.602  -3.446  -2.606  0.00  0.00    -0.390 OA
ATOM     20  H   UNL     1      11.757  -4.532  -2.530  0.00  0.00    +0.210 HD
ENDBRANCH  18  19
ENDBRANCH  11  18
ENDBRANCH   7  11
ENDBRANCH   1   8
BRANCH   4  21
ATOM     21  C   UNL     1       2.285  -0.334  -0.022  0.00  0.00    +0.264 C 
BRANCH  21  22
ATOM     22  O   UNL     1       2.349   1.094  -0.015  0.00  0.00    -0.485 OA
BRANCH  22  23
ATOM     23  C   UNL     1       1.167   1.764   0.000  0.00  0.00    +0.147 A 
ATOM     24  C   UNL     1      -0.013   1.076   0.008  0.00  0.00    +0.049 A 
ATOM     25  C   UNL     1      -1.233   1.744   0.017  0.00  0.00    +0.024 A 
ATOM     26  C   UNL     1      -1.286   3.107   0.032  0.00  0.00    +0.050 A 
ATOM     27  C   UNL     1      -0.093   3.849   0.024  0.00  0.00    +0.022 A 
ATOM     28  C   UNL     1       1.152   3.174   0.008  0.00  0.00    +0.114 A 
ATOM     29  N   UNL     1       2.289   3.876   0.001  0.00  0.00    -0.251 NA
ATOM     30  C   UNL     1       2.281   5.187   0.007  0.00  0.00    +0.111 A 
ATOM     31  C   UNL     1       1.091   5.912   0.023  0.00  0.00    +0.020 A 
ATOM     32  C   UNL     1      -0.106   5.257   0.031  0.00  0.00    +0.013 A 
ATOM     33 CL   UNL     1      -2.819   3.920   0.051  0.00  0.00    -0.083 Cl
ENDBRANCH  22  23
ENDBRANCH  21  22
ENDBRANCH   4  21
TORSDOF 8
