REMARK  Name = ZINC31897707
REMARK  11 active torsions:
REMARK  status: ('A' for Active; 'I' for Inactive)
REMARK    1  A    between atoms: C_1  and  C_2
REMARK    2  A    between atoms: C_6  and  C_25
REMARK    3  A    between atoms: C_8  and  O_11
REMARK    4  A    between atoms: O_11  and  C_12
REMARK    5  A    between atoms: C_12  and  C_14
REMARK    6  A    between atoms: C_14  and  C_16
REMARK    7  A    between atoms: C_14  and  O_17
REMARK    8  A    between atoms: O_17  and  C_18
REMARK    9  A    between atoms: C_23  and  N_24
REMARK   10  A    between atoms: C_25  and  C_26
REMARK   11  A    between atoms: C_25  and  C_27
REMARK                            x       y       z     vdW  Elec       q    Type
REMARK                         _______ _______ _______ _____ _____    ______ ____
ROOT
ATOM      1  C   UNL     1      -3.294  -2.530  -0.255  0.00  0.00    +0.348 C 
ATOM      2  O   UNL     1      -2.215  -2.984  -0.554  0.00  0.00    -0.247 OA
ENDROOT
BRANCH   1   3
ATOM      3  C   UNL     1      -3.388  -1.163   0.372  0.00  0.00    +0.278 C 
ATOM      4  C   UNL     1      -3.923  -1.292   1.799  0.00  0.00    +0.064 C 
BRANCH   3   5
ATOM      5  O   UNL     1      -2.092  -0.562   0.402  0.00  0.00    -0.476 OA
BRANCH   5   6
ATOM      6  C   UNL     1      -2.042   0.797   0.427  0.00  0.00    +0.142 A 
ATOM      7  C   UNL     1      -3.210   1.533   0.538  0.00  0.00    +0.047 A 
ATOM      8  C   UNL     1      -3.157   2.915   0.563  0.00  0.00    +0.004 A 
ATOM      9  C   UNL     1      -1.941   3.566   0.478  0.00  0.00    +0.002 A 
ATOM     10  C   UNL     1      -0.770   2.838   0.372  0.00  0.00    +0.026 A 
ATOM     11  C   UNL     1      -0.815   1.452   0.340  0.00  0.00    +0.067 A 
BRANCH  11  12
ATOM     12  N   UNL     1       0.368   0.714   0.228  0.00  0.00    -0.355 N 
ATOM     13  H   UNL     1       1.336   1.233   0.159  0.00  0.00    +0.142 HD
ATOM     14  H   UNL     1       0.331  -0.385   0.207  0.00  0.00    +0.142 HD
ENDBRANCH  11  12
ENDBRANCH   5   6
ENDBRANCH   3   5
ENDBRANCH   1   3
BRANCH   1  15
ATOM     15  O   UNL     1      -4.408  -3.243  -0.481  0.00  0.00    -0.458 OA
BRANCH  15  21
ATOM     16  C   UNL     1      -5.483  -4.233   1.547  0.00  0.00    +0.007 C 
ATOM     17  C   UNL     1      -5.308  -5.612   0.908  0.00  0.00    -0.011 C 
ATOM     18  C   UNL     1      -6.543  -5.947   0.070  0.00  0.00    +0.004 C 
ATOM     19  C   UNL     1      -6.716  -4.894  -1.028  0.00  0.00    +0.007 C 
ATOM     20  C   UNL     1      -5.477  -4.886  -1.926  0.00  0.00    +0.032 C 
ATOM     21  C   UNL     1      -4.242  -4.552  -1.088  0.00  0.00    +0.180 C 
ATOM     22  C   UNL     1      -4.069  -5.604   0.009  0.00  0.00    +0.048 C 
BRANCH  20  23
ATOM     23  C   UNL     1      -5.649  -3.834  -3.023  0.00  0.00    -0.011 C 
ATOM     24  C   UNL     1      -4.411  -3.826  -3.921  0.00  0.00    +0.007 C 
ATOM     25  C   UNL     1      -6.885  -4.169  -3.861  0.00  0.00    +0.007 C 
ENDBRANCH  20  23
ENDBRANCH  15  21
ENDBRANCH   1  15
TORSDOF 7
