REMARK  Name = ZINC35098424
REMARK  16 active torsions:
REMARK  status: ('A' for Active; 'I' for Inactive)
REMARK    1  A    between atoms: C_1  and  C_2
REMARK    2  A    between atoms: C_2  and  C_3
REMARK    3  A    between atoms: C_3  and  C_4
REMARK    4  A    between atoms: C_4  and  N_5
REMARK    5  A    between atoms: C_13  and  C_15
REMARK    6  A    between atoms: C_16  and  C_18
REMARK    7  A    between atoms: C_18  and  C_20
REMARK    8  A    between atoms: C_18  and  N_25
REMARK    9  A    between atoms: C_20  and  C_22
REMARK   10  A    between atoms: C_20  and  C_23
REMARK   11  A    between atoms: C_23  and  C_24
REMARK   12  A    between atoms: N_25  and  S_26
REMARK   13  A    between atoms: S_26  and  C_29
REMARK   14  A    between atoms: C_30  and  C_37
REMARK   15  A    between atoms: C_32  and  C_36
REMARK   16  A    between atoms: C_34  and  C_35
REMARK                            x       y       z     vdW  Elec       q    Type
REMARK                         _______ _______ _______ _____ _____    ______ ____
ROOT
ATOM      1  C   UNL     1       5.364  -4.295   7.087  0.00  0.00    +0.165 C 
ENDROOT
BRANCH   1  12
ATOM      2  N   UNL     1      -0.966  -3.385   5.257  0.00  0.00    -0.299 N 
ATOM      3  C   UNL     1      -0.531  -4.654   5.390  0.00  0.00    +0.303 C 
ATOM      4  O   UNL     1      -1.232  -5.577   5.022  0.00  0.00    -0.253 OA
ATOM      5  N   UNL     1       0.678  -4.899   5.930  0.00  0.00    -0.280 N 
ATOM      6  C   UNL     1       1.473  -3.808   6.511  0.00  0.00    +0.128 C 
ATOM      7  C   UNL     1       2.851  -3.792   5.837  0.00  0.00    +0.127 C 
ATOM      8  N   UNL     1       3.399  -5.156   5.857  0.00  0.00    -0.297 N 
ATOM      9  C   UNL     1       2.604  -6.247   5.276  0.00  0.00    +0.130 C 
ATOM     10  C   UNL     1       1.224  -6.263   5.955  0.00  0.00    +0.092 C 
ATOM     11  C   UNL     1       0.286  -7.205   5.197  0.00  0.00    +0.030 C 
ATOM     12  C   UNL     1       4.609  -5.401   6.397  0.00  0.00    +0.235 C 
ATOM     13  O   UNL     1       5.089  -6.513   6.329  0.00  0.00    -0.274 OA
ATOM     14  H   UNL     1      -0.439  -2.652   5.614  0.00  0.00    +0.150 HD
BRANCH   2  15
ATOM     15  C   UNL     1      -2.232  -3.111   4.573  0.00  0.00    +0.106 C 
BRANCH  15  16
ATOM     16  C   UNL     1      -2.489  -1.603   4.560  0.00  0.00    +0.018 C 
BRANCH  16  18
ATOM     17  C   UNL     1      -4.069   0.190   3.832  0.00  0.00    +0.004 C 
ATOM     18  C   UNL     1      -3.812  -1.318   3.846  0.00  0.00    -0.002 C 
ENDBRANCH  16  18
ENDBRANCH  15  16
ENDBRANCH   2  15
ENDBRANCH   1  12
BRANCH   1  19
ATOM     19  C   UNL     1       5.794  -3.251   6.055  0.00  0.00    +0.013 C 
ATOM     20  C   UNL     1       6.437  -2.061   6.770  0.00  0.00    +0.009 C 
BRANCH  19  21
ATOM     21  C   UNL     1       6.806  -3.873   5.091  0.00  0.00    +0.002 C 
ATOM     22  C   UNL     1       7.141  -2.869   3.986  0.00  0.00    +0.004 C 
ENDBRANCH  19  21
ENDBRANCH   1  19
BRANCH   1  23
ATOM     23  N   UNL     1       6.550  -4.849   7.744  0.00  0.00    -0.178 NA
ATOM     24  H   UNL     1       7.206  -5.342   7.226  0.00  0.00    +0.149 HD
BRANCH  23  25
ATOM     25  S   UNL     1       6.772  -4.634   9.371  0.00  0.00    +0.060 S 
ATOM     26  O   UNL     1       7.975  -5.310   9.710  0.00  0.00    -0.153 OA
ATOM     27  O   UNL     1       6.578  -3.250   9.628  0.00  0.00    -0.153 OA
BRANCH  25  28
ATOM     28  C   UNL     1       5.467  -5.486  10.192  0.00  0.00    +0.111 A 
ATOM     29  C   UNL     1       5.552  -6.851  10.394  0.00  0.00    -0.024 A 
ATOM     30  C   UNL     1       4.527  -7.520  11.038  0.00  0.00    +0.008 A 
ATOM     31  C   UNL     1       3.419  -6.823  11.481  0.00  0.00    -0.050 A 
ATOM     32  C   UNL     1       3.334  -5.458  11.280  0.00  0.00    +0.008 A 
ATOM     33  C   UNL     1       4.360  -4.789  10.640  0.00  0.00    -0.024 A 
ATOM     34  C   UNL     1       4.271  -3.300  10.426  0.00  0.00    +0.046 C 
ATOM     35  C   UNL     1       2.302  -7.552  12.182  0.00  0.00    +0.044 C 
ATOM     36  C   UNL     1       6.761  -7.610   9.911  0.00  0.00    +0.046 C 
ENDBRANCH  25  28
ENDBRANCH  23  25
ENDBRANCH   1  23
TORSDOF 9
