REMARK  Name = ZINC33042790
REMARK  3 active torsions:
REMARK  status: ('A' for Active; 'I' for Inactive)
REMARK    1  A    between atoms: N_8  and  N_9
REMARK    2  A    between atoms: N_9  and  S_10
REMARK    3  A    between atoms: S_10  and  C_13
REMARK                            x       y       z     vdW  Elec       q    Type
REMARK                         _______ _______ _______ _____ _____    ______ ____
ROOT
ATOM      1  N   UNL     1       1.163   2.051   0.046  0.00  0.00    -0.136 N 
ATOM      2  H   UNL     1       2.025   1.610  -0.010  0.00  0.00    +0.197 HD
ENDROOT
BRANCH   1  10
ATOM      3  C   UNL     1      -3.453  -0.955   0.698  0.00  0.00    +0.001 A 
ATOM      4  C   UNL     1      -3.552  -2.227   0.158  0.00  0.00    +0.001 A 
ATOM      5  C   UNL     1      -2.477  -2.784  -0.505  0.00  0.00    +0.015 A 
ATOM      6  C   UNL     1      -1.288  -2.075  -0.637  0.00  0.00    +0.017 A 
ATOM      7  C   UNL     1      -1.185  -0.789  -0.093  0.00  0.00    +0.011 A 
ATOM      8  C   UNL     1      -2.284  -0.237   0.574  0.00  0.00    +0.011 A 
ATOM      9  C   UNL     1       0.041   0.017  -0.215  0.00  0.00    +0.070 C 
ATOM     10  N   UNL     1      -0.015   1.294   0.009  0.00  0.00    -0.170 NA
ATOM     11  C   UNL     1       1.358  -0.606  -0.588  0.00  0.00    +0.068 C 
ATOM     12  C   UNL     1       1.163  -1.431  -1.868  0.00  0.00    +0.080 C 
ATOM     13  S   UNL     1       0.065  -2.824  -1.483  0.00  0.00    -0.124 S 
ENDBRANCH   1  10
BRANCH   1  14
ATOM     14  S   UNL     1       1.083   3.699   0.186  0.00  0.00    +0.086 S 
ATOM     15  O   UNL     1       2.419   4.158   0.340  0.00  0.00    -0.149 OA
ATOM     16  O   UNL     1       0.238   4.155  -0.861  0.00  0.00    -0.149 OA
BRANCH  14  17
ATOM     17  C   UNL     1       0.251   4.054   1.697  0.00  0.00    +0.110 A 
ATOM     18  C   UNL     1      -1.124   4.198   1.711  0.00  0.00    +0.030 A 
ATOM     19  C   UNL     1      -1.778   4.472   2.897  0.00  0.00    +0.017 A 
ATOM     20  C   UNL     1      -1.056   4.613   4.069  0.00  0.00    +0.018 A 
ATOM     21  C   UNL     1       0.320   4.475   4.053  0.00  0.00    +0.017 A 
ATOM     22  C   UNL     1       0.973   4.195   2.868  0.00  0.00    +0.030 A 
ATOM     23 BR   UNL     1      -1.950   4.995   5.691  0.00  0.00    -0.050 Br
ENDBRANCH  14  17
ENDBRANCH   1  14
TORSDOF 3
