REMARK  Name = ZINC09387254
REMARK  8 active torsions:
REMARK  status: ('A' for Active; 'I' for Inactive)
REMARK    1  A    between atoms: C_1  and  C_2
REMARK    2  A    between atoms: C_8  and  C_10
REMARK    3  A    between atoms: C_10  and  C_12
REMARK    4  A    between atoms: C_10  and  O_13
REMARK    5  A    between atoms: O_13  and  C_14
REMARK    6  A    between atoms: C_14  and  C_16
REMARK    7  A    between atoms: C_19  and  C_22
REMARK    8  A    between atoms: C_25  and  O_28
REMARK                            x       y       z     vdW  Elec       q    Type
REMARK                         _______ _______ _______ _____ _____    ______ ____
ROOT
ATOM      1  C   UNL     1       4.114   5.560  -1.558  0.00  0.00    +0.340 C 
ATOM      2  O   UNL     1       4.757   5.541  -0.527  0.00  0.00    -0.245 OA
ENDROOT
BRANCH   1   3
ATOM      3  C   UNL     1       4.267   6.684  -2.502  0.00  0.00    +0.059 A 
ATOM      4  C   UNL     1       3.532   6.704  -3.691  0.00  0.00    +0.015 A 
ATOM      5  C   UNL     1       3.672   7.754  -4.568  0.00  0.00    +0.009 A 
ATOM      6  C   UNL     1       4.555   8.795  -4.277  0.00  0.00    -0.018 A 
ATOM      7  C   UNL     1       5.294   8.774  -3.092  0.00  0.00    +0.009 A 
ATOM      8  C   UNL     1       5.152   7.727  -2.211  0.00  0.00    +0.015 A 
BRANCH   6   9
ATOM      9  C   UNL     1       4.709   9.923  -5.225  0.00  0.00    -0.018 A 
ATOM     10  C   UNL     1       5.587  10.967  -4.933  0.00  0.00    +0.012 A 
ATOM     11  C   UNL     1       5.732  12.012  -5.820  0.00  0.00    +0.046 A 
ATOM     12  C   UNL     1       4.997  12.032  -6.998  0.00  0.00    +0.117 A 
ATOM     13  C   UNL     1       4.118  10.997  -7.289  0.00  0.00    +0.046 A 
ATOM     14  C   UNL     1       3.972   9.946  -6.409  0.00  0.00    +0.012 A 
BRANCH  12  15
ATOM     15  O   UNL     1       5.138  13.066  -7.867  0.00  0.00    -0.507 OA
ATOM     16  H   UNL     1       4.530  13.801  -7.707  0.00  0.00    +0.292 HD
ENDBRANCH  12  15
ENDBRANCH   6   9
ENDBRANCH   1   3
BRANCH   1  17
ATOM     17  O   UNL     1       3.262   4.555  -1.839  0.00  0.00    -0.449 OA
BRANCH  17  18
ATOM     18  C   UNL     1       3.163   3.483  -0.865  0.00  0.00    +0.259 C 
ATOM     19  C   UNL     1       4.187   2.396  -1.196  0.00  0.00    +0.062 C 
BRANCH  18  27
ATOM     20  C   UNL     1       0.819  -1.825   1.649  0.00  0.00    +0.007 C 
ATOM     21  C   UNL     1       0.822  -0.303   1.490  0.00  0.00    -0.011 C 
ATOM     22  C   UNL     1      -0.010   0.084   0.265  0.00  0.00    +0.022 C 
ATOM     23  C   UNL     1      -0.033   1.609   0.130  0.00  0.00    +0.108 C 
ATOM     24  N   UNL     1       1.351   2.102   0.099  0.00  0.00    -0.298 N 
ATOM     25  C   UNL     1       2.263   1.714   1.184  0.00  0.00    +0.108 C 
ATOM     26  C   UNL     1       2.260   0.187   1.308  0.00  0.00    +0.022 C 
ATOM     27  C   UNL     1       1.776   2.895  -0.904  0.00  0.00    +0.256 C 
ATOM     28  O   UNL     1       1.042   3.135  -1.839  0.00  0.00    -0.272 OA
ENDBRANCH  18  27
ENDBRANCH  17  18
ENDBRANCH   1  17
TORSDOF 6
