REMARK  Name = ZINC47550101
REMARK  8 active torsions:
REMARK  status: ('A' for Active; 'I' for Inactive)
REMARK    1  A    between atoms: C_1  and  C_2
REMARK    2  A    between atoms: C_2  and  C_3
REMARK    3  A    between atoms: C_3  and  C_5
REMARK    4  A    between atoms: C_3  and  N_6
REMARK    5  A    between atoms: C_7  and  C_9
REMARK    6  A    between atoms: C_9  and  C_10
REMARK    7  A    between atoms: C_10  and  N_11
REMARK    8  A    between atoms: N_14  and  C_15
REMARK                            x       y       z     vdW  Elec       q    Type
REMARK                         _______ _______ _______ _____ _____    ______ ____
ROOT
ATOM      1  N   UNL     1      -6.256   0.737   3.692  0.00  0.00    -0.299 N 
ATOM      2  C   UNL     1      -7.597   0.856   3.751  0.00  0.00    +0.304 C 
ATOM      3  O   UNL     1      -8.270   0.648   2.759  0.00  0.00    -0.253 OA
ATOM      4  N   UNL     1      -8.193   1.203   4.909  0.00  0.00    -0.268 N 
ATOM      5  H   UNL     1      -5.719   0.902   4.483  0.00  0.00    +0.150 HD
ATOM      6  H   UNL     1      -7.663   1.305   5.715  0.00  0.00    +0.156 HD
ENDROOT
BRANCH   4   7
ATOM      7  C   UNL     1      -9.576   1.418   4.948  0.00  0.00    +0.049 A 
ATOM      8  C   UNL     1     -10.421   0.657   4.151  0.00  0.00    +0.027 A 
ATOM      9  C   UNL     1     -11.785   0.870   4.191  0.00  0.00    +0.040 A 
ATOM     10  C   UNL     1     -12.311   1.843   5.025  0.00  0.00    +0.125 A 
ATOM     11  C   UNL     1     -11.471   2.603   5.821  0.00  0.00    +0.055 A 
ATOM     12  C   UNL     1     -10.106   2.389   5.788  0.00  0.00    +0.042 A 
ATOM     13 BR   UNL     1      -8.960   3.423   6.881  0.00  0.00    -0.048 Br
ATOM     14  F   UNL     1     -13.645   2.050   5.062  0.00  0.00    -0.205 F 
ENDBRANCH   4   7
BRANCH   1  15
ATOM     15  C   UNL     1      -5.609   0.359   2.433  0.00  0.00    +0.115 C 
BRANCH  15  16
ATOM     16  C   UNL     1      -4.093   0.296   2.637  0.00  0.00    +0.114 C 
BRANCH  16  18
ATOM     17  N   UNL     1      -2.086  -0.211   1.284  0.00  0.00    -0.313 N 
ATOM     18  C   UNL     1      -3.428  -0.092   1.343  0.00  0.00    +0.215 C 
ATOM     19  O   UNL     1      -4.099  -0.299   0.354  0.00  0.00    -0.276 OA
ATOM     20  H   UNL     1      -1.550  -0.046   2.074  0.00  0.00    +0.149 HD
BRANCH  17  21
ATOM     21  C   UNL     1      -1.439  -0.589   0.025  0.00  0.00    +0.070 C 
ATOM     22  C   UNL     1      -1.433  -2.113  -0.108  0.00  0.00    +0.028 C 
BRANCH  21  24
ATOM     23  C   UNL     1      -0.009   1.460   0.022  0.00  0.00    +0.005 C 
ATOM     24  C   UNL     1       0.000  -0.070   0.015  0.00  0.00    +0.018 C 
ENDBRANCH  21  24
ENDBRANCH  17  21
ENDBRANCH  16  18
ENDBRANCH  15  16
ENDBRANCH   1  15
TORSDOF 6
