REMARK  Name = ZINC16029104
REMARK  6 active torsions:
REMARK  status: ('A' for Active; 'I' for Inactive)
REMARK    1  A    between atoms: C_1  and  C_2
REMARK    2  A    between atoms: C_5  and  N_8
REMARK    3  A    between atoms: C_9  and  C_26
REMARK    4  A    between atoms: C_11  and  C_16
REMARK    5  A    between atoms: N_18  and  C_19
REMARK    6  A    between atoms: C_24  and  C_25
REMARK                            x       y       z     vdW  Elec       q    Type
REMARK                         _______ _______ _______ _____ _____    ______ ____
ROOT
ATOM      1  N   UNL     1       2.231   5.340   0.850  0.00  0.00    -0.263 N 
ATOM      2  C   UNL     1       1.010   5.182   0.051  0.00  0.00    +0.130 C 
ATOM      3  C   UNL     1       1.428   5.487  -1.405  0.00  0.00    +0.110 C 
ATOM      4  C   UNL     1       2.937   5.148  -1.377  0.00  0.00    +0.111 C 
ATOM      5  C   UNL     1       3.329   5.319   0.074  0.00  0.00    +0.221 C 
ATOM      6  O   UNL     1       4.468   5.421   0.478  0.00  0.00    -0.275 OA
ENDROOT
BRANCH   1  11
ATOM      7  C   UNL     1       2.310   5.957   6.489  0.00  0.00    +0.044 C 
ATOM      8  C   UNL     1       2.289   5.793   4.991  0.00  0.00    -0.050 A 
ATOM      9  C   UNL     1       3.477   5.672   4.294  0.00  0.00    +0.005 A 
ATOM     10  C   UNL     1       3.461   5.521   2.921  0.00  0.00    +0.024 A 
ATOM     11  C   UNL     1       2.251   5.492   2.241  0.00  0.00    +0.037 A 
ATOM     12  C   UNL     1       1.060   5.621   2.943  0.00  0.00    +0.024 A 
ATOM     13  C   UNL     1       1.082   5.765   4.317  0.00  0.00    +0.005 A 
ENDBRANCH   1  11
BRANCH   2  14
ATOM     14  C   UNL     1       0.494   3.771   0.161  0.00  0.00    +0.011 A 
ATOM     15  C   UNL     1      -0.787   3.334   0.242  0.00  0.00    +0.013 A 
ATOM     16  C   UNL     1      -1.028   1.976   0.331  0.00  0.00    +0.008 A 
ATOM     17  C   UNL     1       0.024   1.121   0.346  0.00  0.00    +0.045 A 
ATOM     18  S   UNL     1       1.410   2.240   0.217  0.00  0.00    -0.100 S 
ENDBRANCH   2  14
BRANCH   3  19
ATOM     19  C   UNL     1       1.208   6.941  -1.736  0.00  0.00    +0.223 C 
ATOM     20  O   UNL     1       0.756   7.692  -0.897  0.00  0.00    -0.275 OA
ATOM     21  N   UNL     1       1.513   7.406  -2.963  0.00  0.00    -0.285 N 
ATOM     22  H   UNL     1       1.820   6.795  -3.651  0.00  0.00    +0.155 HD
BRANCH  21  23
ATOM     23  C   UNL     1       1.386   8.771  -3.246  0.00  0.00    +0.036 A 
ATOM     24  C   UNL     1       0.493   9.551  -2.523  0.00  0.00    +0.023 A 
ATOM     25  C   UNL     1       0.374  10.898  -2.800  0.00  0.00    +0.002 A 
ATOM     26  C   UNL     1       1.135  11.469  -3.804  0.00  0.00    +0.000 A 
ATOM     27  C   UNL     1       2.021  10.694  -4.529  0.00  0.00    +0.005 A 
ATOM     28  C   UNL     1       2.149   9.346  -4.253  0.00  0.00    -0.029 A 
ATOM     29  C   UNL     1       3.115   8.502  -5.044  0.00  0.00    +0.045 C 
ENDBRANCH  21  23
ENDBRANCH   3  19
TORSDOF 4
