REMARK  Name = ZINC08584758
REMARK  7 active torsions:
REMARK  status: ('A' for Active; 'I' for Inactive)
REMARK    1  A    between atoms: C_4  and  N_7
REMARK    2  A    between atoms: N_10  and  C_13
REMARK    3  A    between atoms: C_13  and  C_15
REMARK    4  A    between atoms: C_13  and  C_28
REMARK    5  A    between atoms: C_15  and  N_16
REMARK    6  A    between atoms: N_16  and  S_17
REMARK    7  A    between atoms: S_17  and  C_20
REMARK                            x       y       z     vdW  Elec       q    Type
REMARK                         _______ _______ _______ _____ _____    ______ ____
ROOT
ATOM      1  C   UNL     1       6.890  -2.420  -1.769  0.00  0.00    +0.015 C 
ENDROOT
BRANCH   1   5
ATOM      2  N   UNL     1       4.430  -2.413   1.616  0.00  0.00    -0.333 N 
ATOM      3  C   UNL     1       3.766  -2.308   0.307  0.00  0.00    +0.086 C 
ATOM      4  C   UNL     1       4.742  -2.790  -0.772  0.00  0.00    -0.059 C 
ATOM      5  N   UNL     1       5.997  -2.036  -0.667  0.00  0.00    +0.389 N 
ATOM      6  C   UNL     1       6.651  -2.329   0.615  0.00  0.00    -0.059 C 
ATOM      7  C   UNL     1       5.768  -1.820   1.764  0.00  0.00    +0.086 C 
ATOM      8  H   UNL     1       5.801  -1.048  -0.725  0.00  0.00    -0.081 HD
BRANCH   2  12
ATOM      9  C   UNL     1       2.567  -4.321   4.814  0.00  0.00    +0.000 A 
ATOM     10  C   UNL     1       3.873  -3.884   4.937  0.00  0.00    +0.002 A 
ATOM     11  C   UNL     1       4.494  -3.251   3.878  0.00  0.00    +0.023 A 
ATOM     12  C   UNL     1       3.805  -3.054   2.689  0.00  0.00    +0.030 A 
ATOM     13  C   UNL     1       2.493  -3.494   2.568  0.00  0.00    +0.023 A 
ATOM     14  C   UNL     1       1.878  -4.126   3.631  0.00  0.00    +0.002 A 
ENDBRANCH   2  12
ENDBRANCH   1   5
BRANCH   1  15
ATOM     15  C   UNL     1       7.115  -3.910  -1.738  0.00  0.00    +0.093 A 
ATOM     16  C   UNL     1       7.046  -4.738  -2.795  0.00  0.00    +0.043 A 
ATOM     17  C   UNL     1       7.324  -6.039  -2.316  0.00  0.00    +0.041 A 
ATOM     18  C   UNL     1       7.545  -5.928  -0.994  0.00  0.00    +0.195 A 
ATOM     19  O   UNL     1       7.423  -4.635  -0.650  0.00  0.00    -0.469 OA
ENDBRANCH   1  15
BRANCH   1  20
ATOM     20  C   UNL     1       8.231  -1.699  -1.613  0.00  0.00    +0.098 C 
BRANCH  20  21
ATOM     21  N   UNL     1       8.001  -0.254  -1.528  0.00  0.00    -0.191 NA
ATOM     22  H   UNL     1       7.149   0.119  -1.804  0.00  0.00    +0.148 HD
BRANCH  21  23
ATOM     23  S   UNL     1       9.195   0.742  -0.958  0.00  0.00    +0.061 S 
ATOM     24  O   UNL     1       8.684   2.066  -1.022  0.00  0.00    -0.153 OA
ATOM     25  O   UNL     1       9.663   0.163   0.253  0.00  0.00    -0.153 OA
BRANCH  23  26
ATOM     26  C   UNL     1      10.531   0.661  -2.104  0.00  0.00    +0.143 A 
ATOM     27  C   UNL     1      10.896   1.786  -2.820  0.00  0.00    +0.069 A 
ATOM     28  C   UNL     1      11.945   1.723  -3.720  0.00  0.00    +0.125 A 
ATOM     29  C   UNL     1      12.631   0.534  -3.903  0.00  0.00    +0.041 A 
ATOM     30  C   UNL     1      12.266  -0.590  -3.187  0.00  0.00    +0.043 A 
ATOM     31  C   UNL     1      11.219  -0.526  -2.283  0.00  0.00    +0.150 A 
ATOM     32  F   UNL     1      10.867  -1.624  -1.579  0.00  0.00    -0.203 F 
ATOM     33  F   UNL     1      12.301   2.822  -4.420  0.00  0.00    -0.205 F 
ENDBRANCH  23  26
ENDBRANCH  21  23
ENDBRANCH  20  21
ENDBRANCH   1  20
TORSDOF 7
