REMARK  Name = ZINC50285480
REMARK  10 active torsions:
REMARK  status: ('A' for Active; 'I' for Inactive)
REMARK    1  A    between atoms: C_1  and  C_2
REMARK    2  A    between atoms: C_2  and  C_3
REMARK    3  A    between atoms: C_3  and  C_5
REMARK    4  A    between atoms: C_3  and  N_22
REMARK    5  A    between atoms: C_5  and  C_6
REMARK    6  A    between atoms: C_11  and  O_12
REMARK    7  A    between atoms: O_12  and  C_13
REMARK    8  A    between atoms: C_13  and  C_14
REMARK    9  A    between atoms: C_14  and  C_15
REMARK   10  A    between atoms: C_16  and  C_20
REMARK                            x       y       z     vdW  Elec       q    Type
REMARK                         _______ _______ _______ _____ _____    ______ ____
ROOT
ATOM      1  C   UNL     1       1.227  -2.500  -2.628  0.00  0.00    -0.006 A 
ATOM      2  C   UNL     1       0.413  -2.726  -3.721  0.00  0.00    +0.022 A 
ATOM      3  C   UNL     1       0.960  -3.164  -4.913  0.00  0.00    +0.018 A 
ATOM      4  C   UNL     1       2.324  -3.377  -5.014  0.00  0.00    +0.019 A 
ATOM      5  C   UNL     1       3.141  -3.151  -3.924  0.00  0.00    +0.047 A 
ATOM      6  C   UNL     1       2.595  -2.707  -2.728  0.00  0.00    +0.124 A 
ATOM      7 BR   UNL     1      -0.157  -3.473  -6.408  0.00  0.00    -0.050 Br
ENDROOT
BRANCH   1   8
ATOM      8  C   UNL     1       0.630  -2.023  -1.329  0.00  0.00    +0.022 C 
BRANCH   8   9
ATOM      9  C   UNL     1       0.718  -0.497  -1.257  0.00  0.00    -0.071 C 
BRANCH   9  10
ATOM     10  N   UNL     1       2.129  -0.090  -1.209  0.00  0.00    +0.380 N 
ATOM     11  H   UNL     1       2.601  -0.415  -2.039  0.00  0.00    -0.090 HD
ATOM     12  H   UNL     1       2.187   0.916  -1.162  0.00  0.00    -0.090 HD
ATOM     13  H   UNL     1       2.567  -0.491  -0.394  0.00  0.00    -0.090 HD
ENDBRANCH   9  10
BRANCH   9  15
ATOM     14  C   UNL     1      -0.019   1.526   0.010  0.00  0.00    +0.002 C 
ATOM     15  C   UNL     1       0.002  -0.004   0.002  0.00  0.00    -0.019 C 
ENDBRANCH   9  15
ENDBRANCH   8   9
ENDBRANCH   1   8
BRANCH   6  16
ATOM     16  O   UNL     1       3.398  -2.481  -1.656  0.00  0.00    -0.491 OA
BRANCH  16  17
ATOM     17  C   UNL     1       4.797  -2.715  -1.832  0.00  0.00    +0.234 C 
BRANCH  17  18
ATOM     18  C   UNL     1       5.534  -2.408  -0.526  0.00  0.00    +0.085 C 
BRANCH  18  19
ATOM     19  C   UNL     1       7.009  -2.655  -0.712  0.00  0.00    +0.015 A 
ATOM     20  C   UNL     1       7.986  -1.805  -1.118  0.00  0.00    +0.049 A 
ATOM     21  N   UNL     1       9.208  -2.292  -1.193  0.00  0.00    -0.252 NA
ATOM     22  C   UNL     1       9.465  -3.539  -0.889  0.00  0.00    +0.156 A 
ATOM     23  S   UNL     1       7.957  -4.146  -0.451  0.00  0.00    -0.080 S 
ATOM     24  C   UNL     1       7.686  -0.370  -1.468  0.00  0.00    +0.066 C 
ENDBRANCH  18  19
ENDBRANCH  17  18
ENDBRANCH  16  17
ENDBRANCH   6  16
TORSDOF 8
