REMARK  Name = ZINC09438835
REMARK  7 active torsions:
REMARK  status: ('A' for Active; 'I' for Inactive)
REMARK    1  A    between atoms: C_1  and  S_2
REMARK    2  A    between atoms: S_2  and  C_3
REMARK    3  A    between atoms: C_3  and  C_4
REMARK    4  A    between atoms: C_4  and  C_5
REMARK    5  A    between atoms: C_5  and  C_7
REMARK    6  A    between atoms: C_5  and  N_22
REMARK    7  A    between atoms: C_15  and  C_17
REMARK                            x       y       z     vdW  Elec       q    Type
REMARK                         _______ _______ _______ _____ _____    ______ ____
ROOT
ATOM      1  C   UNL     1       5.962   3.665  -0.641  0.00  0.00    +0.159 C 
ENDROOT
BRANCH   1   2
ATOM      2  N   UNL     1       5.261   2.386  -0.775  0.00  0.00    -0.316 N 
ATOM      3  C   UNL     1       3.949   2.272  -0.368  0.00  0.00    +0.150 C 
ATOM      4  N   UNL     1       3.330   3.292   0.136  0.00  0.00    -0.113 NA
ATOM      5  S   UNL     1       1.787   2.756   0.499  0.00  0.00    +0.101 S 
ATOM      6  O   UNL     1       1.651   2.754   1.914  0.00  0.00    -0.146 OA
ATOM      7  O   UNL     1       0.881   3.417  -0.374  0.00  0.00    -0.146 OA
ATOM      8  C   UNL     1       1.917   1.071  -0.033  0.00  0.00    +0.123 A 
ATOM      9  C   UNL     1       3.237   0.992  -0.499  0.00  0.00    +0.043 A 
ATOM     10  C   UNL     1       3.671  -0.244  -1.002  0.00  0.00    +0.013 A 
ATOM     11  C   UNL     1       2.817  -1.324  -1.026  0.00  0.00    +0.001 A 
ATOM     12  C   UNL     1       1.520  -1.215  -0.558  0.00  0.00    +0.002 A 
ATOM     13  C   UNL     1       1.073  -0.000  -0.058  0.00  0.00    +0.030 A 
ATOM     14  H   UNL     1       5.720   1.618  -1.151  0.00  0.00    +0.148 HD
ENDBRANCH   1   2
BRANCH   1  15
ATOM     15  C   UNL     1       7.446   3.418  -0.554  0.00  0.00    +0.236 C 
ATOM     16  O   UNL     1       7.910   2.370  -0.952  0.00  0.00    -0.274 OA
ATOM     17  N   UNL     1       8.257   4.360  -0.034  0.00  0.00    -0.297 N 
ATOM     18  C   UNL     1       7.699   5.594   0.538  0.00  0.00    +0.127 C 
ATOM     19  C   UNL     1       8.211   5.735   1.981  0.00  0.00    +0.127 C 
ATOM     20  N   UNL     1       9.669   5.550   1.981  0.00  0.00    -0.292 N 
ATOM     21  C   UNL     1      10.227   4.319   1.404  0.00  0.00    +0.127 C 
ATOM     22  C   UNL     1       9.714   4.176  -0.034  0.00  0.00    +0.127 C 
ATOM     23  C   UNL     1      10.480   6.494   2.500  0.00  0.00    +0.282 C 
ATOM     24  O   UNL     1      10.019   7.561   2.860  0.00  0.00    -0.267 OA
BRANCH  23  25
ATOM     25  C   UNL     1      11.917   6.233   2.631  0.00  0.00    +0.189 A 
ATOM     26  C   UNL     1      12.864   7.137   3.019  0.00  0.00    +0.054 A 
ATOM     27  C   UNL     1      14.095   6.463   3.005  0.00  0.00    +0.042 A 
ATOM     28  C   UNL     1      13.849   5.194   2.614  0.00  0.00    +0.196 A 
ATOM     29  O   UNL     1      12.535   5.057   2.395  0.00  0.00    -0.458 OA
ENDBRANCH  23  25
ENDBRANCH   1  15
BRANCH   1  30
ATOM     30  C   UNL     1       5.661   4.542  -1.858  0.00  0.00    +0.042 C 
BRANCH  30  31
ATOM     31  C   UNL     1       4.198   4.989  -1.816  0.00  0.00    +0.071 C 
BRANCH  31  33
ATOM     32  C   UNL     1       2.093   6.468  -3.062  0.00  0.00    +0.084 C 
ATOM     33  S   UNL     1       3.842   6.028  -3.259  0.00  0.00    -0.164 S 
ENDBRANCH  31  33
ENDBRANCH  30  31
ENDBRANCH   1  30
TORSDOF 6
