REMARK  Name = ZINC33326516
REMARK  6 active torsions:
REMARK  status: ('A' for Active; 'I' for Inactive)
REMARK    1  A    between atoms: C_1  and  C_2
REMARK    2  A    between atoms: C_3  and  C_22
REMARK    3  A    between atoms: C_4  and  N_21
REMARK    4  A    between atoms: C_9  and  C_10
REMARK    5  A    between atoms: C_16  and  C_20
REMARK    6  A    between atoms: C_17  and  C_18
REMARK                            x       y       z     vdW  Elec       q    Type
REMARK                         _______ _______ _______ _____ _____    ______ ____
ROOT
ATOM      1  C   UNL     1      -2.009   0.345   1.341  0.00  0.00    +0.046 C 
ATOM      2  C   UNL     1      -0.980  -0.583   0.748  0.00  0.00    -0.020 A 
ATOM      3  C   UNL     1      -1.183  -1.178  -0.501  0.00  0.00    +0.095 A 
ATOM      4  C   UNL     1      -0.196  -2.040  -1.020  0.00  0.00    +0.135 A 
ATOM      5  N   UNL     1       0.910  -2.290  -0.346  0.00  0.00    -0.230 NA
ATOM      6  C   UNL     1       1.143  -1.744   0.847  0.00  0.00    +0.092 A 
ATOM      7  C   UNL     1       0.200  -0.867   1.426  0.00  0.00    +0.013 A 
ATOM      8  C   UNL     1       0.751  -0.434   2.725  0.00  0.00    -0.010 C 
ATOM      9  C   UNL     1       0.140   0.432   3.627  0.00  0.00    +0.024 C 
ATOM     10  C   UNL     1       2.003  -1.054   2.889  0.00  0.00    -0.023 C 
ATOM     11  C   UNL     1       2.267  -1.852   1.789  0.00  0.00    +0.081 C 
ATOM     12  C   UNL     1       2.909  -0.884   4.081  0.00  0.00    +0.046 C 
ENDROOT
BRANCH   9  13
ATOM     13  C   UNL     1       0.557   0.460   4.965  0.00  0.00    +0.014 A 
ATOM     14  C   UNL     1       0.949   1.553   5.744  0.00  0.00    +0.017 A 
ATOM     15  C   UNL     1       1.307   1.263   7.033  0.00  0.00    +0.028 A 
ATOM     16  C   UNL     1       1.260  -0.030   7.459  0.00  0.00    +0.079 A 
ATOM     17  S   UNL     1       0.720  -0.889   6.120  0.00  0.00    -0.077 S 
ATOM     18 CL   UNL     1       1.661  -0.649   9.031  0.00  0.00    -0.076 Cl
ENDBRANCH   9  13
BRANCH   4  19
ATOM     19  N   UNL     1      -0.390  -2.633  -2.256  0.00  0.00    -0.342 N 
ATOM     20  H   UNL     1      -1.201  -2.455  -2.757  0.00  0.00    +0.144 HD
ATOM     21  H   UNL     1       0.284  -3.227  -2.620  0.00  0.00    +0.144 HD
ENDBRANCH   4  19
BRANCH  11  22
ATOM     22  C   UNL     1       3.446  -2.640   1.594  0.00  0.00    +0.102 C 
ATOM     23  N   UNL     1       4.382  -3.265   1.440  0.00  0.00    -0.191 NA
ENDBRANCH  11  22
BRANCH   3  24
ATOM     24  C   UNL     1      -2.380  -0.916  -1.243  0.00  0.00    +0.103 C 
ATOM     25  N   UNL     1      -3.329  -0.708  -1.832  0.00  0.00    -0.191 NA
ENDBRANCH   3  24
TORSDOF 4
