REMARK  Name = ZINC02446445
REMARK  7 active torsions:
REMARK  status: ('A' for Active; 'I' for Inactive)
REMARK    1  A    between atoms: C_1  and  C_2
REMARK    2  A    between atoms: C_3  and  C_38
REMARK    3  A    between atoms: C_5  and  N_11
REMARK    4  A    between atoms: C_6  and  C_7
REMARK    5  A    between atoms: C_7  and  O_9
REMARK    6  A    between atoms: O_9  and  C_10
REMARK    7  A    between atoms: C_31  and  C_36
REMARK                            x       y       z     vdW  Elec       q    Type
REMARK                         _______ _______ _______ _____ _____    ______ ____
ROOT
ATOM      1  N   UNL     1       0.054  -3.119   2.085  0.00  0.00    -0.203 N 
ATOM      2  C   UNL     1       0.148  -2.808   3.383  0.00  0.00    +0.229 C 
ATOM      3  O   UNL     1       0.228  -1.685   3.831  0.00  0.00    -0.275 OA
ATOM      4  C   UNL     1       0.139  -4.077   4.206  0.00  0.00    +0.074 C 
ATOM      5  C   UNL     1      -1.162  -4.144   5.027  0.00  0.00    -0.054 C 
ATOM      6  C   UNL     1      -1.701  -2.717   5.239  0.00  0.00    -0.016 C 
ATOM      7  C   UNL     1      -2.648  -2.454   4.052  0.00  0.00    -0.020 C 
ATOM      8  C   UNL     1      -2.589  -3.736   3.198  0.00  0.00    -0.076 C 
ATOM      9  N   UNL     1      -2.151  -4.828   4.140  0.00  0.00    +0.395 N 
ATOM     10  C   UNL     1      -1.361  -5.836   3.413  0.00  0.00    +0.053 C 
ATOM     11  C   UNL     1       0.020  -5.197   3.136  0.00  0.00    +0.089 C 
ATOM     12  C   UNL     1      -0.027  -4.431   1.833  0.00  0.00    +0.230 C 
ATOM     13  O   UNL     1      -0.121  -4.928   0.731  0.00  0.00    -0.275 OA
ATOM     14  C   UNL     1      -1.223  -7.106   4.205  0.00  0.00    -0.027 A 
ATOM     15  C   UNL     1      -0.693  -7.399   5.441  0.00  0.00    +0.006 A 
ATOM     16  C   UNL     1      -0.711  -8.700   5.912  0.00  0.00    +0.020 A 
ATOM     17  C   UNL     1      -1.264  -9.705   5.138  0.00  0.00    +0.046 A 
ATOM     18  C   UNL     1      -1.796  -9.416   3.897  0.00  0.00    -0.011 A 
ATOM     19  C   UNL     1      -1.781  -8.109   3.417  0.00  0.00    +0.040 A 
ATOM     20  N   UNL     1      -2.250  -7.574   2.215  0.00  0.00    -0.286 N 
ATOM     21  C   UNL     1      -2.041  -6.246   2.134  0.00  0.00    +0.212 C 
ATOM     22  O   UNL     1      -2.343  -5.520   1.210  0.00  0.00    -0.277 OA
ATOM     23  C   UNL     1      -2.395 -10.517   3.061  0.00  0.00    +0.047 C 
ATOM     24 CL   UNL     1      -1.287 -11.337   5.729  0.00  0.00    -0.083 Cl
ATOM     25  H   UNL     1      -2.676  -8.098   1.519  0.00  0.00    +0.155 HD
ATOM     26  H   UNL     1      -2.921  -5.229   4.655  0.00  0.00    -0.079 HD
ENDROOT
BRANCH   1  31
ATOM     27  C   UNL     1       1.895   0.055  -1.409  0.00  0.00    +0.045 C 
ATOM     28  C   UNL     1       0.816  -0.619  -0.601  0.00  0.00    -0.025 A 
ATOM     29  C   UNL     1      -0.488  -0.336  -0.773  0.00  0.00    -0.008 A 
ATOM     30  S   UNL     1      -1.296  -1.393   0.409  0.00  0.00    -0.077 S 
ATOM     31  C   UNL     1       0.037  -2.158   1.081  0.00  0.00    +0.096 A 
ATOM     32  C   UNL     1       1.118  -1.615   0.402  0.00  0.00    +0.091 A 
ATOM     33  C   UNL     1      -1.114   0.641  -1.734  0.00  0.00    +0.052 C 
BRANCH  32  34
ATOM     34  C   UNL     1       2.494  -2.025   0.691  0.00  0.00    +0.342 C 
ATOM     35  O   UNL     1       3.139  -1.439   1.540  0.00  0.00    -0.245 OA
BRANCH  34  36
ATOM     36  O   UNL     1       3.047  -3.053   0.015  0.00  0.00    -0.464 OA
ATOM     37  C   UNL     1       4.393  -3.399   0.348  0.00  0.00    +0.280 C 
ENDBRANCH  34  36
ENDBRANCH  32  34
ENDBRANCH   1  31
TORSDOF 3
