REMARK  Name = ZINC25912299
REMARK  6 active torsions:
REMARK  status: ('A' for Active; 'I' for Inactive)
REMARK    1  A    between atoms: C_4  and  C_7
REMARK    2  A    between atoms: C_7  and  C_9
REMARK    3  A    between atoms: C_7  and  N_20
REMARK    4  A    between atoms: C_9  and  C_10
REMARK    5  A    between atoms: N_12  and  C_13
REMARK    6  A    between atoms: C_13  and  C_14
REMARK                            x       y       z     vdW  Elec       q    Type
REMARK                         _______ _______ _______ _____ _____    ______ ____
ROOT
ATOM      1  C   UNL     1      -2.512   3.627   0.123  0.00  0.00    +0.113 C 
ENDROOT
BRANCH   1   2
ATOM      2  N   UNL     1      -1.122   3.164   0.128  0.00  0.00    -0.292 N 
ATOM      3  C   UNL     1      -0.168   3.905   0.726  0.00  0.00    +0.298 C 
ATOM      4  O   UNL     1      -0.443   4.997   1.183  0.00  0.00    -0.253 OA
ATOM      5  N   UNL     1       1.092   3.434   0.817  0.00  0.00    -0.313 N 
ATOM      6  H   UNL     1      -0.857   2.213  -0.356  0.00  0.00    +0.151 HD
ATOM      7  H   UNL     1       1.871   4.038   1.305  0.00  0.00    +0.146 HD
ATOM      8  H   UNL     1       1.341   2.446   0.403  0.00  0.00    +0.146 HD
ENDBRANCH   1   2
BRANCH   1  12
ATOM      9  C   UNL     1      -4.408   2.481   3.775  0.00  0.00    +0.000 A 
ATOM     10  C   UNL     1      -4.582   3.758   3.277  0.00  0.00    +0.000 A 
ATOM     11  C   UNL     1      -3.969   4.129   2.095  0.00  0.00    +0.005 A 
ATOM     12  C   UNL     1      -3.181   3.223   1.411  0.00  0.00    -0.027 A 
ATOM     13  C   UNL     1      -3.010   1.944   1.907  0.00  0.00    +0.005 A 
ATOM     14  C   UNL     1      -3.620   1.574   3.091  0.00  0.00    +0.000 A 
ENDBRANCH   1  12
BRANCH   1  15
ATOM     15  C   UNL     1      -3.255   2.997  -1.057  0.00  0.00    +0.123 C 
BRANCH  15  16
ATOM     16  C   UNL     1      -2.663   3.498  -2.349  0.00  0.00    +0.215 C 
ATOM     17  O   UNL     1      -1.738   4.282  -2.328  0.00  0.00    -0.276 OA
ATOM     18  N   UNL     1      -3.162   3.075  -3.527  0.00  0.00    -0.311 N 
ATOM     19  H   UNL     1      -4.001   2.364  -3.546  0.00  0.00    +0.149 HD
BRANCH  18  20
ATOM     20  C   UNL     1      -2.587   3.562  -4.784  0.00  0.00    +0.146 C 
BRANCH  20  21
ATOM     21  C   UNL     1      -3.318   2.942  -5.945  0.00  0.00    +0.008 A 
ATOM     22  C   UNL     1      -4.414   3.393  -6.603  0.00  0.00    +0.014 A 
ATOM     23  C   UNL     1      -4.919   2.649  -7.654  0.00  0.00    +0.028 A 
ATOM     24  C   UNL     1      -4.303   1.490  -7.994  0.00  0.00    +0.078 A 
ATOM     25  S   UNL     1      -2.962   1.425  -6.817  0.00  0.00    -0.080 S 
ATOM     26 CL   UNL     1      -4.709   0.364  -9.251  0.00  0.00    -0.076 Cl
ENDBRANCH  20  21
ENDBRANCH  18  20
ENDBRANCH  15  16
ENDBRANCH   1  15
TORSDOF 6
