REMARK  Name = ZINC40987998
REMARK  6 active torsions:
REMARK  status: ('A' for Active; 'I' for Inactive)
REMARK    1  A    between atoms: C_6  and  C_7
REMARK    2  A    between atoms: C_7  and  N_8
REMARK    3  A    between atoms: N_8  and  C_9
REMARK    4  A    between atoms: C_9  and  C_10
REMARK    5  A    between atoms: C_16  and  C_18
REMARK    6  A    between atoms: N_21  and  C_23
REMARK                            x       y       z     vdW  Elec       q    Type
REMARK                         _______ _______ _______ _____ _____    ______ ____
ROOT
ATOM      1  N   UNL     1      -1.916  -0.865  -1.454  0.00  0.00    -0.289 N 
ATOM      2  C   UNL     1      -2.789  -0.013  -2.029  0.00  0.00    +0.267 C 
ATOM      3  O   UNL     1      -3.227   0.927  -1.395  0.00  0.00    -0.268 OA
ENDROOT
BRANCH   2   4
ATOM      4  C   UNL     1      -3.213  -0.223  -3.428  0.00  0.00    +0.151 A 
ATOM      5  C   UNL     1      -4.064   0.605  -4.180  0.00  0.00    +0.006 A 
ATOM      6  C   UNL     1      -4.170   0.021  -5.399  0.00  0.00    +0.044 A 
ATOM      7  N   UNL     1      -3.420  -1.093  -5.372  0.00  0.00    -0.263 N 
ATOM      8  N   UNL     1      -2.862  -1.222  -4.218  0.00  0.00    -0.166 NA
ATOM      9  C   UNL     1      -4.999   0.577  -6.527  0.00  0.00    +0.055 C 
ATOM     10  C   UNL     1      -5.977   1.607  -5.946  0.00  0.00    +0.006 C 
ATOM     11  C   UNL     1      -5.216   2.596  -5.059  0.00  0.00    +0.005 C 
ATOM     12  C   UNL     1      -4.747   1.884  -3.783  0.00  0.00    +0.039 C 
BRANCH   7  13
ATOM     13  C   UNL     1      -3.255  -2.021  -6.494  0.00  0.00    +0.130 C 
ATOM     14  C   UNL     1      -3.835  -3.395  -6.120  0.00  0.00    +0.051 C 
ATOM     15  C   UNL     1      -3.386  -4.456  -7.154  0.00  0.00    +0.168 C 
ATOM     16  S   UNL     1      -1.782  -3.785  -7.751  0.00  0.00    -0.029 S 
ATOM     17  O   UNL     1      -1.890  -3.494  -9.138  0.00  0.00    -0.174 OA
ATOM     18  O   UNL     1      -0.730  -4.624  -7.292  0.00  0.00    -0.174 OA
ATOM     19  C   UNL     1      -1.742  -2.203  -6.807  0.00  0.00    +0.192 C 
ENDBRANCH   7  13
ENDBRANCH   2   4
BRANCH   1  20
ATOM     20  C   UNL     1      -1.472  -2.058  -2.180  0.00  0.00    +0.143 C 
BRANCH  20  26
ATOM     21  C   UNL     1      -3.570  -3.369  -2.557  0.00  0.00    +0.006 A 
ATOM     22  C   UNL     1      -4.410  -4.426  -2.264  0.00  0.00    +0.020 A 
ATOM     23  C   UNL     1      -4.066  -5.328  -1.272  0.00  0.00    +0.041 A 
ATOM     24  C   UNL     1      -2.882  -5.169  -0.574  0.00  0.00    +0.020 A 
ATOM     25  C   UNL     1      -2.043  -4.111  -0.868  0.00  0.00    +0.006 A 
ATOM     26  C   UNL     1      -2.387  -3.211  -1.859  0.00  0.00    -0.030 A 
ATOM     27 CL   UNL     1      -5.121  -6.656  -0.903  0.00  0.00    -0.084 Cl
ENDBRANCH  20  26
ENDBRANCH   1  20
BRANCH   1  28
ATOM     28  C   UNL     1      -1.413  -0.598  -0.105  0.00  0.00    +0.140 C 
BRANCH  28  29
ATOM     29  C   UNL     1      -0.199   0.330  -0.188  0.00  0.00    +0.136 C 
ATOM     30  C   UNL     1       0.382   0.561   1.224  0.00  0.00    +0.035 C 
ATOM     31  C   UNL     1       0.766   2.065   1.180  0.00  0.00    +0.031 C 
ATOM     32  C   UNL     1      -0.355   2.629   0.271  0.00  0.00    +0.160 C 
ATOM     33  O   UNL     1      -0.596   1.604  -0.709  0.00  0.00    -0.375 OA
ENDBRANCH  28  29
ENDBRANCH   1  28
TORSDOF 6
