REMARK  Name = ZINC34718355
REMARK  12 active torsions:
REMARK  status: ('A' for Active; 'I' for Inactive)
REMARK    1  A    between atoms: C_1  and  C_2
REMARK    2  A    between atoms: C_2  and  C_4
REMARK    3  A    between atoms: C_2  and  C_31
REMARK    4  A    between atoms: C_4  and  C_5
REMARK    5  A    between atoms: C_14  and  C_18
REMARK    6  A    between atoms: N_20  and  C_21
REMARK    7  A    between atoms: C_21  and  C_22
REMARK    8  A    between atoms: C_22  and  C_23
REMARK    9  A    between atoms: C_31  and  C_32
REMARK   10  A    between atoms: C_32  and  C_33
REMARK   11  A    between atoms: C_32  and  C_34
REMARK   12  A    between atoms: C_32  and  C_35
REMARK                            x       y       z     vdW  Elec       q    Type
REMARK                         _______ _______ _______ _____ _____    ______ ____
ROOT
ATOM      1  C   UNL     1       1.582   0.014   2.006  0.00  0.00    +0.216 C 
ATOM      2  O   UNL     1       2.029   0.841   1.240  0.00  0.00    -0.276 OA
ATOM      3  N   UNL     1       2.334  -0.431   3.033  0.00  0.00    -0.302 N 
ATOM      4  C   UNL     1       1.807  -1.436   3.965  0.00  0.00    +0.107 C 
ATOM      5  C   UNL     1       2.785  -2.616   4.020  0.00  0.00    +0.017 C 
ATOM      6  C   UNL     1       4.181  -2.104   4.337  0.00  0.00    -0.016 C 
ATOM      7  C   UNL     1       4.664  -1.106   3.296  0.00  0.00    +0.017 C 
ATOM      8  C   UNL     1       3.698   0.077   3.235  0.00  0.00    +0.107 C 
ATOM      9  N   UNL     1       4.237  -1.523   5.695  0.00  0.00    +0.397 N 
ATOM     10  C   UNL     1       4.559  -2.539   6.717  0.00  0.00    +0.028 C 
ATOM     11  C   UNL     1       5.785  -3.369   6.229  0.00  0.00    +0.061 C 
ATOM     12  S   UNL     1       5.354  -3.514   4.439  0.00  0.00    -0.174 S 
ATOM     13  H   UNL     1       4.943  -0.802   5.714  0.00  0.00    -0.083 HD
ATOM     14  H   UNL     1       3.343  -1.111   5.912  0.00  0.00    -0.083 HD
ENDROOT
BRANCH  10  15
ATOM     15  C   UNL     1       4.899  -1.858   8.018  0.00  0.00    +0.200 C 
ATOM     16  O   UNL     1       4.876  -0.648   8.093  0.00  0.00    -0.278 OA
ATOM     17  N   UNL     1       5.227  -2.594   9.098  0.00  0.00    -0.316 N 
ATOM     18  H   UNL     1       5.245  -3.562   9.038  0.00  0.00    +0.149 HD
BRANCH  17  19
ATOM     19  C   UNL     1       5.557  -1.933  10.363  0.00  0.00    +0.109 C 
BRANCH  19  20
ATOM     20  C   UNL     1       5.890  -2.989  11.419  0.00  0.00    +0.055 C 
BRANCH  20  21
ATOM     21  C   UNL     1       6.229  -2.308  12.720  0.00  0.00    -0.027 A 
ATOM     22  C   UNL     1       7.548  -2.042  13.037  0.00  0.00    +0.006 A 
ATOM     23  C   UNL     1       7.860  -1.418  14.230  0.00  0.00    +0.020 A 
ATOM     24  C   UNL     1       6.852  -1.058  15.107  0.00  0.00    +0.042 A 
ATOM     25  C   UNL     1       5.532  -1.323  14.790  0.00  0.00    +0.040 A 
ATOM     26  C   UNL     1       5.221  -1.944  13.593  0.00  0.00    +0.046 A 
ATOM     27 CL   UNL     1       3.564  -2.271  13.191  0.00  0.00    -0.083 Cl
ATOM     28 CL   UNL     1       7.244  -0.275  16.606  0.00  0.00    -0.083 Cl
ENDBRANCH  20  21
ENDBRANCH  19  20
ENDBRANCH  17  19
ENDBRANCH  10  15
BRANCH   1  29
ATOM     29  C   UNL     1       0.185  -0.516   1.812  0.00  0.00    +0.099 C 
BRANCH  29  31
ATOM     30  C   UNL     1      -0.614   1.645   0.845  0.00  0.00    +0.008 C 
ATOM     31  C   UNL     1      -0.446   0.147   0.585  0.00  0.00    -0.005 C 
BRANCH  31  32
ATOM     32  C   UNL     1      -1.815  -0.480   0.314  0.00  0.00    +0.010 C 
BRANCH  32  33
ATOM     33  C   UNL     1      -2.204  -0.242  -1.147  0.00  0.00    -0.037 C 
ATOM     34  C   UNL     1      -1.237  -0.997  -2.062  0.00  0.00    +0.010 C 
ATOM     35  C   UNL     1      -3.628  -0.748  -1.383  0.00  0.00    +0.010 C 
ATOM     36  C   UNL     1      -2.135   1.254  -1.455  0.00  0.00    +0.010 C 
ENDBRANCH  32  33
ENDBRANCH  31  32
ENDBRANCH  29  31
ENDBRANCH   1  29
TORSDOF 8
