REMARK  Name = ZINC61272653
REMARK  10 active torsions:
REMARK  status: ('A' for Active; 'I' for Inactive)
REMARK    1  A    between atoms: C_1  and  C_2
REMARK    2  A    between atoms: C_2  and  N_3
REMARK    3  A    between atoms: N_3  and  C_4
REMARK    4  A    between atoms: C_4  and  C_6
REMARK    5  A    between atoms: C_4  and  C_7
REMARK    6  A    between atoms: C_7  and  C_8
REMARK    7  A    between atoms: N_10  and  C_11
REMARK    8  A    between atoms: N_10  and  C_19
REMARK    9  A    between atoms: C_11  and  C_12
REMARK   10  A    between atoms: C_19  and  C_20
REMARK                            x       y       z     vdW  Elec       q    Type
REMARK                         _______ _______ _______ _____ _____    ______ ____
ROOT
ATOM      1  C   UNL     1      -3.364  -2.112  -1.444  0.00  0.00    +0.215 C 
ATOM      2  O   UNL     1      -2.697  -1.468  -2.226  0.00  0.00    -0.276 OA
ATOM      3  N   UNL     1      -4.622  -2.471  -1.769  0.00  0.00    -0.288 N 
ENDROOT
BRANCH   1   4
ATOM      4  C   UNL     1      -2.787  -2.510  -0.111  0.00  0.00    +0.080 C 
BRANCH   4   5
ATOM      5  C   UNL     1      -1.356  -1.981   0.004  0.00  0.00    -0.066 C 
ATOM      6  C   UNL     1      -0.727  -2.490   1.303  0.00  0.00    -0.013 C 
BRANCH   5   7
ATOM      7  N   UNL     1      -1.376  -0.512   0.012  0.00  0.00    +0.381 N 
ATOM      8  H   UNL     1      -1.848  -0.187   0.843  0.00  0.00    -0.086 HD
ATOM      9  H   UNL     1      -1.864  -0.178  -0.805  0.00  0.00    -0.086 HD
BRANCH   7  11
ATOM     10  C   UNL     1      -0.019   1.526   0.010  0.00  0.00    -0.017 C 
ATOM     11  C   UNL     1       0.002  -0.004   0.002  0.00  0.00    -0.086 C 
ENDBRANCH   7  11
ENDBRANCH   5   7
ENDBRANCH   4   5
ENDBRANCH   1   4
BRANCH   3  12
ATOM     12  C   UNL     1      -5.183  -2.084  -3.066  0.00  0.00    +0.143 C 
BRANCH  12  13
ATOM     13  C   UNL     1      -4.885  -3.155  -4.082  0.00  0.00    -0.030 A 
ATOM     14  C   UNL     1      -3.719  -3.099  -4.824  0.00  0.00    +0.006 A 
ATOM     15  C   UNL     1      -3.445  -4.082  -5.756  0.00  0.00    +0.015 A 
ATOM     16  C   UNL     1      -4.336  -5.122  -5.947  0.00  0.00    +0.018 A 
ATOM     17  C   UNL     1      -5.502  -5.178  -5.205  0.00  0.00    +0.015 A 
ATOM     18  C   UNL     1      -5.774  -4.197  -4.269  0.00  0.00    +0.006 A 
ATOM     19 BR   UNL     1      -3.962  -6.467  -7.222  0.00  0.00    -0.050 Br
ENDBRANCH  12  13
ENDBRANCH   3  12
BRANCH   3  20
ATOM     20  C   UNL     1      -5.429  -3.248  -0.824  0.00  0.00    +0.203 C 
BRANCH  20  21
ATOM     21  C   UNL     1      -6.196  -2.310   0.071  0.00  0.00    +0.228 C 
ATOM     22  O   UNL     1      -6.081  -1.111  -0.066  0.00  0.00    -0.274 OA
ATOM     23  N   UNL     1      -7.011  -2.804   1.025  0.00  0.00    -0.328 N 
ATOM     24  H   UNL     1      -7.103  -3.764   1.134  0.00  0.00    +0.145 HD
ATOM     25  H   UNL     1      -7.505  -2.201   1.601  0.00  0.00    +0.145 HD
ENDBRANCH  20  21
ENDBRANCH   3  20
TORSDOF 8
