REMARK  Name = ZINC12530461
REMARK  11 active torsions:
REMARK  status: ('A' for Active; 'I' for Inactive)
REMARK    1  A    between atoms: C_1  and  C_2
REMARK    2  A    between atoms: C_3  and  N_15
REMARK    3  A    between atoms: N_6  and  C_9
REMARK    4  A    between atoms: N_7  and  C_8
REMARK    5  A    between atoms: C_16  and  C_18
REMARK    6  A    between atoms: C_18  and  O_19
REMARK    7  A    between atoms: O_19  and  C_20
REMARK    8  A    between atoms: C_20  and  C_22
REMARK    9  A    between atoms: C_27  and  S_28
REMARK   10  A    between atoms: S_28  and  C_29
REMARK   11  A    between atoms: C_29  and  C_30
REMARK                            x       y       z     vdW  Elec       q    Type
REMARK                         _______ _______ _______ _____ _____    ______ ____
ROOT
ATOM      1  C   UNL     1      -0.813   2.926  -0.894  0.00  0.00    +0.328 C 
ENDROOT
BRANCH   1   3
ATOM      2  N   UNL     1       1.478   2.337  -0.172  0.00  0.00    -0.277 N 
ATOM      3  C   UNL     1       0.341   1.962  -0.791  0.00  0.00    +0.255 C 
ATOM      4  O   UNL     1       0.249   0.851  -1.270  0.00  0.00    -0.272 OA
ATOM      5  H   UNL     1       1.581   3.248   0.144  0.00  0.00    +0.155 HD
BRANCH   2   8
ATOM      6  C   UNL     1       2.845   1.766   2.515  0.00  0.00    +0.067 C 
ATOM      7  C   UNL     1       3.143   1.127   1.184  0.00  0.00    +0.059 A 
ATOM      8  C   UNL     1       2.518   1.405   0.018  0.00  0.00    +0.121 A 
ATOM      9  C   UNL     1       3.125   0.561  -1.012  0.00  0.00    +0.293 A 
ATOM     10  O   UNL     1       2.829   0.532  -2.193  0.00  0.00    -0.264 OA
ATOM     11  N   UNL     1       4.076  -0.178  -0.404  0.00  0.00    -0.216 N 
ATOM     12  N   UNL     1       4.090   0.164   0.953  0.00  0.00    -0.282 N 
ATOM     13  C   UNL     1       4.980  -0.411   1.965  0.00  0.00    +0.171 C 
BRANCH  11  14
ATOM     14  C   UNL     1       4.904  -1.120  -1.022  0.00  0.00    +0.067 A 
ATOM     15  C   UNL     1       6.276  -1.087  -0.809  0.00  0.00    +0.028 A 
ATOM     16  C   UNL     1       7.090  -2.023  -1.416  0.00  0.00    +0.002 A 
ATOM     17  C   UNL     1       6.542  -2.985  -2.244  0.00  0.00    +0.000 A 
ATOM     18  C   UNL     1       5.177  -3.018  -2.462  0.00  0.00    +0.002 A 
ATOM     19  C   UNL     1       4.357  -2.088  -1.853  0.00  0.00    +0.028 A 
ENDBRANCH  11  14
ENDBRANCH   2   8
ENDBRANCH   1   3
BRANCH   1  20
ATOM     20  O   UNL     1      -1.909   2.293  -1.606  0.00  0.00    -0.452 OA
BRANCH  20  21
ATOM     21  C   UNL     1      -3.026   3.025  -1.785  0.00  0.00    +0.341 C 
ATOM     22  O   UNL     1      -3.083   4.162  -1.359  0.00  0.00    -0.245 OA
BRANCH  21  23
ATOM     23  C   UNL     1      -4.178   2.448  -2.498  0.00  0.00    +0.072 A 
ATOM     24  C   UNL     1      -4.117   1.143  -2.995  0.00  0.00    +0.016 A 
ATOM     25  C   UNL     1      -5.200   0.608  -3.656  0.00  0.00    +0.001 A 
ATOM     26  C   UNL     1      -6.350   1.360  -3.841  0.00  0.00    +0.001 A 
ATOM     27  C   UNL     1      -6.426   2.651  -3.362  0.00  0.00    +0.015 A 
ATOM     28  C   UNL     1      -5.345   3.208  -2.687  0.00  0.00    +0.022 A 
BRANCH  28  29
ATOM     29  S   UNL     1      -5.438   4.857  -2.074  0.00  0.00    -0.115 S 
BRANCH  29  30
ATOM     30  C   UNL     1      -7.112   5.295  -2.603  0.00  0.00    +0.170 C 
BRANCH  30  31
ATOM     31  C   UNL     1      -7.421   6.707  -2.175  0.00  0.00    +0.226 C 
ATOM     32  O   UNL     1      -6.591   7.353  -1.571  0.00  0.00    -0.275 OA
ATOM     33  N   UNL     1      -8.620   7.251  -2.463  0.00  0.00    -0.301 N 
ATOM     34  C   UNL     1      -9.711   6.586  -3.191  0.00  0.00    +0.108 C 
ATOM     35  C   UNL     1     -10.870   7.598  -3.304  0.00  0.00    +0.020 C 
ATOM     36  C   UNL     1     -10.154   8.964  -3.137  0.00  0.00    +0.020 C 
ATOM     37  C   UNL     1      -9.053   8.614  -2.105  0.00  0.00    +0.108 C 
ENDBRANCH  30  31
ENDBRANCH  29  30
ENDBRANCH  28  29
ENDBRANCH  21  23
ENDBRANCH  20  21
ENDBRANCH   1  20
TORSDOF 9
