REMARK  Name = ZINC40985827
REMARK  9 active torsions:
REMARK  status: ('A' for Active; 'I' for Inactive)
REMARK    1  A    between atoms: C_1  and  C_2
REMARK    2  A    between atoms: C_5  and  C_8
REMARK    3  A    between atoms: C_8  and  S_9
REMARK    4  A    between atoms: S_9  and  C_10
REMARK    5  A    between atoms: C_13  and  C_17
REMARK    6  A    between atoms: N_19  and  C_20
REMARK    7  A    between atoms: C_20  and  C_21
REMARK    8  A    between atoms: C_21  and  C_23
REMARK    9  A    between atoms: C_21  and  N_28
REMARK                            x       y       z     vdW  Elec       q    Type
REMARK                         _______ _______ _______ _____ _____    ______ ____
ROOT
ATOM      1  C   UNL     1       1.265 -10.740  -0.159  0.00  0.00    +0.248 C 
ATOM      2  O   UNL     1       2.269 -11.416  -0.041  0.00  0.00    -0.270 OA
ATOM      3  N   UNL     1       0.053 -11.329  -0.163  0.00  0.00    -0.312 N 
ATOM      4  H   UNL     1      -0.748 -10.790  -0.256  0.00  0.00    +0.149 HD
ENDROOT
BRANCH   1   8
ATOM      5  C   UNL     1       1.573  -6.612  -0.548  0.00  0.00    +0.190 A 
ATOM      6  N   UNL     1       0.370  -7.173  -0.555  0.00  0.00    -0.229 NA
ATOM      7  C   UNL     1       0.230  -8.480  -0.434  0.00  0.00    +0.129 A 
ATOM      8  C   UNL     1       1.374  -9.276  -0.297  0.00  0.00    +0.092 A 
ATOM      9  C   UNL     1       2.627  -8.644  -0.295  0.00  0.00    +0.146 A 
ATOM     10  N   UNL     1       2.682  -7.331  -0.426  0.00  0.00    -0.209 NA
ATOM     11 CL   UNL     1       4.083  -9.575  -0.129  0.00  0.00    -0.061 Cl
BRANCH   5  12
ATOM     12  S   UNL     1       1.702  -4.863  -0.713  0.00  0.00    -0.081 S 
BRANCH  12  13
ATOM     13  C   UNL     1      -0.020  -4.307  -0.847  0.00  0.00    +0.112 C 
BRANCH  13  18
ATOM     14  C   UNL     1      -0.152   1.442  -1.414  0.00  0.00    +0.044 C 
ATOM     15  C   UNL     1      -0.118  -0.057  -1.266  0.00  0.00    -0.050 A 
ATOM     16  C   UNL     1      -0.046  -0.861  -2.389  0.00  0.00    +0.003 A 
ATOM     17  C   UNL     1      -0.014  -2.236  -2.253  0.00  0.00    +0.005 A 
ATOM     18  C   UNL     1      -0.054  -2.808  -0.995  0.00  0.00    -0.037 A 
ATOM     19  C   UNL     1      -0.125  -2.004   0.127  0.00  0.00    +0.005 A 
ATOM     20  C   UNL     1      -0.152  -0.628  -0.008  0.00  0.00    +0.003 A 
ENDBRANCH  13  18
ENDBRANCH  12  13
ENDBRANCH   5  12
ENDBRANCH   1   8
BRANCH   3  21
ATOM     21  C   UNL     1      -0.056 -12.783  -0.025  0.00  0.00    +0.094 C 
BRANCH  21  22
ATOM     22  C   UNL     1      -1.531 -13.180   0.054  0.00  0.00    -0.013 C 
BRANCH  22  23
ATOM     23  N   UNL     1      -1.638 -14.626   0.288  0.00  0.00    +0.386 N 
ATOM     24  C   UNL     1      -3.053 -15.018   0.280  0.00  0.00    -0.078 C 
ATOM     25  C   UNL     1      -3.166 -16.536   0.442  0.00  0.00    -0.019 C 
ATOM     26  C   UNL     1      -2.527 -16.951   1.770  0.00  0.00    -0.004 C 
ATOM     27  C   UNL     1      -1.073 -16.471   1.798  0.00  0.00    -0.019 C 
ATOM     28  C   UNL     1      -1.037 -14.956   1.585  0.00  0.00    -0.078 C 
ATOM     29  H   UNL     1      -1.150 -15.121  -0.444  0.00  0.00    -0.081 HD
ENDBRANCH  22  23
BRANCH  22  30
ATOM     30  C   UNL     1      -2.216 -12.828  -1.241  0.00  0.00    -0.022 A 
ATOM     31  C   UNL     1      -2.989 -11.753  -1.534  0.00  0.00    +0.009 A 
ATOM     32  C   UNL     1      -3.519 -11.635  -2.805  0.00  0.00    +0.008 A 
ATOM     33  C   UNL     1      -3.251 -12.598  -3.721  0.00  0.00    +0.045 A 
ATOM     34  S   UNL     1      -2.215 -13.714  -2.791  0.00  0.00    -0.103 S 
ENDBRANCH  22  30
ENDBRANCH  21  22
ENDBRANCH   3  21
TORSDOF 8
