REMARK  Name = ZINC09237758
REMARK  8 active torsions:
REMARK  status: ('A' for Active; 'I' for Inactive)
REMARK    1  A    between atoms: C_1  and  C_2
REMARK    2  A    between atoms: C_4  and  C_32
REMARK    3  A    between atoms: C_6  and  N_8
REMARK    4  A    between atoms: C_9  and  C_11
REMARK    5  A    between atoms: C_13  and  C_23
REMARK    6  A    between atoms: C_17  and  C_22
REMARK    7  A    between atoms: C_26  and  O_30
REMARK    8  A    between atoms: O_30  and  C_31
REMARK                            x       y       z     vdW  Elec       q    Type
REMARK                         _______ _______ _______ _____ _____    ______ ____
ROOT
ATOM      1  C   UNL     1       0.014  -0.010  -0.004  0.00  0.00    +0.166 C 
ATOM      2  C   UNL     1       1.056  -0.469  -1.031  0.00  0.00    +0.140 C 
ATOM      3  N   UNL     1       2.410  -0.219  -0.533  0.00  0.00    -0.272 N 
ATOM      4  N   UNL     1       2.661   1.089  -0.265  0.00  0.00    -0.225 N 
ATOM      5  C   UNL     1       3.877   1.705  -0.187  0.00  0.00    +0.148 A 
ATOM      6  N   UNL     1       3.659   2.958   0.106  0.00  0.00    -0.132 NA
ATOM      7  N   UNL     1       2.393   3.175   0.213  0.00  0.00    -0.121 NA
ATOM      8  C   UNL     1       1.742   2.068  -0.010  0.00  0.00    +0.209 A 
ATOM      9  S   UNL     1      -0.004   1.808  -0.001  0.00  0.00    -0.069 S 
ATOM     10  C   UNL     1       5.221   1.058  -0.400  0.00  0.00    +0.090 C 
ATOM     11  H   UNL     1       2.613  -0.797   0.268  0.00  0.00    +0.167 HD
ENDROOT
BRANCH   2  12
ATOM     12  C   UNL     1       0.889  -1.944  -1.287  0.00  0.00    -0.023 A 
ATOM     13  C   UNL     1       0.213  -2.377  -2.413  0.00  0.00    +0.009 A 
ATOM     14  C   UNL     1       0.058  -3.729  -2.650  0.00  0.00    +0.047 A 
ATOM     15  C   UNL     1       0.581  -4.654  -1.757  0.00  0.00    +0.134 A 
ATOM     16  C   UNL     1       1.258  -4.217  -0.628  0.00  0.00    +0.060 A 
ATOM     17  C   UNL     1       1.415  -2.863  -0.398  0.00  0.00    +0.024 A 
ATOM     18 BR   UNL     1       1.973  -5.473   0.592  0.00  0.00    -0.047 Br
BRANCH  15  19
ATOM     19  O   UNL     1       0.430  -5.984  -1.989  0.00  0.00    -0.494 OA
ATOM     20  C   UNL     1      -0.278  -6.361  -3.171  0.00  0.00    +0.277 C 
ENDBRANCH  15  19
ENDBRANCH   2  12
BRANCH   1  22
ATOM     21  N   UNL     1       1.196   0.213   2.158  0.00  0.00    -0.285 N 
ATOM     22  C   UNL     1       0.388  -0.518   1.365  0.00  0.00    +0.233 C 
ATOM     23  O   UNL     1      -0.038  -1.586   1.752  0.00  0.00    -0.274 OA
ATOM     24  H   UNL     1       1.472   1.101   1.881  0.00  0.00    +0.155 HD
BRANCH  21  30
ATOM     25  C   UNL     1       2.432   0.925   6.863  0.00  0.00    +0.044 C 
ATOM     26  C   UNL     1       2.243   0.015   5.677  0.00  0.00    -0.048 A 
ATOM     27  C   UNL     1       2.504  -1.338   5.796  0.00  0.00    +0.006 A 
ATOM     28  C   UNL     1       2.331  -2.177   4.711  0.00  0.00    -0.048 A 
ATOM     29  C   UNL     1       1.898  -1.666   3.503  0.00  0.00    +0.026 A 
ATOM     30  C   UNL     1       1.635  -0.308   3.380  0.00  0.00    +0.034 A 
ATOM     31  C   UNL     1       1.814   0.533   4.471  0.00  0.00    +0.026 A 
ATOM     32  C   UNL     1       2.617  -3.650   4.846  0.00  0.00    +0.044 C 
ENDBRANCH  21  30
ENDBRANCH   1  22
TORSDOF 4
