REMARK  Name = ZINC45933061
REMARK  4 active torsions:
REMARK  status: ('A' for Active; 'I' for Inactive)
REMARK    1  A    between atoms: C_4  and  N_11
REMARK    2  A    between atoms: C_5  and  C_7
REMARK    3  A    between atoms: C_13  and  C_16
REMARK    4  A    between atoms: C_26  and  C_28
REMARK                            x       y       z     vdW  Elec       q    Type
REMARK                         _______ _______ _______ _____ _____    ______ ____
ROOT
ATOM      1  C   UNL     1       7.221  -0.994  -0.069  0.00  0.00    +0.269 C 
ATOM      2  O   UNL     1       6.018  -1.109   0.062  0.00  0.00    -0.268 OA
ATOM      3  N   UNL     1       7.994  -2.091  -0.188  0.00  0.00    -0.284 N 
ATOM      4  C   UNL     1       7.384  -3.423  -0.313  0.00  0.00    +0.114 C 
ATOM      5  C   UNL     1       7.765  -4.247   0.927  0.00  0.00    +0.062 C 
ATOM      6  C   UNL     1       9.212  -4.022   1.225  0.00  0.00    -0.003 A 
ATOM      7  C   UNL     1      10.016  -3.027   0.762  0.00  0.00    -0.012 A 
ATOM      8  C   UNL     1      11.339  -3.036   1.201  0.00  0.00    +0.013 A 
ATOM      9  C   UNL     1      11.766  -4.007   2.041  0.00  0.00    +0.046 A 
ATOM     10  S   UNL     1      10.285  -4.981   2.261  0.00  0.00    -0.101 S 
ATOM     11  C   UNL     1       9.459  -1.973  -0.200  0.00  0.00    +0.144 C 
ENDROOT
BRANCH   1  14
ATOM     12  N   UNL     1       8.109   2.508   0.019  0.00  0.00    -0.219 N 
ATOM     13  C   UNL     1       7.190   1.526   0.147  0.00  0.00    +0.149 A 
ATOM     14  C   UNL     1       7.835   0.347  -0.099  0.00  0.00    +0.167 A 
ATOM     15  N   UNL     1       9.123   0.616  -0.371  0.00  0.00    -0.124 NA
ATOM     16  N   UNL     1       9.320   1.887  -0.317  0.00  0.00    -0.060 NA
BRANCH  12  20
ATOM     17  C   UNL     1       7.463   6.598   0.509  0.00  0.00    +0.001 A 
ATOM     18  C   UNL     1       6.417   5.708   0.679  0.00  0.00    +0.002 A 
ATOM     19  C   UNL     1       6.628   4.353   0.518  0.00  0.00    +0.028 A 
ATOM     20  C   UNL     1       7.891   3.884   0.183  0.00  0.00    +0.079 A 
ATOM     21  C   UNL     1       8.938   4.779   0.012  0.00  0.00    +0.080 A 
ATOM     22  C   UNL     1       8.722   6.133   0.175  0.00  0.00    +0.014 A 
BRANCH  21  23
ATOM     23  C   UNL     1      10.311   4.273  -0.351  0.00  0.00    +0.419 C 
ATOM     24  F   UNL     1      11.191   5.354  -0.467  0.00  0.00    -0.166 F 
ATOM     25  F   UNL     1      10.768   3.406   0.648  0.00  0.00    -0.166 F 
ATOM     26  F   UNL     1      10.249   3.589  -1.570  0.00  0.00    -0.166 F 
ENDBRANCH  21  23
ENDBRANCH  12  20
ENDBRANCH   1  14
BRANCH  11  27
ATOM     27  C   UNL     1       9.979  -2.221  -1.592  0.00  0.00    +0.015 A 
ATOM     28  C   UNL     1      10.977  -1.589  -2.256  0.00  0.00    +0.013 A 
ATOM     29  C   UNL     1      11.287  -1.990  -3.541  0.00  0.00    +0.008 A 
ATOM     30  C   UNL     1      10.584  -3.005  -4.101  0.00  0.00    +0.045 A 
ATOM     31  S   UNL     1       9.446  -3.430  -2.793  0.00  0.00    -0.099 S 
ENDBRANCH  11  27
TORSDOF 4
