REMARK  Name = ZINC37064171
REMARK  5 active torsions:
REMARK  status: ('A' for Active; 'I' for Inactive)
REMARK    1  A    between atoms: C_1  and  C_2
REMARK    2  A    between atoms: C_5  and  N_9
REMARK    3  A    between atoms: N_9  and  S_10
REMARK    4  A    between atoms: S_10  and  C_13
REMARK    5  A    between atoms: C_14  and  N_21
REMARK                            x       y       z     vdW  Elec       q    Type
REMARK                         _______ _______ _______ _____ _____    ______ ____
ROOT
ATOM      1  S   UNL     1       0.970  -5.282  -1.941  0.00  0.00    +0.075 S 
ATOM      2  O   UNL     1       0.886  -6.699  -1.885  0.00  0.00    -0.150 OA
ATOM      3  O   UNL     1       0.716  -4.550  -3.132  0.00  0.00    -0.150 OA
ENDROOT
BRANCH   1   4
ATOM      4  C   UNL     1       2.600  -4.854  -1.425  0.00  0.00    +0.143 A 
ATOM      5  C   UNL     1       3.094  -3.579  -1.671  0.00  0.00    +0.054 A 
ATOM      6  C   UNL     1       4.379  -3.245  -1.263  0.00  0.00    +0.040 A 
ATOM      7  C   UNL     1       5.162  -4.181  -0.614  0.00  0.00    +0.021 A 
ATOM      8  C   UNL     1       4.667  -5.450  -0.371  0.00  0.00    +0.032 A 
ATOM      9  C   UNL     1       3.385  -5.784  -0.771  0.00  0.00    +0.047 A 
ATOM     10 BR   UNL     1       2.710  -7.517  -0.429  0.00  0.00    -0.048 Br
ATOM     11 BR   UNL     1       6.911  -3.727  -0.057  0.00  0.00    -0.050 Br
BRANCH   5  12
ATOM     12  N   UNL     1       2.301  -2.635  -2.327  0.00  0.00    -0.356 N 
ATOM     13  H   UNL     1       1.358  -2.811  -2.472  0.00  0.00    +0.142 HD
ATOM     14  H   UNL     1       2.693  -1.805  -2.639  0.00  0.00    +0.142 HD
ENDBRANCH   5  12
ENDBRANCH   1   4
BRANCH   1  15
ATOM     15  N   UNL     1      -0.074  -4.700  -0.795  0.00  0.00    -0.213 N 
ATOM     16  H   UNL     1      -0.611  -5.315  -0.271  0.00  0.00    +0.174 HD
BRANCH  15  21
ATOM     17  C   UNL     1      -0.518   0.891   0.063  0.00  0.00    +0.044 C 
ATOM     18  C   UNL     1      -0.399  -0.594  -0.164  0.00  0.00    -0.048 A 
ATOM     19  C   UNL     1      -1.122  -1.197  -1.177  0.00  0.00    +0.005 A 
ATOM     20  C   UNL     1      -1.017  -2.558  -1.389  0.00  0.00    +0.027 A 
ATOM     21  C   UNL     1      -0.183  -3.322  -0.584  0.00  0.00    +0.083 A 
ATOM     22  C   UNL     1       0.544  -2.714   0.434  0.00  0.00    +0.146 A 
ATOM     23  C   UNL     1       0.437  -1.350   0.637  0.00  0.00    +0.043 A 
ATOM     24  F   UNL     1       1.356  -3.453   1.221  0.00  0.00    -0.203 F 
ENDBRANCH  15  21
ENDBRANCH   1  15
TORSDOF 4
