REMARK  Name = ZINC06790710
REMARK  3 active torsions:
REMARK  status: ('A' for Active; 'I' for Inactive)
REMARK    1  A    between atoms: C_3  and  C_6
REMARK    2  A    between atoms: C_6  and  C_8
REMARK    3  A    between atoms: C_15  and  C_16
REMARK                            x       y       z     vdW  Elec       q    Type
REMARK                         _______ _______ _______ _____ _____    ______ ____
ROOT
ATOM      1  C   UNL     1      -5.132   2.736   0.320  0.00  0.00    +0.087 C 
ATOM      2  C   UNL     1      -3.768   2.552   0.239  0.00  0.00    +0.085 A 
ATOM      3  N   UNL     1      -2.778   3.507   0.185  0.00  0.00    -0.316 N 
ATOM      4  H   UNL     1      -3.016   4.447   0.203  0.00  0.00    +0.169 HD
ATOM      5  C   UNL     1      -1.505   3.156   0.107  0.00  0.00    +0.263 A 
ATOM      6  O   UNL     1      -0.617   3.987   0.059  0.00  0.00    -0.267 OA
ATOM      7  C   UNL     1      -1.211   1.710   0.083  0.00  0.00    +0.079 A 
ATOM      8  C   UNL     1      -0.013   1.076   0.008  0.00  0.00    +0.028 C 
ATOM      9  S   UNL     1      -2.857   1.019   0.170  0.00  0.00    -0.066 S 
ENDROOT
BRANCH   8  10
ATOM     10  C   UNL     1       1.212   1.847  -0.239  0.00  0.00    -0.020 A 
ATOM     11  C   UNL     1       2.396   1.521   0.434  0.00  0.00    +0.012 A 
ATOM     12  C   UNL     1       3.543   2.246   0.200  0.00  0.00    +0.050 A 
ATOM     13  C   UNL     1       3.531   3.301  -0.703  0.00  0.00    +0.166 A 
ATOM     14  C   UNL     1       2.356   3.633  -1.378  0.00  0.00    +0.167 A 
ATOM     15  C   UNL     1       1.202   2.908  -1.153  0.00  0.00    +0.057 A 
ATOM     16  O   UNL     1       2.609   4.695  -2.198  0.00  0.00    -0.453 OA
ATOM     17  C   UNL     1       4.042   4.749  -2.325  0.00  0.00    +0.466 C 
ATOM     18  O   UNL     1       4.517   4.157  -1.101  0.00  0.00    -0.453 OA
ENDBRANCH   8  10
BRANCH   1  19
ATOM     19  C   UNL     1      -5.665   4.034   0.358  0.00  0.00    +0.223 C 
ATOM     20  O   UNL     1      -4.920   5.001   0.319  0.00  0.00    -0.284 OA
BRANCH  19  23
ATOM     21  C   UNL     1      -9.139   5.148   0.569  0.00  0.00    +0.042 A 
ATOM     22  C   UNL     1      -7.765   5.431   0.494  0.00  0.00    +0.053 A 
ATOM     23  C   UNL     1      -7.120   4.230   0.445  0.00  0.00    +0.174 A 
ATOM     24  O   UNL     1      -8.049   3.254   0.496  0.00  0.00    -0.460 OA
ATOM     25  C   UNL     1      -9.269   3.804   0.570  0.00  0.00    +0.196 A 
ENDBRANCH  19  23
ENDBRANCH   1  19
TORSDOF 3
