REMARK  Name = ZINC35000843
REMARK  12 active torsions:
REMARK  status: ('A' for Active; 'I' for Inactive)
REMARK    1  A    between atoms: C_1  and  C_2
REMARK    2  A    between atoms: C_6  and  N_8
REMARK    3  A    between atoms: N_14  and  C_17
REMARK    4  A    between atoms: C_17  and  C_18
REMARK    5  A    between atoms: C_18  and  N_19
REMARK    6  A    between atoms: N_19  and  C_20
REMARK    7  A    between atoms: C_20  and  C_21
REMARK    8  A    between atoms: C_29  and  C_30
REMARK    9  A    between atoms: C_29  and  C_31
REMARK   10  A    between atoms: N_34  and  C_35
REMARK   11  A    between atoms: C_35  and  C_36
REMARK   12  A    between atoms: C_35  and  C_37
REMARK                            x       y       z     vdW  Elec       q    Type
REMARK                         _______ _______ _______ _____ _____    ______ ____
ROOT
ATOM      1  C   UNL     1       1.595  -6.639   6.903  0.00  0.00    -0.059 C 
ENDROOT
BRANCH   1   8
ATOM      2  N   UNL     1       0.086  -2.800   2.394  0.00  0.00    -0.269 N 
ATOM      3  C   UNL     1      -0.032  -4.143   2.386  0.00  0.00    +0.306 C 
ATOM      4  O   UNL     1      -0.061  -4.744   1.329  0.00  0.00    -0.252 OA
ATOM      5  N   UNL     1      -0.119  -4.819   3.548  0.00  0.00    -0.289 N 
ATOM      6  C   UNL     1      -0.241  -4.107   4.830  0.00  0.00    +0.091 C 
ATOM      7  C   UNL     1       0.811  -4.662   5.796  0.00  0.00    -0.059 C 
ATOM      8  N   UNL     1       0.661  -6.120   5.896  0.00  0.00    +0.383 N 
ATOM      9  C   UNL     1       0.949  -6.742   4.597  0.00  0.00    -0.059 C 
ATOM     10  C   UNL     1      -0.101  -6.289   3.571  0.00  0.00    +0.091 C 
ATOM     11  H   UNL     1       0.248  -2.333   3.228  0.00  0.00    +0.156 HD
ATOM     12  H   UNL     1      -0.284  -6.341   6.171  0.00  0.00    -0.082 HD
BRANCH   2  18
ATOM     13  C   UNL     1      -0.992   1.391   0.061  0.00  0.00    +0.044 C 
ATOM     14  C   UNL     1      -0.543  -0.047   0.039  0.00  0.00    -0.049 A 
ATOM     15  C   UNL     1      -0.240  -0.658  -1.165  0.00  0.00    +0.003 A 
ATOM     16  C   UNL     1       0.171  -1.978  -1.189  0.00  0.00    +0.002 A 
ATOM     17  C   UNL     1       0.281  -2.691  -0.011  0.00  0.00    +0.023 A 
ATOM     18  C   UNL     1      -0.023  -2.080   1.199  0.00  0.00    +0.035 A 
ATOM     19  C   UNL     1      -0.431  -0.753   1.220  0.00  0.00    +0.026 A 
ENDBRANCH   2  18
ENDBRANCH   1   8
BRANCH   1  20
ATOM     20  C   UNL     1       1.355  -8.137   7.098  0.00  0.00    +0.091 C 
BRANCH  20  21
ATOM     21  N   UNL     1       2.286  -8.654   8.104  0.00  0.00    -0.283 N 
ATOM     22  C   UNL     1       3.491  -9.126   7.726  0.00  0.00    +0.303 C 
ATOM     23  O   UNL     1       4.264  -9.556   8.560  0.00  0.00    -0.253 OA
ATOM     24  N   UNL     1       3.838  -9.122   6.424  0.00  0.00    -0.297 N 
ATOM     25  H   UNL     1       3.221  -8.780   5.758  0.00  0.00    +0.150 HD
BRANCH  24  26
ATOM     26  C   UNL     1       5.148  -9.636   6.013  0.00  0.00    +0.068 C 
ATOM     27  C   UNL     1       5.068 -11.153   5.836  0.00  0.00    +0.027 C 
ATOM     28  C   UNL     1       5.557  -8.988   4.689  0.00  0.00    +0.027 C 
ENDBRANCH  24  26
BRANCH  21  29
ATOM     29  C   UNL     1       1.909  -8.659   9.519  0.00  0.00    +0.140 C 
BRANCH  29  30
ATOM     30  C   UNL     1       1.223  -9.959   9.852  0.00  0.00    -0.053 C 
ATOM     31  C   UNL     1       1.888 -10.970  10.362  0.00  0.00    -0.025 C 
ATOM     32  C   UNL     1       1.164 -12.257  10.674  0.00  0.00    +0.031 C 
ATOM     33  C   UNL     1      -0.333 -12.094  10.378  0.00  0.00    -0.000 C 
ATOM     34  C   UNL     1      -0.905 -10.769  10.911  0.00  0.00    +0.012 C 
ATOM     35  C   UNL     1      -0.266 -10.148   9.616  0.00  0.00    +0.022 C 
ATOM     36  C   UNL     1      -0.553 -11.518   8.964  0.00  0.00    -0.025 C 
ATOM     37  C   UNL     1      -1.986 -11.670   8.450  0.00  0.00    +0.012 C 
ATOM     38  C   UNL     1       0.501 -11.957   7.946  0.00  0.00    +0.012 C 
ENDBRANCH  29  30
ENDBRANCH  21  29
ENDBRANCH  20  21
ENDBRANCH   1  20
TORSDOF 7
