REMARK  Name = ZINC06798900
REMARK  10 active torsions:
REMARK  status: ('A' for Active; 'I' for Inactive)
REMARK    1  A    between atoms: C_1  and  C_2
REMARK    2  A    between atoms: C_2  and  C_3
REMARK    3  A    between atoms: C_3  and  C_5
REMARK    4  A    between atoms: C_3  and  N_6
REMARK    5  A    between atoms: C_7  and  C_9
REMARK    6  A    between atoms: C_10  and  S_21
REMARK    7  A    between atoms: C_14  and  O_19
REMARK    8  A    between atoms: O_19  and  C_20
REMARK    9  A    between atoms: S_21  and  C_22
REMARK   10  A    between atoms: C_25  and  C_28
REMARK                            x       y       z     vdW  Elec       q    Type
REMARK                         _______ _______ _______ _____ _____    ______ ____
ROOT
ATOM      1  C   UNL     1      -4.098   0.333  -2.466  0.00  0.00    +0.117 A 
ATOM      2  C   UNL     1      -5.462   0.484  -2.630  0.00  0.00    +0.050 A 
ATOM      3  C   UNL     1      -5.676   0.874  -4.025  0.00  0.00    +0.014 A 
ATOM      4  C   UNL     1      -6.820   1.165  -4.776  0.00  0.00    +0.015 A 
ATOM      5  C   UNL     1      -6.702   1.507  -6.091  0.00  0.00    +0.046 A 
ATOM      6  C   UNL     1      -5.447   1.570  -6.694  0.00  0.00    +0.122 A 
ATOM      7  C   UNL     1      -4.304   1.287  -5.970  0.00  0.00    +0.071 A 
ATOM      8  C   UNL     1      -4.405   0.936  -4.627  0.00  0.00    +0.052 A 
ATOM      9  N   UNL     1      -3.467   0.612  -3.674  0.00  0.00    -0.350 N 
ATOM     10  H   UNL     1      -2.509   0.582  -3.822  0.00  0.00    +0.166 HD
ENDROOT
BRANCH   1  12
ATOM     11  N   UNL     1      -2.105  -0.148  -1.230  0.00  0.00    -0.308 N 
ATOM     12  C   UNL     1      -3.448  -0.040  -1.265  0.00  0.00    +0.262 C 
ATOM     13  O   UNL     1      -4.103  -0.262  -0.262  0.00  0.00    -0.269 OA
ATOM     14  H   UNL     1      -1.584   0.029  -2.029  0.00  0.00    +0.149 HD
BRANCH  11  15
ATOM     15  C   UNL     1      -1.433  -0.534   0.013  0.00  0.00    +0.070 C 
ATOM     16  C   UNL     1      -1.413  -2.059   0.130  0.00  0.00    +0.028 C 
BRANCH  15  18
ATOM     17  C   UNL     1      -0.019   1.526   0.010  0.00  0.00    +0.005 C 
ATOM     18  C   UNL     1       0.002  -0.004   0.002  0.00  0.00    +0.018 C 
ENDBRANCH  15  18
ENDBRANCH  11  15
ENDBRANCH   1  12
BRANCH   6  19
ATOM     19  O   UNL     1      -5.346   1.912  -8.005  0.00  0.00    -0.495 OA
ATOM     20  C   UNL     1      -6.564   2.193  -8.698  0.00  0.00    +0.277 C 
ENDBRANCH   6  19
BRANCH   2  21
ATOM     21  S   UNL     1      -6.701   0.251  -1.399  0.00  0.00    -0.087 S 
BRANCH  21  22
ATOM     22  C   UNL     1      -6.872   1.841  -0.660  0.00  0.00    +0.013 A 
ATOM     23  C   UNL     1      -6.101   2.906  -1.112  0.00  0.00    +0.015 A 
ATOM     24  C   UNL     1      -6.238   4.151  -0.531  0.00  0.00    +0.004 A 
ATOM     25  C   UNL     1      -7.141   4.340   0.499  0.00  0.00    -0.050 A 
ATOM     26  C   UNL     1      -7.910   3.282   0.952  0.00  0.00    +0.004 A 
ATOM     27  C   UNL     1      -7.782   2.036   0.372  0.00  0.00    +0.015 A 
ATOM     28  C   UNL     1      -7.288   5.700   1.131  0.00  0.00    +0.044 C 
ENDBRANCH  21  22
ENDBRANCH   2  21
TORSDOF 6
