REMARK  Name = ZINC19811830
REMARK  4 active torsions:
REMARK  status: ('A' for Active; 'I' for Inactive)
REMARK    1  A    between atoms: C_1  and  C_2
REMARK    2  A    between atoms: C_7  and  C_8
REMARK    3  A    between atoms: N_22  and  C_23
REMARK    4  A    between atoms: C_23  and  C_24
REMARK                            x       y       z     vdW  Elec       q    Type
REMARK                         _______ _______ _______ _____ _____    ______ ____
ROOT
ATOM      1  C   UNL     1       2.339   4.039  -0.465  0.00  0.00    +0.135 C 
ATOM      2  C   UNL     1       2.415   4.408  -1.927  0.00  0.00    +0.042 A 
ATOM      3  C   UNL     1       3.564   4.336  -2.644  0.00  0.00    -0.016 A 
ATOM      4  C   UNL     1       3.251   4.753  -3.992  0.00  0.00    +0.003 A 
ATOM      5  C   UNL     1       4.022   4.882  -5.151  0.00  0.00    +0.010 A 
ATOM      6  C   UNL     1       3.377   5.317  -6.282  0.00  0.00    +0.001 A 
ATOM      7  C   UNL     1       2.025   5.618  -6.289  0.00  0.00    +0.002 A 
ATOM      8  C   UNL     1       1.237   5.500  -5.157  0.00  0.00    +0.026 A 
ATOM      9  C   UNL     1       1.865   5.061  -3.993  0.00  0.00    +0.047 A 
ATOM     10  N   UNL     1       1.398   4.838  -2.729  0.00  0.00    -0.356 N 
ATOM     11  H   UNL     1       0.385   4.955  -2.317  0.00  0.00    +0.166 HD
ATOM     12  C   UNL     1       4.883   3.895  -2.061  0.00  0.00    +0.053 C 
ATOM     13  C   UNL     1       4.766   3.942  -0.531  0.00  0.00    +0.090 C 
ATOM     14  N   UNL     1       3.535   3.256  -0.113  0.00  0.00    -0.286 NA
ENDROOT
BRANCH   1  21
ATOM     15  C   UNL     1      -0.161   5.340   0.170  0.00  0.00    +0.044 C 
ATOM     16  C   UNL     1      -0.093   3.837   0.089  0.00  0.00    -0.045 A 
ATOM     17  C   UNL     1      -1.228   3.080   0.319  0.00  0.00    +0.004 A 
ATOM     18  C   UNL     1      -1.167   1.702   0.239  0.00  0.00    +0.000 A 
ATOM     19  C   UNL     1       0.031   1.079  -0.059  0.00  0.00    +0.000 A 
ATOM     20  C   UNL     1       1.165   1.835  -0.288  0.00  0.00    +0.006 A 
ATOM     21  C   UNL     1       1.103   3.215  -0.214  0.00  0.00    -0.022 A 
ENDBRANCH   1  21
BRANCH  14  22
ATOM     22  C   UNL     1       3.563   2.954   1.324  0.00  0.00    +0.122 C 
BRANCH  22  23
ATOM     23  C   UNL     1       4.905   2.373   1.689  0.00  0.00    -0.015 A 
ATOM     24  C   UNL     1       5.945   3.202   2.082  0.00  0.00    +0.008 A 
ATOM     25  C   UNL     1       7.162   2.623   2.409  0.00  0.00    +0.020 A 
ATOM     26  C   UNL     1       7.297   1.250   2.332  0.00  0.00    +0.111 A 
ATOM     27  N   UNL     1       6.285   0.493   1.954  0.00  0.00    -0.263 NA
ATOM     28  C   UNL     1       5.112   1.008   1.642  0.00  0.00    +0.115 A 
ENDBRANCH  22  23
ENDBRANCH  14  22
TORSDOF 3
