REMARK  Name = ZINC37318413
REMARK  5 active torsions:
REMARK  status: ('A' for Active; 'I' for Inactive)
REMARK    1  A    between atoms: C_1  and  C_2
REMARK    2  A    between atoms: C_2  and  C_4
REMARK    3  A    between atoms: C_2  and  N_12
REMARK    4  A    between atoms: N_12  and  C_13
REMARK    5  A    between atoms: C_18  and  N_19
REMARK                            x       y       z     vdW  Elec       q    Type
REMARK                         _______ _______ _______ _____ _____    ______ ____
ROOT
ATOM      1  N   UNL     1       0.649  -0.362   1.471  0.00  0.00    -0.335 N 
ATOM      2  H   UNL     1       1.598  -0.483   1.631  0.00  0.00    +0.147 HD
ENDROOT
BRANCH   1   3
ATOM      3  C   UNL     1      -0.266  -0.569   2.507  0.00  0.00    +0.058 A 
ATOM      4  C   UNL     1      -1.628  -0.428   2.271  0.00  0.00    +0.026 A 
ATOM      5  C   UNL     1      -2.530  -0.632   3.296  0.00  0.00    +0.017 A 
ATOM      6  C   UNL     1      -2.078  -0.977   4.558  0.00  0.00    +0.020 A 
ATOM      7  C   UNL     1      -0.723  -1.118   4.796  0.00  0.00    +0.050 A 
ATOM      8  C   UNL     1       0.184  -0.921   3.773  0.00  0.00    +0.148 A 
ATOM      9 BR   UNL     1      -3.317  -1.256   5.960  0.00  0.00    -0.050 Br
BRANCH   8  10
ATOM     10  N   UNL     1       1.633  -1.078   4.027  0.00  0.00    +0.058 N 
ATOM     11  O   UNL     1       2.345  -1.569   3.182  0.00  0.00    -0.126 OA
ATOM     12  O   UNL     1       2.105  -0.716   5.079  0.00  0.00    -0.126 OA
ENDBRANCH   8  10
ENDBRANCH   1   3
BRANCH   1  14
ATOM     13  C   UNL     1      -0.004   1.555   0.101  0.00  0.00    +0.033 C 
ATOM     14  C   UNL     1       0.175   0.036   0.144  0.00  0.00    +0.099 C 
BRANCH  14  15
ATOM     15  C   UNL     1       1.183  -0.380  -0.896  0.00  0.00    -0.009 A 
ATOM     16  C   UNL     1       2.521  -0.479  -0.560  0.00  0.00    +0.010 A 
ATOM     17  C   UNL     1       3.446  -0.861  -1.512  0.00  0.00    +0.039 A 
ATOM     18  C   UNL     1       3.035  -1.144  -2.804  0.00  0.00    +0.125 A 
ATOM     19  C   UNL     1       1.696  -1.045  -3.140  0.00  0.00    +0.058 A 
ATOM     20  C   UNL     1       0.769  -0.668  -2.184  0.00  0.00    +0.049 A 
ATOM     21 CL   UNL     1      -0.911  -0.549  -2.603  0.00  0.00    -0.083 Cl
ATOM     22  F   UNL     1       3.940  -1.516  -3.735  0.00  0.00    -0.205 F 
ENDBRANCH  14  15
ENDBRANCH   1  14
TORSDOF 4
