REMARK  Name = ZINC21810719
REMARK  10 active torsions:
REMARK  status: ('A' for Active; 'I' for Inactive)
REMARK    1  A    between atoms: C_1  and  C_2
REMARK    2  A    between atoms: C_2  and  C_3
REMARK    3  A    between atoms: C_3  and  N_4
REMARK    4  A    between atoms: N_7  and  C_10
REMARK    5  A    between atoms: C_10  and  C_11
REMARK    6  A    between atoms: C_11  and  C_12
REMARK    7  A    between atoms: C_12  and  N_13
REMARK    8  A    between atoms: C_22  and  C_23
REMARK    9  A    between atoms: C_22  and  C_24
REMARK   10  A    between atoms: N_26  and  C_27
REMARK                            x       y       z     vdW  Elec       q    Type
REMARK                         _______ _______ _______ _____ _____    ______ ____
ROOT
ATOM      1  N   UNL     1       2.240   0.305  -0.091  0.00  0.00    -0.281 N 
ATOM      2  C   UNL     1       1.074  -0.312  -0.395  0.00  0.00    +0.264 C 
ATOM      3  O   UNL     1       1.047  -1.408  -0.923  0.00  0.00    -0.268 OA
ATOM      4  C   UNL     1      -0.157   0.412  -0.052  0.00  0.00    +0.109 A 
ATOM      5  C   UNL     1      -1.457   0.002  -0.054  0.00  0.00    +0.079 A 
ATOM      6  C   UNL     1      -2.240   1.082   0.380  0.00  0.00    +0.153 A 
ATOM      7  C   UNL     1      -1.380   2.150   0.638  0.00  0.00    +0.088 A 
ATOM      8  N   UNL     1      -0.110   1.740   0.366  0.00  0.00    -0.331 N 
ATOM      9  C   UNL     1       1.156   2.475   0.449  0.00  0.00    +0.157 C 
ATOM     10  C   UNL     1       2.288   1.493   0.753  0.00  0.00    +0.128 C 
ATOM     11  C   UNL     1       2.187   1.064   2.218  0.00  0.00    +0.043 C 
ATOM     12  C   UNL     1      -2.200   3.217   1.078  0.00  0.00    +0.067 A 
ATOM     13  C   UNL     1      -3.469   2.775   1.067  0.00  0.00    +0.198 A 
ATOM     14  O   UNL     1      -3.496   1.499   0.648  0.00  0.00    -0.461 OA
ENDROOT
BRANCH  10  15
ATOM     15  C   UNL     1       3.607   2.189   0.539  0.00  0.00    +0.238 C 
ATOM     16  O   UNL     1       4.465   2.138   1.394  0.00  0.00    -0.273 OA
ATOM     17  N   UNL     1       3.833   2.870  -0.602  0.00  0.00    -0.311 N 
ATOM     18  H   UNL     1       3.027   2.985  -1.343  0.00  0.00    +0.149 HD
BRANCH  17  19
ATOM     19  C   UNL     1       5.151   3.455  -0.857  0.00  0.00    +0.073 C 
ATOM     20  C   UNL     1       5.221   4.848  -0.227  0.00  0.00    +0.022 C 
ATOM     21  C   UNL     1       6.598   5.459  -0.493  0.00  0.00    +0.002 C 
ATOM     22  C   UNL     1       6.824   5.571  -2.002  0.00  0.00    +0.000 C 
ATOM     23  C   UNL     1       6.753   4.178  -2.633  0.00  0.00    +0.002 C 
ATOM     24  C   UNL     1       5.377   3.567  -2.367  0.00  0.00    +0.022 C 
ENDBRANCH  17  19
ENDBRANCH  10  15
BRANCH   1  25
ATOM     25  C   UNL     1       3.491  -0.238  -0.626  0.00  0.00    +0.110 C 
BRANCH  25  26
ATOM     26  C   UNL     1       3.706   0.282  -2.048  0.00  0.00    +0.034 C 
BRANCH  26  27
ATOM     27  C   UNL     1       4.946  -0.381  -2.652  0.00  0.00    +0.086 C 
BRANCH  27  31
ATOM     28  N   UNL     1       5.758   0.151  -6.763  0.00  0.00    +0.381 N 
ATOM     29  C   UNL     1       6.824   0.472  -5.804  0.00  0.00    -0.063 C 
ATOM     30  C   UNL     1       6.535  -0.226  -4.473  0.00  0.00    +0.066 C 
ATOM     31  N   UNL     1       5.226   0.211  -3.967  0.00  0.00    -0.306 NA
ATOM     32  C   UNL     1       4.161  -0.110  -4.926  0.00  0.00    +0.066 C 
ATOM     33  C   UNL     1       4.449   0.588  -6.258  0.00  0.00    -0.063 C 
ATOM     34  H   UNL     1       5.728  -0.942  -6.885  0.00  0.00    -0.082 HD
BRANCH  28  35
ATOM     35  C   UNL     1       6.038   0.742  -8.078  0.00  0.00    -0.079 C 
BRANCH  35  37
ATOM     36  C   UNL     1       5.097   1.220 -10.343  0.00  0.00    +0.002 C 
ATOM     37  C   UNL     1       4.805   0.604  -8.973  0.00  0.00    -0.022 C 
ENDBRANCH  35  37
ENDBRANCH  28  35
ENDBRANCH  27  31
ENDBRANCH  26  27
ENDBRANCH  25  26
ENDBRANCH   1  25
TORSDOF 8
