REMARK  Name = ZINC20756978
REMARK  6 active torsions:
REMARK  status: ('A' for Active; 'I' for Inactive)
REMARK    1  A    between atoms: C_1  and  O_2
REMARK    2  A    between atoms: O_2  and  C_3
REMARK    3  A    between atoms: C_3  and  C_4
REMARK    4  A    between atoms: C_4  and  N_5
REMARK    5  A    between atoms: C_10  and  C_28
REMARK    6  A    between atoms: C_28  and  C_29
REMARK                            x       y       z     vdW  Elec       q    Type
REMARK                         _______ _______ _______ _____ _____    ______ ____
ROOT
ATOM      1  N   UNL     1      -0.515  -2.565   1.245  0.00  0.00    -0.239 N 
ATOM      2  C   UNL     1       0.836  -2.688   1.399  0.00  0.00    +0.227 C 
ATOM      3  O   UNL     1       1.699  -2.216   0.690  0.00  0.00    -0.275 OA
ATOM      4  C   UNL     1       1.032  -3.531   2.630  0.00  0.00    +0.107 C 
ATOM      5  C   UNL     1       2.113  -3.135   3.644  0.00  0.00    +0.072 C 
ATOM      6  N   UNL     1       1.496  -3.528   4.954  0.00  0.00    -0.295 NA
ATOM      7  C   UNL     1       0.011  -3.462   4.784  0.00  0.00    +0.136 C 
ATOM      8  C   UNL     1      -0.209  -2.951   3.421  0.00  0.00    +0.122 C 
ATOM      9  C   UNL     1      -1.211  -2.892   2.382  0.00  0.00    +0.228 C 
ATOM     10  O   UNL     1      -2.402  -3.089   2.492  0.00  0.00    -0.275 OA
ATOM     11  C   UNL     1      -0.581  -4.829   5.010  0.00  0.00    +0.005 A 
ATOM     12  C   UNL     1      -0.444  -6.035   4.359  0.00  0.00    +0.027 A 
ATOM     13  C   UNL     1      -1.135  -7.147   4.809  0.00  0.00    +0.041 A 
ATOM     14  C   UNL     1      -1.961  -7.043   5.914  0.00  0.00    +0.022 A 
ATOM     15  C   UNL     1      -2.099  -5.837   6.569  0.00  0.00    +0.025 A 
ATOM     16  C   UNL     1      -1.407  -4.713   6.122  0.00  0.00    +0.039 A 
ATOM     17  N   UNL     1      -1.380  -3.405   6.609  0.00  0.00    -0.283 N 
ATOM     18  C   UNL     1      -0.575  -2.609   5.883  0.00  0.00    +0.243 C 
ATOM     19  O   UNL     1      -0.360  -1.430   6.075  0.00  0.00    -0.273 OA
ATOM     20 CL   UNL     1      -0.965  -8.668   3.989  0.00  0.00    -0.084 Cl
ATOM     21  H   UNL     1       1.787  -4.455   5.227  0.00  0.00    +0.124 HD
ATOM     22  H   UNL     1      -1.885  -3.104   7.381  0.00  0.00    +0.155 HD
ENDROOT
BRANCH   1  23
ATOM     23  C   UNL     1      -1.154  -2.126   0.002  0.00  0.00    +0.144 C 
BRANCH  23  24
ATOM     24  C   UNL     1      -1.295  -0.603   0.011  0.00  0.00    +0.179 C 
BRANCH  24  26
ATOM     25  C   UNL     1      -0.017   1.425   0.010  0.00  0.00    +0.194 C 
ATOM     26  O   UNL     1       0.002  -0.004   0.002  0.00  0.00    -0.381 OA
ENDBRANCH  24  26
ENDBRANCH  23  24
ENDBRANCH   1  23
BRANCH   5  27
ATOM     27  C   UNL     1       2.378  -1.629   3.595  0.00  0.00    +0.056 C 
BRANCH  27  28
ATOM     28  C   UNL     1       3.525  -1.290   4.511  0.00  0.00    -0.021 A 
ATOM     29  C   UNL     1       3.435  -0.878   5.785  0.00  0.00    +0.087 A 
ATOM     30  N   UNL     1       4.687  -0.667   6.297  0.00  0.00    -0.360 N 
ATOM     31  H   UNL     1       4.876  -0.366   7.199  0.00  0.00    +0.165 HD
ATOM     32  C   UNL     1       5.637  -0.946   5.340  0.00  0.00    +0.047 A 
ATOM     33  C   UNL     1       4.951  -1.354   4.181  0.00  0.00    +0.003 A 
ATOM     34  C   UNL     1       5.668  -1.710   3.037  0.00  0.00    +0.010 A 
ATOM     35  C   UNL     1       7.033  -1.663   3.050  0.00  0.00    +0.001 A 
ATOM     36  C   UNL     1       7.714  -1.264   4.191  0.00  0.00    +0.002 A 
ATOM     37  C   UNL     1       7.027  -0.900   5.329  0.00  0.00    +0.026 A 
ENDBRANCH  27  28
ENDBRANCH   5  27
TORSDOF 5
