REMARK  Name = ZINC39661106
REMARK  5 active torsions:
REMARK  status: ('A' for Active; 'I' for Inactive)
REMARK    1  A    between atoms: C_3  and  O_30
REMARK    2  A    between atoms: C_6  and  C_7
REMARK    3  A    between atoms: C_11  and  C_20
REMARK    4  A    between atoms: N_22  and  C_23
REMARK    5  A    between atoms: O_30  and  C_31
REMARK                            x       y       z     vdW  Elec       q    Type
REMARK                         _______ _______ _______ _____ _____    ______ ____
ROOT
ATOM      1  C   UNL     1      -1.262  -0.761   0.011  0.00  0.00    +0.247 C 
ATOM      2  O   UNL     1      -2.320  -0.173   0.133  0.00  0.00    -0.270 OA
ATOM      3  N   UNL     1      -1.246  -2.104  -0.098  0.00  0.00    -0.296 N 
ATOM      4  C   UNL     1      -0.065  -2.998  -0.125  0.00  0.00    +0.121 C 
ATOM      5  C   UNL     1      -0.488  -4.229   0.708  0.00  0.00    +0.100 C 
ATOM      6  C   UNL     1      -2.024  -4.239   0.641  0.00  0.00    -0.004 C 
ATOM      7  C   UNL     1      -2.405  -3.020  -0.213  0.00  0.00    +0.115 C 
ATOM      8  C   UNL     1      -2.516  -5.523  -0.019  0.00  0.00    -0.010 C 
ATOM      9  C   UNL     1      -4.048  -5.536  -0.022  0.00  0.00    -0.082 C 
ATOM     10  N   UNL     1      -4.542  -5.451   1.357  0.00  0.00    +0.379 N 
ATOM     11  C   UNL     1      -4.143  -4.170   1.954  0.00  0.00    -0.082 C 
ATOM     12  C   UNL     1      -2.615  -4.100   2.041  0.00  0.00    -0.010 C 
ATOM     13  H   UNL     1      -5.549  -5.521   1.357  0.00  0.00    -0.086 HD
ATOM     14  H   UNL     1      -4.155  -6.208   1.899  0.00  0.00    -0.086 HD
ENDROOT
BRANCH   1  20
ATOM     15  C   UNL     1       0.080   1.256   0.587  0.00  0.00    +0.016 A 
ATOM     16  C   UNL     1       1.263   1.960   0.559  0.00  0.00    +0.047 A 
ATOM     17  C   UNL     1       2.381   1.421  -0.067  0.00  0.00    +0.130 A 
ATOM     18  C   UNL     1       2.309   0.169  -0.668  0.00  0.00    +0.047 A 
ATOM     19  C   UNL     1       1.129  -0.541  -0.644  0.00  0.00    +0.016 A 
ATOM     20  C   UNL     1       0.004  -0.002  -0.016  0.00  0.00    +0.037 A 
BRANCH  17  21
ATOM     21  O   UNL     1       3.545   2.118  -0.092  0.00  0.00    -0.406 OA
BRANCH  21  22
ATOM     22  C   UNL     1       4.654   1.505  -0.752  0.00  0.00    +0.575 C 
ATOM     23  F   UNL     1       4.327   1.270  -2.092  0.00  0.00    -0.133 F 
ATOM     24  F   UNL     1       5.764   2.353  -0.685  0.00  0.00    -0.133 F 
ATOM     25  F   UNL     1       4.956   0.291  -0.126  0.00  0.00    -0.133 F 
ENDBRANCH  21  22
ENDBRANCH  17  21
ENDBRANCH   1  20
BRANCH   5  26
ATOM     26  C   UNL     1       0.074  -5.490   0.105  0.00  0.00    +0.219 C 
ATOM     27  O   UNL     1       0.344  -5.529  -1.077  0.00  0.00    -0.275 OA
ATOM     28  N   UNL     1       0.277  -6.575   0.878  0.00  0.00    -0.304 N 
ATOM     29  H   UNL     1       0.060  -6.544   1.823  0.00  0.00    +0.149 HD
BRANCH  28  30
ATOM     30  C   UNL     1       0.823  -7.801   0.291  0.00  0.00    +0.151 C 
ATOM     31  C   UNL     1       1.561  -8.586   1.377  0.00  0.00    +0.042 C 
ATOM     32  C   UNL     1       1.614 -10.067   0.933  0.00  0.00    +0.079 C 
ATOM     33  S   UNL     1       0.081 -10.213  -0.063  0.00  0.00    -0.086 S 
ATOM     34  C   UNL     1      -0.306  -8.601  -0.315  0.00  0.00    +0.209 C 
ATOM     35  O   UNL     1      -1.292  -8.167  -0.872  0.00  0.00    -0.283 OA
ENDBRANCH  28  30
ENDBRANCH   5  26
TORSDOF 5
