REMARK  Name = ZINC64604422
REMARK  7 active torsions:
REMARK  status: ('A' for Active; 'I' for Inactive)
REMARK    1  A    between atoms: C_1  and  C_2
REMARK    2  A    between atoms: C_2  and  C_3
REMARK    3  A    between atoms: C_3  and  C_4
REMARK    4  A    between atoms: C_4  and  S_5
REMARK    5  A    between atoms: S_5  and  C_6
REMARK    6  A    between atoms: C_12  and  C_20
REMARK    7  A    between atoms: N_22  and  C_23
REMARK                            x       y       z     vdW  Elec       q    Type
REMARK                         _______ _______ _______ _____ _____    ______ ____
ROOT
ATOM      1  C   UNL     1       1.585  -4.397   2.559  0.00  0.00    +0.182 C 
ATOM      2  N   UNL     1       0.966  -4.897   1.504  0.00  0.00    -0.154 NA
ATOM      3  C   UNL     1       0.809  -6.211   1.330  0.00  0.00    +0.249 C 
ATOM      4  O   UNL     1       0.263  -6.664   0.343  0.00  0.00    -0.273 OA
ATOM      5  C   UNL     1       1.345  -7.111   2.424  0.00  0.00    +0.153 C 
ATOM      6  C   UNL     1       2.307  -8.117   1.789  0.00  0.00    +0.103 C 
ATOM      7  C   UNL     1       2.720  -9.137   2.853  0.00  0.00    +0.110 C 
ATOM      8  C   UNL     1       3.158  -8.451   4.115  0.00  0.00    +0.219 C 
ATOM      9  O   UNL     1       3.831  -9.073   4.908  0.00  0.00    -0.275 OA
ATOM     10  N   UNL     1       2.838  -7.179   4.403  0.00  0.00    -0.273 N 
ATOM     11  C   UNL     1       2.124  -6.419   3.527  0.00  0.00    +0.117 C 
ATOM     12  N   UNL     1       2.174  -5.117   3.521  0.00  0.00    -0.212 NA
ATOM     13  H   UNL     1       3.106  -6.797   5.254  0.00  0.00    +0.156 HD
ENDROOT
BRANCH   6  14
ATOM     14  C   UNL     1       3.526  -7.396   1.274  0.00  0.00    +0.222 C 
ATOM     15  O   UNL     1       3.618  -6.194   1.401  0.00  0.00    -0.275 OA
ATOM     16  N   UNL     1       4.513  -8.088   0.671  0.00  0.00    -0.284 N 
ATOM     17  H   UNL     1       4.470  -9.056   0.627  0.00  0.00    +0.155 HD
BRANCH  16  18
ATOM     18  C   UNL     1       5.601  -7.410   0.109  0.00  0.00    +0.047 A 
ATOM     19  C   UNL     1       6.083  -6.252   0.706  0.00  0.00    +0.024 A 
ATOM     20  C   UNL     1       7.156  -5.585   0.150  0.00  0.00    +0.002 A 
ATOM     21  C   UNL     1       7.751  -6.068  -1.002  0.00  0.00    +0.001 A 
ATOM     22  C   UNL     1       7.274  -7.219  -1.600  0.00  0.00    +0.017 A 
ATOM     23  C   UNL     1       6.204  -7.895  -1.044  0.00  0.00    +0.039 A 
ATOM     24 BR   UNL     1       5.556  -9.475  -1.858  0.00  0.00    -0.048 Br
ENDBRANCH  16  18
ENDBRANCH   6  14
BRANCH   1  25
ATOM     25  S   UNL     1       1.644  -2.642   2.708  0.00  0.00    -0.088 S 
BRANCH  25  26
ATOM     26  C   UNL     1       0.755  -2.047   1.243  0.00  0.00    +0.077 C 
BRANCH  26  27
ATOM     27  C   UNL     1       0.731  -0.517   1.248  0.00  0.00    +0.011 C 
BRANCH  27  29
ATOM     28  C   UNL     1      -0.042   1.515   0.017  0.00  0.00    +0.004 C 
ATOM     29  C   UNL     1      -0.018  -0.015   0.012  0.00  0.00    -0.003 C 
ENDBRANCH  27  29
ENDBRANCH  26  27
ENDBRANCH  25  26
ENDBRANCH   1  25
TORSDOF 6
