REMARK  Name = ZINC33126341
REMARK  11 active torsions:
REMARK  status: ('A' for Active; 'I' for Inactive)
REMARK    1  A    between atoms: C_1  and  C_2
REMARK    2  A    between atoms: C_2  and  C_3
REMARK    3  A    between atoms: C_3  and  N_4
REMARK    4  A    between atoms: N_4  and  C_5
REMARK    5  A    between atoms: N_4  and  C_14
REMARK    6  A    between atoms: C_5  and  C_6
REMARK    7  A    between atoms: C_9  and  O_12
REMARK    8  A    between atoms: O_12  and  C_13
REMARK    9  A    between atoms: C_14  and  C_15
REMARK   10  A    between atoms: C_23  and  C_26
REMARK   11  A    between atoms: C_29  and  C_32
REMARK                            x       y       z     vdW  Elec       q    Type
REMARK                         _______ _______ _______ _____ _____    ______ ____
ROOT
ATOM      1  C   UNL     1      -1.153   2.108  -1.280  0.00  0.00    +0.032 A 
ATOM      2  C   UNL     1      -0.707   3.130  -2.070  0.00  0.00    +0.093 A 
ATOM      3  C   UNL     1      -1.567   3.661  -3.048  0.00  0.00    +0.273 A 
ATOM      4  O   UNL     1      -1.198   4.571  -3.772  0.00  0.00    -0.266 OA
ATOM      5  N   UNL     1      -2.809   3.149  -3.166  0.00  0.00    -0.201 N 
ATOM      6  C   UNL     1      -3.208   2.127  -2.344  0.00  0.00    +0.158 A 
ATOM      7  N   UNL     1      -2.383   1.633  -1.429  0.00  0.00    -0.234 NA
ATOM      8  C   UNL     1      -4.536   1.798  -2.691  0.00  0.00    +0.075 A 
ATOM      9  C   UNL     1      -4.924   2.615  -3.708  0.00  0.00    +0.066 A 
ATOM     10  N   UNL     1      -3.877   3.455  -4.018  0.00  0.00    -0.288 N 
ATOM     11  H   UNL     1      -3.773   4.255  -4.766  0.00  0.00    +0.187 HD
ENDROOT
BRANCH   9  12
ATOM     12  C   UNL     1      -6.245   2.602  -4.369  0.00  0.00    -0.000 A 
ATOM     13  C   UNL     1      -6.521   3.500  -5.402  0.00  0.00    +0.010 A 
ATOM     14  C   UNL     1      -7.755   3.479  -6.019  0.00  0.00    +0.004 A 
ATOM     15  C   UNL     1      -8.722   2.578  -5.608  0.00  0.00    -0.050 A 
ATOM     16  C   UNL     1      -8.457   1.689  -4.581  0.00  0.00    +0.004 A 
ATOM     17  C   UNL     1      -7.226   1.696  -3.960  0.00  0.00    +0.010 A 
ATOM     18  C   UNL     1     -10.069   2.565  -6.283  0.00  0.00    +0.044 C 
ENDBRANCH   9  12
BRANCH   1  19
ATOM     19  C   UNL     1      -0.245   1.522  -0.230  0.00  0.00    -0.022 C 
BRANCH  19  20
ATOM     20  N   UNL     1      -0.798   1.796   1.104  0.00  0.00    +0.386 N 
ATOM     21  H   UNL     1      -1.000   2.875   1.170  0.00  0.00    -0.081 HD
BRANCH  20  22
ATOM     22  C   UNL     1      -2.068   1.085   1.303  0.00  0.00    -0.078 C 
BRANCH  22  24
ATOM     23  C   UNL     1      -4.102   0.908   2.743  0.00  0.00    +0.002 C 
ATOM     24  C   UNL     1      -2.782   1.651   2.532  0.00  0.00    -0.022 C 
ENDBRANCH  22  24
ENDBRANCH  20  22
BRANCH  20  25
ATOM     25  C   UNL     1       0.169   1.452   2.155  0.00  0.00    -0.042 C 
BRANCH  25  26
ATOM     26  C   UNL     1       1.240   2.510   2.219  0.00  0.00    -0.064 A 
ATOM     27  C   UNL     1       2.430   2.329   1.539  0.00  0.00    +0.005 A 
ATOM     28  C   UNL     1       3.411   3.300   1.592  0.00  0.00    +0.046 A 
ATOM     29  C   UNL     1       3.205   4.453   2.336  0.00  0.00    +0.120 A 
ATOM     30  C   UNL     1       2.012   4.630   3.021  0.00  0.00    +0.046 A 
ATOM     31  C   UNL     1       1.032   3.658   2.961  0.00  0.00    +0.005 A 
BRANCH  29  32
ATOM     32  O   UNL     1       4.171   5.408   2.393  0.00  0.00    -0.495 OA
ATOM     33  C   UNL     1       5.374   5.159   1.663  0.00  0.00    +0.277 C 
ENDBRANCH  29  32
ENDBRANCH  25  26
ENDBRANCH  20  25
ENDBRANCH  19  20
ENDBRANCH   1  19
TORSDOF 8
