REMARK  Name = ZINC35512681
REMARK  6 active torsions:
REMARK  status: ('A' for Active; 'I' for Inactive)
REMARK    1  A    between atoms: C_1  and  C_2
REMARK    2  A    between atoms: C_16  and  C_18
REMARK    3  A    between atoms: C_21  and  S_24
REMARK    4  A    between atoms: S_24  and  C_25
REMARK    5  A    between atoms: C_28  and  C_32
REMARK    6  A    between atoms: C_29  and  C_31
REMARK                            x       y       z     vdW  Elec       q    Type
REMARK                         _______ _______ _______ _____ _____    ______ ____
ROOT
ATOM      1  C   UNL     1      -0.018   1.503   0.010  0.00  0.00    +0.044 C 
ATOM      2  C   UNL     1       0.002  -0.004   0.002  0.00  0.00    -0.050 A 
ATOM      3  C   UNL     1       0.006  -0.689  -1.205  0.00  0.00    +0.007 A 
ATOM      4  C   UNL     1       0.022  -2.065  -1.235  0.00  0.00    +0.047 A 
ATOM      5  C   UNL     1       0.035  -2.790  -0.043  0.00  0.00    +0.139 A 
ATOM      6  C   UNL     1       0.037  -2.086   1.172  0.00  0.00    +0.065 A 
ATOM      7  C   UNL     1       0.023  -0.692   1.183  0.00  0.00    +0.018 A 
ATOM      8  C   UNL     1       0.067  -2.849   2.446  0.00  0.00    +0.199 A 
ATOM      9  O   UNL     1      -0.098  -2.332   3.537  0.00  0.00    -0.287 OA
ATOM     10  C   UNL     1       0.314  -4.283   2.266  0.00  0.00    +0.072 A 
ATOM     11  C   UNL     1       0.294  -4.850   1.023  0.00  0.00    +0.199 A 
ATOM     12  O   UNL     1       0.044  -4.142  -0.096  0.00  0.00    -0.450 OA
ATOM     13  C   UNL     1       0.583  -6.287   1.166  0.00  0.00    +0.289 C 
ATOM     14  O   UNL     1       0.644  -7.080   0.247  0.00  0.00    -0.266 OA
ATOM     15  N   UNL     1       0.770  -6.595   2.466  0.00  0.00    -0.232 N 
ATOM     16  C   UNL     1       0.614  -5.362   3.254  0.00  0.00    +0.151 C 
ATOM     17  C   UNL     1       1.060  -7.855   2.972  0.00  0.00    +0.169 A 
ATOM     18  N   UNL     1       1.245  -8.210   4.225  0.00  0.00    -0.229 NA
ATOM     19  C   UNL     1       1.515  -9.461   4.547  0.00  0.00    +0.050 A 
ATOM     20  C   UNL     1       1.592 -10.356   3.531  0.00  0.00    +0.011 A 
ATOM     21  S   UNL     1       1.252  -9.300   2.131  0.00  0.00    -0.057 S 
ATOM     22  C   UNL     1       1.881 -11.834   3.572  0.00  0.00    +0.053 C 
ATOM     23  C   UNL     1       1.729  -9.876   5.980  0.00  0.00    +0.066 C 
ENDROOT
BRANCH  16  24
ATOM     24  C   UNL     1      -0.528  -5.508   4.227  0.00  0.00    -0.022 A 
ATOM     25  C   UNL     1      -1.657  -6.220   3.864  0.00  0.00    +0.007 A 
ATOM     26  C   UNL     1      -2.705  -6.356   4.752  0.00  0.00    +0.015 A 
ATOM     27  C   UNL     1      -2.625  -5.776   6.012  0.00  0.00    +0.008 A 
ATOM     28  C   UNL     1      -1.489  -5.061   6.374  0.00  0.00    +0.015 A 
ATOM     29  C   UNL     1      -0.443  -4.934   5.482  0.00  0.00    +0.007 A 
BRANCH  27  30
ATOM     30  S   UNL     1      -3.960  -5.946   7.149  0.00  0.00    -0.129 S 
ATOM     31  C   UNL     1      -3.403  -5.041   8.619  0.00  0.00    +0.090 C 
ENDBRANCH  27  30
ENDBRANCH  16  24
TORSDOF 2
