REMARK  Name = ZINC08232516
REMARK  5 active torsions:
REMARK  status: ('A' for Active; 'I' for Inactive)
REMARK    1  A    between atoms: C_3  and  C_6
REMARK    2  A    between atoms: C_11  and  C_12
REMARK    3  A    between atoms: C_11  and  N_39
REMARK    4  A    between atoms: N_14  and  C_15
REMARK    5  A    between atoms: C_16  and  C_20
REMARK                            x       y       z     vdW  Elec       q    Type
REMARK                         _______ _______ _______ _____ _____    ______ ____
ROOT
ATOM      1  C   UNL     1      -1.296   0.930  -1.173  0.00  0.00    +0.201 C 
ATOM      2  O   UNL     1      -2.313   1.572  -1.012  0.00  0.00    -0.278 OA
ATOM      3  N   UNL     1      -0.999   0.434  -2.390  0.00  0.00    -0.281 N 
ATOM      4  H   UNL     1      -0.186  -0.080  -2.518  0.00  0.00    +0.155 HD
ENDROOT
BRANCH   3   5
ATOM      5  C   UNL     1      -1.854   0.656  -3.458  0.00  0.00    +0.084 A 
ATOM      6  C   UNL     1      -1.721   0.231  -4.774  0.00  0.00    +0.065 A 
ATOM      7  C   UNL     1      -2.772   0.609  -5.688  0.00  0.00    +0.022 A 
ATOM      8  C   UNL     1      -3.787   1.339  -5.190  0.00  0.00    +0.048 A 
ATOM      9  S   UNL     1      -3.352   1.526  -3.473  0.00  0.00    -0.081 S 
BRANCH   6  10
ATOM     10  C   UNL     1      -0.570  -0.564  -5.213  0.00  0.00    +0.244 C 
ATOM     11  O   UNL     1       0.300  -0.866  -4.417  0.00  0.00    -0.270 OA
ATOM     12  N   UNL     1      -0.474  -0.959  -6.498  0.00  0.00    -0.325 N 
ATOM     13  H   UNL     1      -1.167  -0.718  -7.132  0.00  0.00    +0.145 HD
ATOM     14  H   UNL     1       0.288  -1.485  -6.788  0.00  0.00    +0.145 HD
ENDBRANCH   6  10
ENDBRANCH   3   5
BRANCH   1  15
ATOM     15  C   UNL     1      -0.366   0.688  -0.012  0.00  0.00    +0.020 C 
BRANCH  15  20
ATOM     16  C   UNL     1      -0.247   0.818   2.408  0.00  0.00    -0.030 C 
ATOM     17  C   UNL     1       0.345   2.034   3.150  0.00  0.00    -0.012 C 
ATOM     18  C   UNL     1      -0.502   3.217   2.613  0.00  0.00    -0.020 C 
ATOM     19  C   UNL     1      -0.734   2.794   1.141  0.00  0.00    -0.077 C 
ATOM     20  N   UNL     1      -0.925   1.334   1.204  0.00  0.00    +0.390 N 
ATOM     21  H   UNL     1      -1.929   1.125   1.264  0.00  0.00    -0.080 HD
BRANCH  16  24
ATOM     22  C   UNL     1       2.113  -2.131   1.909  0.00  0.00    +0.008 A 
ATOM     23  C   UNL     1       1.017  -1.437   2.387  0.00  0.00    +0.009 A 
ATOM     24  C   UNL     1       0.852  -0.141   2.027  0.00  0.00    -0.024 A 
ATOM     25  S   UNL     1       2.279   0.139   0.991  0.00  0.00    -0.103 S 
ATOM     26  C   UNL     1       2.995  -1.492   1.103  0.00  0.00    +0.045 A 
ENDBRANCH  16  24
ENDBRANCH  15  20
ENDBRANCH   1  15
TORSDOF 5
