REMARK  Name = ZINC59104257
REMARK  12 active torsions:
REMARK  status: ('A' for Active; 'I' for Inactive)
REMARK    1  A    between atoms: C_1  and  C_2
REMARK    2  A    between atoms: C_4  and  C_17
REMARK    3  A    between atoms: C_5  and  C_16
REMARK    4  A    between atoms: N_6  and  C_7
REMARK    5  A    between atoms: C_8  and  C_14
REMARK    6  A    between atoms: C_9  and  C_13
REMARK    7  A    between atoms: C_10  and  C_12
REMARK    8  A    between atoms: C_18  and  C_19
REMARK    9  A    between atoms: C_18  and  C_21
REMARK   10  A    between atoms: N_23  and  C_24
REMARK   11  A    between atoms: C_24  and  C_25
REMARK   12  A    between atoms: C_25  and  C_26
REMARK                            x       y       z     vdW  Elec       q    Type
REMARK                         _______ _______ _______ _____ _____    ______ ____
ROOT
ATOM      1  C   UNL     1       0.422  -3.391  -1.379  0.00  0.00    +0.033 C 
ATOM      2  C   UNL     1       0.208  -3.344  -2.743  0.00  0.00    +0.114 C 
ENDROOT
BRANCH   1   6
ATOM      3  C   UNL     1      -0.060   1.444   0.002  0.00  0.00    +0.064 C 
ATOM      4  C   UNL     1       0.045  -0.059   0.009  0.00  0.00    +0.022 A 
ATOM      5  C   UNL     1       0.212  -0.832  -1.076  0.00  0.00    +0.031 A 
ATOM      6  C   UNL     1       0.259  -2.221  -0.595  0.00  0.00    -0.003 A 
ATOM      7  C   UNL     1       0.111  -2.151   0.780  0.00  0.00    +0.029 A 
ATOM      8  N   UNL     1      -0.009  -0.852   1.123  0.00  0.00    -0.310 N 
ATOM      9  C   UNL     1       0.095  -3.322   1.729  0.00  0.00    +0.064 C 
BRANCH   8  10
ATOM     10  C   UNL     1      -0.170  -0.385   2.424  0.00  0.00    +0.103 A 
ATOM     11  C   UNL     1       0.642   0.497   3.118  0.00  0.00    +0.086 A 
ATOM     12  C   UNL     1       0.244   0.818   4.468  0.00  0.00    -0.021 A 
ATOM     13  C   UNL     1      -0.881   0.220   4.905  0.00  0.00    -0.007 A 
ATOM     14  S   UNL     1      -1.394  -0.756   3.509  0.00  0.00    -0.074 S 
ATOM     15  C   UNL     1      -1.547   0.350   6.251  0.00  0.00    +0.052 C 
ATOM     16  C   UNL     1       1.037   1.763   5.333  0.00  0.00    +0.046 C 
BRANCH  11  17
ATOM     17  C   UNL     1       1.818   1.061   2.526  0.00  0.00    +0.102 C 
ATOM     18  N   UNL     1       2.751   1.509   2.057  0.00  0.00    -0.191 NA
ENDBRANCH  11  17
ENDBRANCH   8  10
ENDBRANCH   1   6
BRANCH   2  19
ATOM     19  C   UNL     1       0.524  -4.512  -3.576  0.00  0.00    +0.254 C 
ATOM     20  O   UNL     1       0.973  -5.521  -3.065  0.00  0.00    -0.269 OA
ATOM     21  N   UNL     1       0.315  -4.467  -4.907  0.00  0.00    -0.310 N 
ATOM     22  H   UNL     1      -0.043  -3.663  -5.314  0.00  0.00    +0.149 HD
BRANCH  21  23
ATOM     23  C   UNL     1       0.629  -5.632  -5.738  0.00  0.00    +0.109 C 
BRANCH  23  24
ATOM     24  C   UNL     1       0.302  -5.319  -7.199  0.00  0.00    +0.056 C 
BRANCH  24  25
ATOM     25  C   UNL     1       0.626  -6.517  -8.054  0.00  0.00    -0.021 A 
ATOM     26  C   UNL     1       1.769  -6.736  -8.723  0.00  0.00    +0.087 A 
ATOM     27  N   UNL     1       1.699  -7.929  -9.389  0.00  0.00    -0.360 N 
ATOM     28  H   UNL     1       2.405  -8.301  -9.940  0.00  0.00    +0.165 HD
ATOM     29  C   UNL     1       0.478  -8.522  -9.159  0.00  0.00    +0.047 A 
ATOM     30  C   UNL     1      -0.246  -7.667  -8.308  0.00  0.00    +0.003 A 
ATOM     31  C   UNL     1      -1.532  -8.018  -7.897  0.00  0.00    +0.010 A 
ATOM     32  C   UNL     1      -2.082  -9.195  -8.322  0.00  0.00    +0.001 A 
ATOM     33  C   UNL     1      -1.371 -10.044  -9.158  0.00  0.00    +0.002 A 
ATOM     34  C   UNL     1      -0.103  -9.713  -9.583  0.00  0.00    +0.026 A 
ENDBRANCH  24  25
ENDBRANCH  23  24
ENDBRANCH  21  23
ENDBRANCH   2  19
BRANCH   2  35
ATOM     35  C   UNL     1      -0.321  -2.157  -3.344  0.00  0.00    +0.104 C 
ATOM     36  N   UNL     1      -0.740  -1.216  -3.821  0.00  0.00    -0.191 NA
ENDBRANCH   2  35
TORSDOF 8
