REMARK  Name = ZINC10129743
REMARK  11 active torsions:
REMARK  status: ('A' for Active; 'I' for Inactive)
REMARK    1  A    between atoms: C_1  and  C_2
REMARK    2  A    between atoms: C_5  and  N_9
REMARK    3  A    between atoms: C_6  and  C_8
REMARK    4  A    between atoms: C_10  and  C_12
REMARK    5  A    between atoms: N_14  and  C_15
REMARK    6  A    between atoms: C_15  and  C_16
REMARK    7  A    between atoms: C_16  and  C_18
REMARK    8  A    between atoms: C_16  and  N_69
REMARK    9  A    between atoms: C_21  and  N_24
REMARK   10  A    between atoms: N_24  and  C_25
REMARK   11  A    between atoms: N_24  and  C_26
REMARK                            x       y       z     vdW  Elec       q    Type
REMARK                         _______ _______ _______ _____ _____    ______ ____
ROOT
ATOM      1  C   UNL     1       2.300   0.719   0.231  0.00  0.00    -0.020 C 
ENDROOT
BRANCH   1  11
ATOM      2  C   UNL     1       1.941  -0.287   2.406  0.00  0.00    -0.073 C 
ATOM      3  C   UNL     1       1.795  -1.651   3.082  0.00  0.00    +0.017 C 
ATOM      4  C   UNL     1       3.075  -2.435   2.940  0.00  0.00    -0.048 A 
ATOM      5  C   UNL     1       3.276  -3.528   3.770  0.00  0.00    +0.004 A 
ATOM      6  C   UNL     1       4.433  -4.274   3.671  0.00  0.00    +0.000 A 
ATOM      7  C   UNL     1       5.395  -3.931   2.740  0.00  0.00    +0.000 A 
ATOM      8  C   UNL     1       5.196  -2.843   1.915  0.00  0.00    +0.002 A 
ATOM      9  C   UNL     1       4.036  -2.090   2.014  0.00  0.00    -0.061 A 
ATOM     10  C   UNL     1       3.868  -0.907   1.098  0.00  0.00    -0.042 C 
ATOM     11  N   UNL     1       2.450  -0.513   1.039  0.00  0.00    +0.388 N 
ATOM     12  H   UNL     1       1.910  -1.268   0.600  0.00  0.00    -0.080 HD
ENDBRANCH   1  11
BRANCH   1  13
ATOM     13  C   UNL     1       3.441   1.665   0.505  0.00  0.00    -0.059 A 
ATOM     14  C   UNL     1       3.644   2.148   1.785  0.00  0.00    +0.004 A 
ATOM     15  C   UNL     1       4.692   3.010   2.040  0.00  0.00    +0.023 A 
ATOM     16  C   UNL     1       5.535   3.402   1.008  0.00  0.00    +0.029 A 
ATOM     17  C   UNL     1       5.324   2.919  -0.277  0.00  0.00    +0.023 A 
ATOM     18  C   UNL     1       4.278   2.052  -0.525  0.00  0.00    +0.004 A 
BRANCH  16  19
ATOM     19  N   UNL     1       6.592   4.279   1.262  0.00  0.00    -0.336 N 
ATOM     20  C   UNL     1       7.480   4.691   0.172  0.00  0.00    +0.129 C 
ATOM     21  C   UNL     1       6.813   4.787   2.618  0.00  0.00    +0.129 C 
ENDBRANCH  16  19
ENDBRANCH   1  13
BRANCH   1  22
ATOM     22  C   UNL     1       0.977   1.399   0.587  0.00  0.00    +0.094 C 
BRANCH  22  25
ATOM     23  C   UNL     1      -1.405   0.901   0.462  0.00  0.00    +0.299 C 
ATOM     24  O   UNL     1      -1.621   1.922   1.082  0.00  0.00    -0.265 OA
ATOM     25  N   UNL     1      -0.139   0.548   0.166  0.00  0.00    -0.309 N 
ATOM     26  H   UNL     1       0.034  -0.268  -0.330  0.00  0.00    +0.149 HD
BRANCH  23  28
ATOM     27  N   UNL     1      -3.809   0.390   0.323  0.00  0.00    -0.278 N 
ATOM     28  C   UNL     1      -2.543   0.037   0.027  0.00  0.00    +0.303 C 
ATOM     29  O   UNL     1      -2.327  -0.984  -0.594  0.00  0.00    -0.265 OA
ATOM     30  H   UNL     1      -3.985   1.227   0.781  0.00  0.00    +0.155 HD
BRANCH  27  35
ATOM     31  C   UNL     1      -8.112  -3.014  -1.113  0.00  0.00    +0.044 C 
ATOM     32  C   UNL     1      -6.969  -2.110  -0.731  0.00  0.00    -0.050 A 
ATOM     33  C   UNL     1      -5.803  -2.120  -1.475  0.00  0.00    +0.005 A 
ATOM     34  C   UNL     1      -4.753  -1.293  -1.128  0.00  0.00    +0.024 A 
ATOM     35  C   UNL     1      -4.870  -0.448  -0.031  0.00  0.00    +0.037 A 
ATOM     36  C   UNL     1      -6.040  -0.444   0.717  0.00  0.00    -0.029 A 
ATOM     37  C   UNL     1      -7.088  -1.271   0.361  0.00  0.00    +0.008 A 
ATOM     38  C   UNL     1      -6.168   0.465   1.912  0.00  0.00    +0.045 C 
ENDBRANCH  27  35
ENDBRANCH  23  28
ENDBRANCH  22  25
ENDBRANCH   1  22
TORSDOF 7
