REMARK  Name = ZINC09588500
REMARK  6 active torsions:
REMARK  status: ('A' for Active; 'I' for Inactive)
REMARK    1  A    between atoms: C_1  and  C_2
REMARK    2  A    between atoms: C_7  and  C_8
REMARK    3  A    between atoms: N_12  and  C_28
REMARK    4  A    between atoms: C_14  and  C_15
REMARK    5  A    between atoms: C_14  and  C_17
REMARK    6  A    between atoms: N_25  and  C_26
REMARK                            x       y       z     vdW  Elec       q    Type
REMARK                         _______ _______ _______ _____ _____    ______ ____
ROOT
ATOM      1  C   UNL     1       0.050   1.504  -0.507  0.00  0.00    +0.028 C 
ATOM      2  C   UNL     1       1.068   2.234   0.017  0.00  0.00    +0.079 A 
ATOM      3  C   UNL     1       2.518   1.956   0.014  0.00  0.00    +0.270 A 
ATOM      4  O   UNL     1       2.974   0.955  -0.506  0.00  0.00    -0.266 OA
ATOM      5  N   UNL     1       3.299   2.848   0.600  0.00  0.00    -0.269 N 
ATOM      6  C   UNL     1       2.766   3.970   1.189  0.00  0.00    +0.109 A 
ATOM      7  C   UNL     1       3.430   5.001   1.849  0.00  0.00    +0.125 C 
ATOM      8  S   UNL     1       1.013   3.785   0.901  0.00  0.00    -0.064 S 
ENDROOT
BRANCH   7   9
ATOM      9  C   UNL     1       2.686   6.184   2.301  0.00  0.00    +0.154 A 
ATOM     10  N   UNL     1       1.396   6.378   2.133  0.00  0.00    -0.227 NA
ATOM     11  C   UNL     1       1.040   7.569   2.675  0.00  0.00    +0.090 A 
ATOM     12  C   UNL     1      -0.177   8.251   2.775  0.00  0.00    +0.030 A 
ATOM     13  C   UNL     1      -0.223   9.480   3.393  0.00  0.00    +0.002 A 
ATOM     14  C   UNL     1       0.929  10.049   3.916  0.00  0.00    +0.002 A 
ATOM     15  C   UNL     1       2.138   9.390   3.825  0.00  0.00    +0.028 A 
ATOM     16  C   UNL     1       2.204   8.151   3.207  0.00  0.00    +0.069 A 
ATOM     17  N   UNL     1       3.232   7.257   2.959  0.00  0.00    -0.326 N 
ATOM     18  C   UNL     1       4.639   7.426   3.329  0.00  0.00    +0.151 C 
ENDBRANCH   7   9
BRANCH   1  25
ATOM     19  C   UNL     1      -2.043   0.473  -2.219  0.00  0.00    +0.044 C 
ATOM     20  C   UNL     1      -2.365   1.423  -1.094  0.00  0.00    -0.043 A 
ATOM     21  C   UNL     1      -3.669   1.811  -0.870  0.00  0.00    +0.004 A 
ATOM     22  C   UNL     1      -3.967   2.683   0.163  0.00  0.00    +0.000 A 
ATOM     23  C   UNL     1      -2.961   3.172   0.979  0.00  0.00    +0.001 A 
ATOM     24  C   UNL     1      -1.653   2.790   0.771  0.00  0.00    +0.008 A 
ATOM     25  C   UNL     1      -1.342   1.913  -0.275  0.00  0.00    -0.021 A 
ENDBRANCH   1  25
BRANCH   5  26
ATOM     26  C   UNL     1       4.685   2.644   0.627  0.00  0.00    +0.051 A 
ATOM     27  C   UNL     1       5.488   3.194  -0.363  0.00  0.00    +0.026 A 
ATOM     28  C   UNL     1       6.855   2.996  -0.331  0.00  0.00    +0.002 A 
ATOM     29  C   UNL     1       7.422   2.241   0.679  0.00  0.00    +0.000 A 
ATOM     30  C   UNL     1       6.624   1.687   1.663  0.00  0.00    +0.002 A 
ATOM     31  C   UNL     1       5.257   1.886   1.640  0.00  0.00    +0.026 A 
ENDBRANCH   5  26
BRANCH   7  32
ATOM     32  C   UNL     1       4.840   4.907   2.086  0.00  0.00    +0.105 C 
ATOM     33  N   UNL     1       5.957   4.833   2.275  0.00  0.00    -0.191 NA
ENDBRANCH   7  32
TORSDOF 4
