REMARK  Name = ZINC13998258
REMARK  7 active torsions:
REMARK  status: ('A' for Active; 'I' for Inactive)
REMARK    1  A    between atoms: C_1  and  O_2
REMARK    2  A    between atoms: O_2  and  C_3
REMARK    3  A    between atoms: C_9  and  O_29
REMARK    4  A    between atoms: C_18  and  C_19
REMARK    5  A    between atoms: C_18  and  N_54
REMARK    6  A    between atoms: C_19  and  C_21
REMARK    7  A    between atoms: C_19  and  O_28
REMARK                            x       y       z     vdW  Elec       q    Type
REMARK                         _______ _______ _______ _____ _____    ______ ____
ROOT
ATOM      1  C   UNL     1      -0.338   8.250  -3.762  0.00  0.00    +0.121 A 
ATOM      2  C   UNL     1       0.815   7.754  -3.171  0.00  0.00    +0.049 A 
ATOM      3  C   UNL     1       0.998   6.391  -3.058  0.00  0.00    +0.049 A 
ATOM      4  C   UNL     1       0.031   5.511  -3.533  0.00  0.00    +0.127 A 
ATOM      5  C   UNL     1      -1.119   6.006  -4.120  0.00  0.00    +0.026 A 
ATOM      6  C   UNL     1      -1.302   7.375  -4.235  0.00  0.00    +0.055 A 
ATOM      7  C   UNL     1      -2.195   5.087  -4.640  0.00  0.00    +0.152 C 
ATOM      8  C   UNL     1      -1.624   3.679  -4.825  0.00  0.00    +0.084 C 
ATOM      9  C   UNL     1      -0.862   3.297  -3.551  0.00  0.00    +0.110 C 
ATOM     10  O   UNL     1       0.252   4.176  -3.405  0.00  0.00    -0.485 OA
ATOM     11  C   UNL     1      -0.373   1.852  -3.661  0.00  0.00    +0.029 C 
ATOM     12  C   UNL     1       0.329   1.454  -2.360  0.00  0.00    -0.075 C 
ATOM     13  C   UNL     1      -1.047   2.984  -1.081  0.00  0.00    -0.075 C 
ATOM     14  C   UNL     1      -1.790   3.430  -2.342  0.00  0.00    +0.029 C 
ATOM     15  N   UNL     1      -0.630   1.575  -1.242  0.00  0.00    +0.382 N 
ATOM     16  H   UNL     1      -1.458   1.005  -1.450  0.00  0.00    -0.082 HD
ENDROOT
BRANCH   1  18
ATOM     17  C   UNL     1       0.514  10.435  -3.366  0.00  0.00    +0.277 C 
ATOM     18  O   UNL     1      -0.521   9.592  -3.876  0.00  0.00    -0.495 OA
ENDBRANCH   1  18
BRANCH   7  19
ATOM     19  O   UNL     1      -2.672   5.574  -5.895  0.00  0.00    -0.387 OA
ATOM     20  H   UNL     1      -3.052   6.463  -5.854  0.00  0.00    +0.210 HD
ENDBRANCH   7  19
BRANCH  15  21
ATOM     21  C   UNL     1      -0.013   1.086   0.008  0.00  0.00    -0.042 C 
BRANCH  21  22
ATOM     22  C   UNL     1       0.201  -0.425  -0.107  0.00  0.00    +0.128 C 
BRANCH  22  23
ATOM     23  C   UNL     1       0.816  -0.943   1.167  0.00  0.00    -0.021 A 
ATOM     24  C   UNL     1       0.010  -1.267   2.243  0.00  0.00    +0.007 A 
ATOM     25  C   UNL     1       0.573  -1.747   3.410  0.00  0.00    +0.015 A 
ATOM     26  C   UNL     1       1.945  -1.894   3.506  0.00  0.00    +0.018 A 
ATOM     27  C   UNL     1       2.752  -1.565   2.431  0.00  0.00    +0.015 A 
ATOM     28  C   UNL     1       2.187  -1.090   1.263  0.00  0.00    +0.007 A 
ATOM     29 BR   UNL     1       2.718  -2.545   5.104  0.00  0.00    -0.050 Br
ENDBRANCH  22  23
BRANCH  22  30
ATOM     30  O   UNL     1      -1.057  -1.068  -0.325  0.00  0.00    -0.389 OA
ATOM     31  H   UNL     1      -1.700  -0.924   0.383  0.00  0.00    +0.210 HD
ENDBRANCH  22  30
ENDBRANCH  21  22
ENDBRANCH  15  21
TORSDOF 6
