REMARK  Name = ZINC08688065
REMARK  11 active torsions:
REMARK  status: ('A' for Active; 'I' for Inactive)
REMARK    1  A    between atoms: C_1  and  C_2
REMARK    2  A    between atoms: C_2  and  N_3
REMARK    3  A    between atoms: N_3  and  C_4
REMARK    4  A    between atoms: N_3  and  C_6
REMARK    5  A    between atoms: C_4  and  C_5
REMARK    6  A    between atoms: C_9  and  C_12
REMARK    7  A    between atoms: C_16  and  C_24
REMARK    8  A    between atoms: C_17  and  N_18
REMARK    9  A    between atoms: N_25  and  N_26
REMARK   10  A    between atoms: C_27  and  C_29
REMARK   11  A    between atoms: N_34  and  C_36
REMARK                            x       y       z     vdW  Elec       q    Type
REMARK                         _______ _______ _______ _____ _____    ______ ____
ROOT
ATOM      1  C   UNL     1       1.398  -6.118   0.809  0.00  0.00    +0.013 C 
ATOM      2  C   UNL     1       2.630  -6.632   1.006  0.00  0.00    -0.025 C 
ATOM      3  C   UNL     1       3.861  -5.861   1.427  0.00  0.00    +0.042 C 
ATOM      4  C   UNL     1       4.976  -6.918   1.501  0.00  0.00    +0.043 C 
ATOM      5  C   UNL     1       4.327  -8.225   1.122  0.00  0.00    -0.006 C 
ATOM      6  C   UNL     1       3.011  -8.031   0.856  0.00  0.00    +0.038 C 
ENDROOT
BRANCH   1  10
ATOM      7  C   UNL     1       0.805  -1.920   0.952  0.00  0.00    +0.013 A 
ATOM      8  C   UNL     1      -0.164  -2.770   1.456  0.00  0.00    +0.022 A 
ATOM      9  C   UNL     1       0.021  -4.135   1.413  0.00  0.00    +0.010 A 
ATOM     10  C   UNL     1       1.192  -4.662   0.858  0.00  0.00    -0.025 A 
ATOM     11  C   UNL     1       2.166  -3.796   0.350  0.00  0.00    +0.010 A 
ATOM     12  C   UNL     1       1.964  -2.433   0.395  0.00  0.00    +0.022 A 
BRANCH   7  13
ATOM     13  N   UNL     1       0.610  -0.537   0.999  0.00  0.00    -0.394 NA
ATOM     14  H   UNL     1       1.405  -0.071   0.588  0.00  0.00    +0.126 HD
BRANCH  13  16
ATOM     15  C   UNL     1      -0.394  -0.498  -1.235  0.00  0.00    +0.022 C 
ATOM     16  C   UNL     1      -0.604  -0.188   0.249  0.00  0.00    +0.081 C 
ENDBRANCH  13  16
BRANCH  13  17
ATOM     17  C   UNL     1       0.461  -0.111   2.397  0.00  0.00    +0.081 C 
ATOM     18  C   UNL     1       1.771  -0.359   3.148  0.00  0.00    +0.022 C 
ENDBRANCH  13  17
ENDBRANCH   7  13
ENDBRANCH   1  10
BRANCH   6  19
ATOM     19  N   UNL     1       2.133  -9.043   0.482  0.00  0.00    -0.325 N 
ATOM     20  C   UNL     1       1.809 -10.143   1.404  0.00  0.00    +0.133 C 
ATOM     21  C   UNL     1       0.283 -10.278   1.478  0.00  0.00    +0.178 C 
ATOM     22  O   UNL     1      -0.244 -10.383   0.153  0.00  0.00    -0.377 OA
ATOM     23  C   UNL     1      -0.009  -9.234  -0.663  0.00  0.00    +0.178 C 
ATOM     24  C   UNL     1       1.497  -9.042  -0.845  0.00  0.00    +0.133 C 
ENDBRANCH   6  19
BRANCH   5  25
ATOM     25  C   UNL     1       4.990  -9.468   1.059  0.00  0.00    +0.135 C 
ATOM     26  N   UNL     1       6.238  -9.562   1.431  0.00  0.00    -0.188 NA
BRANCH  26  27
ATOM     27  N   UNL     1       6.896 -10.797   1.369  0.00  0.00    -0.203 N 
ATOM     28  C   UNL     1       8.184 -10.895   1.753  0.00  0.00    +0.265 C 
ATOM     29  O   UNL     1       8.775  -9.910   2.155  0.00  0.00    -0.268 OA
ATOM     30  H   UNL     1       6.425 -11.583   1.048  0.00  0.00    +0.178 HD
BRANCH  28  31
ATOM     31  C   UNL     1       8.877 -12.194   1.687  0.00  0.00    +0.055 A 
ATOM     32  C   UNL     1       8.197 -13.343   1.215  0.00  0.00    +0.020 A 
ATOM     33  C   UNL     1       8.861 -14.528   1.165  0.00  0.00    +0.071 A 
ATOM     34  C   UNL     1      10.204 -14.589   1.581  0.00  0.00    +0.251 A 
ATOM     35  O   UNL     1      10.803 -15.650   1.537  0.00  0.00    -0.268 OA
ATOM     36  N   UNL     1      10.832 -13.485   2.026  0.00  0.00    -0.318 N 
ATOM     37  C   UNL     1      10.196 -12.300   2.080  0.00  0.00    +0.102 A 
ATOM     38  C   UNL     1      12.230 -13.574   2.453  0.00  0.00    +0.152 C 
ENDBRANCH  28  31
ENDBRANCH  26  27
ENDBRANCH   5  25
TORSDOF 8
