REMARK  Name = ZINC36164008
REMARK  7 active torsions:
REMARK  status: ('A' for Active; 'I' for Inactive)
REMARK    1  A    between atoms: C_1  and  C_2
REMARK    2  A    between atoms: C_2  and  C_3
REMARK    3  A    between atoms: C_2  and  N_4
REMARK    4  A    between atoms: C_14  and  O_30
REMARK    5  A    between atoms: N_18  and  C_21
REMARK    6  A    between atoms: C_21  and  C_22
REMARK    7  A    between atoms: O_30  and  C_31
REMARK                            x       y       z     vdW  Elec       q    Type
REMARK                         _______ _______ _______ _____ _____    ______ ____
ROOT
ATOM      1  N   UNL     1       0.711  -0.489   1.189  0.00  0.00    -0.297 N 
ATOM      2  C   UNL     1       0.051  -0.633   2.355  0.00  0.00    +0.304 C 
ATOM      3  O   UNL     1      -1.132  -0.361   2.423  0.00  0.00    -0.253 OA
ATOM      4  N   UNL     1       0.703  -1.080   3.447  0.00  0.00    -0.258 N 
ATOM      5  C   UNL     1       2.128  -1.416   3.421  0.00  0.00    +0.122 C 
ATOM      6  C   UNL     1       2.447  -2.559   4.432  0.00  0.00    +0.091 C 
ATOM      7  S   UNL     1       1.308  -2.041   5.796  0.00  0.00    -0.120 S 
ATOM      8  C   UNL     1       0.035  -1.254   4.735  0.00  0.00    +0.189 C 
ATOM      9  C   UNL     1      -0.431   0.040   5.332  0.00  0.00    +0.020 A 
ATOM     10  C   UNL     1       0.199   1.219   5.659  0.00  0.00    +0.054 A 
ATOM     11  C   UNL     1      -0.526   2.264   6.213  0.00  0.00    +0.121 A 
ATOM     12  C   UNL     1      -1.887   2.115   6.436  0.00  0.00    +0.047 A 
ATOM     13  C   UNL     1      -2.520   0.934   6.107  0.00  0.00    +0.027 A 
ATOM     14  C   UNL     1      -1.798  -0.118   5.551  0.00  0.00    +0.043 A 
ATOM     15  N   UNL     1      -2.209  -1.391   5.139  0.00  0.00    -0.264 N 
ATOM     16  C   UNL     1      -1.188  -2.119   4.646  0.00  0.00    +0.259 C 
ATOM     17  O   UNL     1      -1.245  -3.252   4.215  0.00  0.00    -0.272 OA
ATOM     18  H   UNL     1       1.654  -0.707   1.135  0.00  0.00    +0.150 HD
ENDROOT
BRANCH   1  20
ATOM     19  C   UNL     1      -0.019   1.526   0.010  0.00  0.00    +0.027 C 
ATOM     20  C   UNL     1       0.002  -0.004   0.002  0.00  0.00    +0.068 C 
ATOM     21  C   UNL     1       0.718  -0.497  -1.257  0.00  0.00    +0.027 C 
ENDBRANCH   1  20
BRANCH  11  22
ATOM     22  O   UNL     1       0.095   3.430   6.538  0.00  0.00    -0.495 OA
ATOM     23  C   UNL     1      -0.716   4.461   7.104  0.00  0.00    +0.277 C 
ENDBRANCH  11  22
BRANCH  15  24
ATOM     24  C   UNL     1      -3.589  -1.875   5.233  0.00  0.00    +0.154 C 
BRANCH  24  25
ATOM     25  C   UNL     1      -4.328  -1.534   3.965  0.00  0.00    +0.041 A 
ATOM     26  C   UNL     1      -4.998  -0.328   3.856  0.00  0.00    +0.131 A 
ATOM     27  C   UNL     1      -5.676  -0.016   2.690  0.00  0.00    +0.039 A 
ATOM     28  C   UNL     1      -5.685  -0.909   1.635  0.00  0.00    +0.006 A 
ATOM     29  C   UNL     1      -5.017  -2.114   1.742  0.00  0.00    +0.039 A 
ATOM     30  C   UNL     1      -4.332  -2.425   2.905  0.00  0.00    +0.131 A 
ATOM     31  F   UNL     1      -3.674  -3.600   3.008  0.00  0.00    -0.205 F 
ATOM     32  F   UNL     1      -4.990   0.545   4.887  0.00  0.00    -0.205 F 
ENDBRANCH  24  25
ENDBRANCH  15  24
TORSDOF 4
