REMARK  Name = ZINC18275793
REMARK  5 active torsions:
REMARK  status: ('A' for Active; 'I' for Inactive)
REMARK    1  A    between atoms: C_1  and  C_2
REMARK    2  A    between atoms: C_4  and  C_24
REMARK    3  A    between atoms: C_6  and  N_8
REMARK    4  A    between atoms: C_14  and  C_15
REMARK    5  A    between atoms: C_18  and  O_22
REMARK                            x       y       z     vdW  Elec       q    Type
REMARK                         _______ _______ _______ _____ _____    ______ ____
ROOT
ATOM      1  N   UNL     1       1.136  -3.630   2.022  0.00  0.00    -0.226 NA
ATOM      2  C   UNL     1       1.696  -3.071   3.072  0.00  0.00    +0.166 C 
ATOM      3  N   UNL     1       2.550  -1.991   3.114  0.00  0.00    -0.260 N 
ATOM      4  C   UNL     1       3.027  -1.553   4.267  0.00  0.00    +0.256 C 
ATOM      5  O   UNL     1       3.782  -0.600   4.322  0.00  0.00    -0.269 OA
ATOM      6  C   UNL     1       2.602  -2.271   5.483  0.00  0.00    +0.078 C 
ATOM      7  C   UNL     1       2.932  -2.041   6.779  0.00  0.00    +0.028 C 
ATOM      8  S   UNL     1       1.529  -3.522   4.791  0.00  0.00    -0.049 S 
ATOM      9  H   UNL     1       2.805  -1.547   2.289  0.00  0.00    +0.157 HD
ENDROOT
BRANCH   1  15
ATOM     10  C   UNL     1       1.582   0.213  -0.978  0.00  0.00    +0.044 C 
ATOM     11  C   UNL     1       1.612  -1.273  -0.726  0.00  0.00    -0.048 A 
ATOM     12  C   UNL     1       1.893  -2.143  -1.764  0.00  0.00    +0.006 A 
ATOM     13  C   UNL     1       1.923  -3.509  -1.542  0.00  0.00    -0.048 A 
ATOM     14  C   UNL     1       1.672  -4.011  -0.282  0.00  0.00    +0.031 A 
ATOM     15  C   UNL     1       1.387  -3.138   0.770  0.00  0.00    +0.067 A 
ATOM     16  C   UNL     1       1.365  -1.761   0.540  0.00  0.00    +0.031 A 
ATOM     17  C   UNL     1       2.231  -4.449  -2.679  0.00  0.00    +0.044 C 
ENDBRANCH   1  15
BRANCH   7  18
ATOM     18  C   UNL     1       2.520  -2.989   7.822  0.00  0.00    -0.023 A 
ATOM     19  C   UNL     1       2.106  -4.281   7.473  0.00  0.00    +0.011 A 
ATOM     20  C   UNL     1       1.721  -5.167   8.454  0.00  0.00    +0.047 A 
ATOM     21  C   UNL     1       1.743  -4.781   9.789  0.00  0.00    +0.131 A 
ATOM     22  C   UNL     1       2.153  -3.500  10.142  0.00  0.00    +0.060 A 
ATOM     23  C   UNL     1       2.545  -2.608   9.169  0.00  0.00    +0.027 A 
ATOM     24 BR   UNL     1       2.178  -2.985  11.961  0.00  0.00    -0.047 Br
BRANCH  21  25
ATOM     25  O   UNL     1       1.362  -5.659  10.753  0.00  0.00    -0.506 OA
ATOM     26  H   UNL     1       2.084  -6.199  11.101  0.00  0.00    +0.292 HD
ENDBRANCH  21  25
ENDBRANCH   7  18
TORSDOF 3
