REMARK  Name = ZINC38684605
REMARK  15 active torsions:
REMARK  status: ('A' for Active; 'I' for Inactive)
REMARK    1  A    between atoms: C_1  and  C_2
REMARK    2  A    between atoms: C_2  and  C_4
REMARK    3  A    between atoms: C_2  and  O_31
REMARK    4  A    between atoms: C_4  and  O_6
REMARK    5  A    between atoms: O_6  and  C_7
REMARK    6  A    between atoms: C_14  and  N_30
REMARK    7  A    between atoms: C_15  and  C_28
REMARK    8  A    between atoms: C_16  and  C_18
REMARK    9  A    between atoms: C_22  and  O_24
REMARK   10  A    between atoms: O_24  and  C_25
REMARK   11  A    between atoms: C_25  and  C_26
REMARK   12  A    between atoms: O_31  and  C_32
REMARK   13  A    between atoms: C_35  and  C_38
REMARK   14  A    between atoms: C_38  and  C_39
REMARK   15  A    between atoms: C_38  and  C_40
REMARK                            x       y       z     vdW  Elec       q    Type
REMARK                         _______ _______ _______ _____ _____    ______ ____
ROOT
ATOM      1  C   UNL     1       1.094  -0.482  -3.615  0.00  0.00    +0.135 A 
ATOM      2  C   UNL     1       2.200  -1.294  -3.404  0.00  0.00    +0.047 A 
ATOM      3  C   UNL     1       2.941  -1.744  -4.479  0.00  0.00    +0.012 A 
ATOM      4  C   UNL     1       2.585  -1.388  -5.768  0.00  0.00    +0.008 A 
ATOM      5  C   UNL     1       1.481  -0.578  -5.985  0.00  0.00    +0.138 A 
ATOM      6  C   UNL     1       0.732  -0.130  -4.904  0.00  0.00    +0.093 A 
ATOM      7  O   UNL     1       1.117  -0.220  -7.240  0.00  0.00    -0.441 OA
ATOM      8  C   UNL     1       2.003  -0.307  -8.246  0.00  0.00    +0.199 C 
ATOM      9  C   UNL     1       3.110  -1.082  -8.160  0.00  0.00    +0.098 C 
ATOM     10  C   UNL     1       3.405  -1.889  -6.927  0.00  0.00    +0.098 C 
ENDROOT
BRANCH  10  11
ATOM     11  C   UNL     1       3.073  -3.336  -7.186  0.00  0.00    -0.031 A 
ATOM     12  C   UNL     1       1.779  -3.700  -7.514  0.00  0.00    +0.005 A 
ATOM     13  C   UNL     1       1.471  -5.026  -7.752  0.00  0.00    +0.004 A 
ATOM     14  C   UNL     1       2.454  -5.992  -7.663  0.00  0.00    +0.045 A 
ATOM     15  C   UNL     1       3.752  -5.630  -7.334  0.00  0.00    +0.121 A 
ATOM     16  C   UNL     1       4.061  -4.297  -7.101  0.00  0.00    +0.050 A 
BRANCH  15  17
ATOM     17  O   UNL     1       4.722  -6.579  -7.245  0.00  0.00    -0.488 OA
BRANCH  17  18
ATOM     18  C   UNL     1       4.333  -7.929  -7.504  0.00  0.00    +0.256 C 
BRANCH  18  19
ATOM     19  C   UNL     1       5.531  -8.833  -7.360  0.00  0.00    +0.006 C 
ATOM     20  C   UNL     1       5.426  -9.960  -6.700  0.00  0.00    +0.007 C 
ENDBRANCH  18  19
ENDBRANCH  17  18
ENDBRANCH  15  17
ENDBRANCH  10  11
BRANCH   8  21
ATOM     21  N   UNL     1       1.780   0.409  -9.395  0.00  0.00    -0.328 N 
ATOM     22  H   UNL     1       0.991   0.969  -9.472  0.00  0.00    +0.145 HD
ATOM     23  H   UNL     1       2.410   0.356 -10.130  0.00  0.00    +0.145 HD
ENDBRANCH   8  21
BRANCH   9  24
ATOM     24  C   UNL     1       4.018  -1.134  -9.267  0.00  0.00    +0.101 C 
ATOM     25  N   UNL     1       4.738  -1.175 -10.144  0.00  0.00    -0.191 NA
ENDBRANCH   9  24
BRANCH   1  26
ATOM     26  O   UNL     1       0.364  -0.039  -2.558  0.00  0.00    -0.423 OA
BRANCH  26  27
ATOM     27  C   UNL     1       0.875   0.952  -1.810  0.00  0.00    +0.353 C 
ATOM     28  O   UNL     1       1.908   1.485  -2.138  0.00  0.00    -0.246 OA
BRANCH  27  30
ATOM     29  C   UNL     1      -1.191   2.012  -0.939  0.00  0.00    +0.064 C 
ATOM     30  C   UNL     1       0.160   1.400  -0.561  0.00  0.00    +0.279 C 
BRANCH  30  31
ATOM     31  O   UNL     1       0.952   2.377   0.117  0.00  0.00    -0.478 OA
BRANCH  31  32
ATOM     32  C   UNL     1       0.756   2.509   1.455  0.00  0.00    +0.122 A 
ATOM     33  C   UNL     1      -0.252   1.793   2.084  0.00  0.00    +0.046 A 
ATOM     34  C   UNL     1      -0.449   1.929   3.445  0.00  0.00    +0.007 A 
ATOM     35  C   UNL     1       0.358   2.777   4.180  0.00  0.00    -0.045 A 
ATOM     36  C   UNL     1       1.363   3.492   3.555  0.00  0.00    +0.007 A 
ATOM     37  C   UNL     1       1.568   3.356   2.196  0.00  0.00    +0.046 A 
BRANCH  35  38
ATOM     38  C   UNL     1       0.141   2.924   5.664  0.00  0.00    +0.013 C 
ATOM     39  C   UNL     1       1.410   2.505   6.409  0.00  0.00    +0.012 C 
ATOM     40  C   UNL     1      -0.184   4.383   5.990  0.00  0.00    +0.012 C 
ENDBRANCH  35  38
ENDBRANCH  31  32
ENDBRANCH  30  31
ENDBRANCH  27  30
ENDBRANCH  26  27
ENDBRANCH   1  26
TORSDOF 12
