REMARK  Name = ZINC39888168
REMARK  6 active torsions:
REMARK  status: ('A' for Active; 'I' for Inactive)
REMARK    1  A    between atoms: C_3  and  C_10
REMARK    2  A    between atoms: C_5  and  N_7
REMARK    3  A    between atoms: C_10  and  C_11
REMARK    4  A    between atoms: N_17  and  N_18
REMARK    5  A    between atoms: C_19  and  C_20
REMARK    6  A    between atoms: C_23  and  C_25
REMARK                            x       y       z     vdW  Elec       q    Type
REMARK                         _______ _______ _______ _____ _____    ______ ____
ROOT
ATOM      1  C   UNL     1       4.124   2.436   1.417  0.00  0.00    +0.144 C 
ATOM      2  C   UNL     1       5.445   3.188   1.455  0.00  0.00    +0.232 C 
ATOM      3  O   UNL     1       6.465   2.724   0.990  0.00  0.00    -0.274 OA
ATOM      4  N   UNL     1       5.412   4.380   2.025  0.00  0.00    -0.263 N 
ATOM      5  C   UNL     1       4.257   4.916   2.556  0.00  0.00    +0.183 C 
ATOM      6  N   UNL     1       4.098   6.082   3.146  0.00  0.00    -0.127 NA
ATOM      7  S   UNL     1       3.027   3.653   2.256  0.00  0.00    -0.075 S 
ATOM      8  H   UNL     1       6.231   4.898   2.073  0.00  0.00    +0.157 HD
ENDROOT
BRANCH   6   9
ATOM      9  N   UNL     1       5.103   6.880   3.281  0.00  0.00    -0.152 NA
ATOM     10  C   UNL     1       4.944   8.040   3.867  0.00  0.00    +0.181 C 
BRANCH  10  11
ATOM     11  C   UNL     1       6.049   8.916   4.016  0.00  0.00    +0.148 A 
ATOM     12  C   UNL     1       6.023  10.158   4.616  0.00  0.00    +0.051 A 
ATOM     13  C   UNL     1       7.324  10.670   4.542  0.00  0.00    +0.050 A 
ATOM     14  C   UNL     1       8.088   9.734   3.909  0.00  0.00    +0.136 A 
ATOM     15  O   UNL     1       7.310   8.678   3.601  0.00  0.00    -0.454 OA
BRANCH  14  16
ATOM     16  C   UNL     1       9.529   9.855   3.615  0.00  0.00    +0.017 A 
ATOM     17  C   UNL     1      10.229  11.002   3.997  0.00  0.00    +0.013 A 
ATOM     18  C   UNL     1      11.575  11.109   3.719  0.00  0.00    +0.021 A 
ATOM     19  C   UNL     1      12.234  10.083   3.062  0.00  0.00    +0.041 A 
ATOM     20  C   UNL     1      11.546   8.944   2.680  0.00  0.00    +0.021 A 
ATOM     21  C   UNL     1      10.200   8.821   2.957  0.00  0.00    +0.013 A 
ATOM     22 CL   UNL     1      13.929  10.226   2.715  0.00  0.00    -0.084 Cl
ENDBRANCH  14  16
ENDBRANCH  10  11
ENDBRANCH   6   9
BRANCH   1  23
ATOM     23  C   UNL     1       3.672   2.182  -0.022  0.00  0.00    +0.059 C 
BRANCH  23  26
ATOM     24  C   UNL     1      -0.017   1.378   0.010  0.00  0.00    +0.002 A 
ATOM     25  C   UNL     1       1.171   2.085   0.002  0.00  0.00    +0.004 A 
ATOM     26  C   UNL     1       2.377   1.411  -0.013  0.00  0.00    -0.044 A 
ATOM     27  C   UNL     1       2.396   0.028  -0.020  0.00  0.00    +0.036 A 
ATOM     28  C   UNL     1       1.209  -0.679  -0.012  0.00  0.00    +0.126 A 
ATOM     29  C   UNL     1       0.002  -0.004   0.002  0.00  0.00    +0.033 A 
BRANCH  28  30
ATOM     30  N   UNL     1       1.229  -2.159  -0.020  0.00  0.00    +0.056 N 
ATOM     31  O   UNL     1       2.284  -2.749  -0.035  0.00  0.00    -0.126 OA
ATOM     32  O   UNL     1       0.190  -2.778  -0.013  0.00  0.00    -0.126 OA
ENDBRANCH  28  30
ENDBRANCH  23  26
ENDBRANCH   1  23
TORSDOF 6
