REMARK  Name = ZINC09541947
REMARK  7 active torsions:
REMARK  status: ('A' for Active; 'I' for Inactive)
REMARK    1  A    between atoms: C_1  and  O_2
REMARK    2  A    between atoms: O_2  and  C_3
REMARK    3  A    between atoms: C_3  and  C_5
REMARK    4  A    between atoms: C_8  and  C_11
REMARK    5  A    between atoms: C_13  and  C_25
REMARK    6  A    between atoms: C_16  and  C_18
REMARK    7  A    between atoms: C_30  and  O_31
REMARK                            x       y       z     vdW  Elec       q    Type
REMARK                         _______ _______ _______ _____ _____    ______ ____
ROOT
ATOM      1  C   UNL     1       2.452   3.933  -0.001  0.00  0.00    +0.081 C 
ATOM      2  C   UNL     1       2.067   4.973   2.141  0.00  0.00    -0.028 C 
ATOM      3  C   UNL     1       3.378   4.435   2.722  0.00  0.00    +0.044 C 
ATOM      4  C   UNL     1       3.902   3.334   1.842  0.00  0.00    +0.040 C 
ATOM      5  N   UNL     1       3.485   3.135   0.649  0.00  0.00    -0.299 NA
ATOM      6  N   UNL     1       2.265   5.213   0.698  0.00  0.00    +0.401 N 
ATOM      7  H   UNL     1       1.441   5.692   0.316  0.00  0.00    -0.081 HD
ATOM      8  H   UNL     1       3.096   5.801   0.562  0.00  0.00    -0.081 HD
ENDROOT
BRANCH   4   9
ATOM      9  C   UNL     1       4.948   2.442   2.379  0.00  0.00    -0.003 A 
ATOM     10  C   UNL     1       5.433   2.631   3.675  0.00  0.00    +0.010 A 
ATOM     11  C   UNL     1       6.406   1.789   4.174  0.00  0.00    +0.002 A 
ATOM     12  C   UNL     1       6.910   0.767   3.389  0.00  0.00    +0.015 A 
ATOM     13  C   UNL     1       6.438   0.577   2.102  0.00  0.00    +0.018 A 
ATOM     14  C   UNL     1       5.460   1.408   1.593  0.00  0.00    +0.025 A 
ATOM     15 BR   UNL     1       7.133  -0.823   1.038  0.00  0.00    -0.050 Br
ENDBRANCH   4   9
BRANCH   1  19
ATOM     16  C   UNL     1      -1.230   1.759   0.017  0.00  0.00    +0.059 A 
ATOM     17  C   UNL     1      -0.013   1.076   0.008  0.00  0.00    +0.015 A 
ATOM     18  C   UNL     1       1.172   1.783   0.000  0.00  0.00    +0.004 A 
ATOM     19  C   UNL     1       1.155   3.167   0.008  0.00  0.00    -0.040 A 
ATOM     20  C   UNL     1      -0.048   3.850   0.023  0.00  0.00    +0.004 A 
ATOM     21  C   UNL     1      -1.240   3.155   0.030  0.00  0.00    +0.015 A 
BRANCH  16  22
ATOM     22  C   UNL     1      -2.502   1.008   0.020  0.00  0.00    +0.339 C 
ATOM     23  O   UNL     1      -2.491  -0.206   0.013  0.00  0.00    -0.245 OA
BRANCH  22  25
ATOM     24  C   UNL     1      -4.886   0.868   0.031  0.00  0.00    +0.280 C 
ATOM     25  O   UNL     1      -3.675   1.670   0.029  0.00  0.00    -0.464 OA
ENDBRANCH  22  25
ENDBRANCH  16  22
ENDBRANCH   1  19
BRANCH   2  26
ATOM     26  C   UNL     1       1.701   6.267   2.822  0.00  0.00    -0.019 A 
ATOM     27  C   UNL     1       1.998   7.474   2.219  0.00  0.00    +0.005 A 
ATOM     28  C   UNL     1       1.658   8.661   2.841  0.00  0.00    +0.000 A 
ATOM     29  C   UNL     1       1.030   8.643   4.073  0.00  0.00    +0.004 A 
ATOM     30  C   UNL     1       0.737   7.439   4.683  0.00  0.00    +0.045 A 
ATOM     31  C   UNL     1       1.072   6.247   4.058  0.00  0.00    +0.118 A 
BRANCH  31  32
ATOM     32  O   UNL     1       0.784   5.061   4.656  0.00  0.00    -0.507 OA
ATOM     33  H   UNL     1       1.488   4.729   5.230  0.00  0.00    +0.292 HD
ENDBRANCH  31  32
ENDBRANCH   2  26
TORSDOF 6
