REMARK  Name = ZINC12496186
REMARK  8 active torsions:
REMARK  status: ('A' for Active; 'I' for Inactive)
REMARK    1  A    between atoms: C_1  and  C_2
REMARK    2  A    between atoms: C_2  and  N_3
REMARK    3  A    between atoms: C_8  and  C_21
REMARK    4  A    between atoms: C_10  and  C_15
REMARK    5  A    between atoms: C_10  and  C_16
REMARK    6  A    between atoms: C_16  and  O_18
REMARK    7  A    between atoms: O_18  and  C_19
REMARK    8  A    between atoms: C_19  and  C_20
REMARK                            x       y       z     vdW  Elec       q    Type
REMARK                         _______ _______ _______ _____ _____    ______ ____
ROOT
ATOM      1  N   UNL     1       1.837   1.077   1.253  0.00  0.00    -0.242 N 
ATOM      2  C   UNL     1       0.814   0.855   2.131  0.00  0.00    +0.224 C 
ATOM      3  O   UNL     1       0.880   0.292   3.203  0.00  0.00    -0.275 OA
ATOM      4  C   UNL     1      -0.412   1.451   1.493  0.00  0.00    +0.077 C 
ATOM      5  C   UNL     1      -1.722   0.652   1.513  0.00  0.00    -0.027 C 
ATOM      6  C   UNL     1      -1.244   1.383  -0.737  0.00  0.00    +0.041 C 
ATOM      7  C   UNL     1      -0.013   1.086   0.008  0.00  0.00    +0.085 C 
ATOM      8  C   UNL     1       1.395   1.408  -0.004  0.00  0.00    +0.225 C 
ATOM      9  O   UNL     1       2.043   1.868  -0.919  0.00  0.00    -0.275 OA
ATOM     10  C   UNL     1      -1.303   2.867  -1.103  0.00  0.00    +0.002 C 
ATOM     11  N   UNL     1      -2.335   1.012   0.203  0.00  0.00    +0.395 N 
ATOM     12  H   UNL     1      -2.973   1.807   0.325  0.00  0.00    -0.083 HD
ATOM     13  H   UNL     1      -2.856   0.209  -0.169  0.00  0.00    -0.083 HD
ENDROOT
BRANCH   5  14
ATOM     14  C   UNL     1      -2.594   1.085   2.663  0.00  0.00    -0.061 A 
ATOM     15  C   UNL     1      -3.352   2.237   2.560  0.00  0.00    +0.003 A 
ATOM     16  C   UNL     1      -4.157   2.631   3.612  0.00  0.00    +0.020 A 
ATOM     17  C   UNL     1      -4.196   1.879   4.772  0.00  0.00    +0.041 A 
ATOM     18  C   UNL     1      -3.433   0.729   4.877  0.00  0.00    +0.020 A 
ATOM     19  C   UNL     1      -2.633   0.333   3.822  0.00  0.00    +0.003 A 
ATOM     20 CL   UNL     1      -5.200   2.378   6.097  0.00  0.00    -0.084 Cl
ENDBRANCH   5  14
BRANCH   1  22
ATOM     21  C   UNL     1       3.755   2.334   2.104  0.00  0.00    +0.025 C 
ATOM     22  C   UNL     1       3.253   0.974   1.615  0.00  0.00    +0.113 C 
ENDBRANCH   1  22
BRANCH   6  23
ATOM     23  C   UNL     1      -1.330   0.529  -1.975  0.00  0.00    +0.297 C 
ATOM     24  O   UNL     1      -0.322   0.093  -2.480  0.00  0.00    -0.252 OA
BRANCH  23  25
ATOM     25  O   UNL     1      -2.526   0.253  -2.519  0.00  0.00    -0.466 OA
BRANCH  25  26
ATOM     26  C   UNL     1      -2.533  -0.575  -3.711  0.00  0.00    +0.228 C 
ATOM     27  C   UNL     1      -3.974  -0.780  -4.182  0.00  0.00    +0.048 C 
ENDBRANCH  25  26
ENDBRANCH  23  25
ENDBRANCH   6  23
TORSDOF 5
