REMARK  Name = ZINC24832818
REMARK  9 active torsions:
REMARK  status: ('A' for Active; 'I' for Inactive)
REMARK    1  A    between atoms: C_1  and  C_2
REMARK    2  A    between atoms: C_2  and  C_25
REMARK    3  A    between atoms: N_5  and  C_9
REMARK    4  A    between atoms: C_9  and  C_10
REMARK    5  A    between atoms: C_13  and  C_15
REMARK    6  A    between atoms: C_18  and  O_23
REMARK    7  A    between atoms: C_19  and  O_21
REMARK    8  A    between atoms: O_21  and  C_22
REMARK    9  A    between atoms: O_23  and  C_24
REMARK                            x       y       z     vdW  Elec       q    Type
REMARK                         _______ _______ _______ _____ _____    ______ ____
ROOT
ATOM      1  C   UNL     1      -3.603   2.200  -2.809  0.00  0.00    +0.047 C 
ATOM      2  C   UNL     1      -2.141   1.775  -2.957  0.00  0.00    +0.136 C 
ATOM      3  C   UNL     1      -1.715   0.900  -1.794  0.00  0.00    +0.251 C 
ATOM      4  O   UNL     1      -2.174  -0.177  -1.482  0.00  0.00    -0.272 OA
ATOM      5  N   UNL     1      -0.721   1.571  -1.179  0.00  0.00    -0.218 N 
ATOM      6  C   UNL     1      -0.458   2.732  -1.789  0.00  0.00    +0.310 C 
ATOM      7  O   UNL     1       0.401   3.510  -1.421  0.00  0.00    -0.252 OA
ATOM      8  N   UNL     1      -1.249   2.943  -2.856  0.00  0.00    -0.281 N 
ATOM      9  H   UNL     1      -1.329   3.760  -3.588  0.00  0.00    +0.152 HD
ENDROOT
BRANCH   2  10
ATOM     10  C   UNL     1      -1.929   1.057  -4.265  0.00  0.00    +0.003 A 
ATOM     11  C   UNL     1      -1.016   1.544  -5.181  0.00  0.00    +0.009 A 
ATOM     12  C   UNL     1      -0.821   0.887  -6.380  0.00  0.00    +0.020 A 
ATOM     13  C   UNL     1      -1.540  -0.261  -6.665  0.00  0.00    +0.042 A 
ATOM     14  C   UNL     1      -2.454  -0.749  -5.749  0.00  0.00    +0.040 A 
ATOM     15  C   UNL     1      -2.644  -0.093  -4.546  0.00  0.00    +0.048 A 
ATOM     16 CL   UNL     1      -3.786  -0.710  -3.393  0.00  0.00    -0.083 Cl
ATOM     17 CL   UNL     1      -1.295  -1.087  -8.172  0.00  0.00    -0.083 Cl
ENDBRANCH   2  10
BRANCH   5  18
ATOM     18  C   UNL     1      -0.013   1.086   0.008  0.00  0.00    +0.174 C 
BRANCH  18  19
ATOM     19  C   UNL     1      -0.718   1.572   1.248  0.00  0.00    +0.067 A 
ATOM     20  C   UNL     1      -1.634   0.780   1.864  0.00  0.00    +0.072 A 
ATOM     21  S   UNL     1      -2.120   1.834   3.225  0.00  0.00    -0.075 S 
ATOM     22  C   UNL     1      -1.059   3.215   2.820  0.00  0.00    +0.109 A 
ATOM     23  N   UNL     1      -0.452   2.763   1.731  0.00  0.00    -0.242 NA
BRANCH  22  24
ATOM     24  C   UNL     1      -0.901   4.511   3.513  0.00  0.00    +0.011 A 
ATOM     25  C   UNL     1      -0.001   5.460   3.024  0.00  0.00    +0.014 A 
ATOM     26  C   UNL     1       0.142   6.671   3.669  0.00  0.00    +0.050 A 
ATOM     27  C   UNL     1      -0.600   6.945   4.809  0.00  0.00    +0.162 A 
ATOM     28  C   UNL     1      -1.496   6.001   5.304  0.00  0.00    +0.162 A 
ATOM     29  C   UNL     1      -1.648   4.787   4.659  0.00  0.00    +0.060 A 
BRANCH  28  30
ATOM     30  O   UNL     1      -2.222   6.273   6.421  0.00  0.00    -0.491 OA
ATOM     31  C   UNL     1      -3.123   5.259   6.872  0.00  0.00    +0.277 C 
ENDBRANCH  28  30
BRANCH  27  32
ATOM     32  O   UNL     1      -0.452   8.138   5.444  0.00  0.00    -0.491 OA
ATOM     33  C   UNL     1       0.484   9.060   4.882  0.00  0.00    +0.277 C 
ENDBRANCH  27  32
ENDBRANCH  22  24
ENDBRANCH  18  19
ENDBRANCH   5  18
TORSDOF 6
