REMARK  Name = ZINC67358372
REMARK  10 active torsions:
REMARK  status: ('A' for Active; 'I' for Inactive)
REMARK    1  A    between atoms: C_1  and  C_2
REMARK    2  A    between atoms: C_2  and  C_3
REMARK    3  A    between atoms: C_2  and  C_4
REMARK    4  A    between atoms: C_2  and  C_5
REMARK    5  A    between atoms: N_16  and  C_17
REMARK    6  A    between atoms: C_17  and  C_18
REMARK    7  A    between atoms: C_18  and  C_20
REMARK    8  A    between atoms: C_18  and  N_25
REMARK    9  A    between atoms: N_25  and  C_26
REMARK   10  A    between atoms: N_25  and  C_27
REMARK                            x       y       z     vdW  Elec       q    Type
REMARK                         _______ _______ _______ _____ _____    ______ ____
ROOT
ATOM      1  C   UNL     1      -0.051  -0.107   0.556  0.00  0.00    +0.221 C 
ATOM      2  O   UNL     1       0.756   0.599  -0.008  0.00  0.00    -0.275 OA
ATOM      3  N   UNL     1      -0.185  -1.399   0.195  0.00  0.00    -0.299 N 
ATOM      4  C   UNL     1       0.569  -1.952  -0.875  0.00  0.00    +0.109 C 
ATOM      5  C   UNL     1      -0.042  -1.713  -2.294  0.00  0.00    +0.038 C 
ATOM      6  C   UNL     1      -1.595  -1.838  -2.159  0.00  0.00    +0.111 C 
ATOM      7  N   UNL     1      -2.031  -2.852  -1.264  0.00  0.00    -0.284 N 
ATOM      8  C   UNL     1      -2.357  -2.434   0.124  0.00  0.00    +0.128 C 
ATOM      9  C   UNL     1      -1.123  -2.309   0.902  0.00  0.00    +0.126 C 
ATOM     10  C   UNL     1      -2.146  -4.136  -1.658  0.00  0.00    +0.302 C 
ATOM     11  O   UNL     1      -1.873  -4.448  -2.801  0.00  0.00    -0.253 OA
ATOM     12  N   UNL     1      -2.563  -5.074  -0.784  0.00  0.00    -0.300 N 
ATOM     13  H   UNL     1      -2.781  -4.825   0.127  0.00  0.00    +0.150 HD
ENDROOT
BRANCH   1  15
ATOM     14  C   UNL     1      -0.727   1.977   1.717  0.00  0.00    +0.020 C 
ATOM     15  C   UNL     1      -0.905   0.458   1.662  0.00  0.00    +0.039 C 
ATOM     16  C   UNL     1      -0.480  -0.154   2.998  0.00  0.00    +0.020 C 
ATOM     17  C   UNL     1      -2.374   0.126   1.393  0.00  0.00    +0.020 C 
ENDBRANCH   1  15
BRANCH  12  18
ATOM     18  C   UNL     1      -2.687  -6.470  -1.212  0.00  0.00    +0.095 C 
BRANCH  18  19
ATOM     19  C   UNL     1      -3.262  -7.305  -0.066  0.00  0.00    -0.014 C 
BRANCH  19  20
ATOM     20  C   UNL     1      -2.283  -7.326   1.079  0.00  0.00    -0.022 A 
ATOM     21  C   UNL     1      -2.292  -6.598   2.223  0.00  0.00    +0.009 A 
ATOM     22  C   UNL     1      -1.280  -6.787   3.145  0.00  0.00    +0.008 A 
ATOM     23  C   UNL     1      -0.309  -7.695   2.879  0.00  0.00    +0.045 A 
ATOM     24  S   UNL     1      -0.817  -8.323   1.287  0.00  0.00    -0.103 S 
ENDBRANCH  19  20
BRANCH  19  25
ATOM     25  N   UNL     1      -3.500  -8.677  -0.533  0.00  0.00    +0.382 N 
ATOM     26  C   UNL     1      -3.970  -9.501   0.589  0.00  0.00    -0.096 C 
ATOM     27  C   UNL     1      -4.518  -8.665  -1.591  0.00  0.00    -0.096 C 
ATOM     28  H   UNL     1      -2.641  -9.063  -0.896  0.00  0.00    -0.082 HD
ENDBRANCH  19  25
ENDBRANCH  18  19
ENDBRANCH  12  18
TORSDOF 5
