REMARK  Name = ZINC62738336
REMARK  8 active torsions:
REMARK  status: ('A' for Active; 'I' for Inactive)
REMARK    1  A    between atoms: C_1  and  C_2
REMARK    2  A    between atoms: N_5  and  C_10
REMARK    3  A    between atoms: C_15  and  C_16
REMARK    4  A    between atoms: C_16  and  N_17
REMARK    5  A    between atoms: N_17  and  C_18
REMARK    6  A    between atoms: C_18  and  C_19
REMARK    7  A    between atoms: C_18  and  C_20
REMARK    8  A    between atoms: C_18  and  C_21
REMARK                            x       y       z     vdW  Elec       q    Type
REMARK                         _______ _______ _______ _____ _____    ______ ____
ROOT
ATOM      1  C   UNL     1      -0.028  -1.446  -2.197  0.00  0.00    +0.032 A 
ATOM      2  C   UNL     1       0.401  -1.433  -3.518  0.00  0.00    +0.038 A 
ATOM      3  C   UNL     1      -0.362  -2.042  -4.496  0.00  0.00    +0.020 A 
ATOM      4  C   UNL     1      -1.553  -2.663  -4.160  0.00  0.00    +0.015 A 
ATOM      5  C   UNL     1      -1.982  -2.676  -2.846  0.00  0.00    +0.004 A 
ATOM      6  C   UNL     1      -1.221  -2.075  -1.863  0.00  0.00    -0.043 A 
ATOM      7 BR   UNL     1       0.221  -2.026  -6.295  0.00  0.00    -0.050 Br
ENDROOT
BRANCH   1  11
ATOM      8  C   UNL     1       3.900  -2.730  -0.340  0.00  0.00    +0.039 C 
ATOM      9  C   UNL     1       3.024  -1.713  -1.074  0.00  0.00    +0.132 C 
ATOM     10  C   UNL     1       1.630  -1.652  -0.404  0.00  0.00    +0.136 C 
ATOM     11  N   UNL     1       0.741  -0.832  -1.205  0.00  0.00    -0.327 N 
ATOM     12  C   UNL     1       0.619   0.625  -1.013  0.00  0.00    +0.107 C 
ATOM     13  C   UNL     1       1.995   1.268  -0.781  0.00  0.00    +0.047 C 
ATOM     14  C   UNL     1       3.016   0.625  -1.698  0.00  0.00    +0.162 C 
ATOM     15  O   UNL     1       3.617  -0.468  -1.016  0.00  0.00    -0.375 OA
ENDBRANCH   1  11
BRANCH   6  16
ATOM     16  C   UNL     1      -1.687  -2.096  -0.430  0.00  0.00    -0.044 C 
BRANCH  16  17
ATOM     17  N   UNL     1      -2.323  -0.813  -0.103  0.00  0.00    +0.385 N 
ATOM     18  H   UNL     1      -1.667  -0.062  -0.258  0.00  0.00    -0.085 HD
ATOM     19  H   UNL     1      -3.132  -0.679  -0.692  0.00  0.00    -0.085 HD
BRANCH  17  20
ATOM     20  C   UNL     1      -2.739  -0.817   1.306  0.00  0.00    -0.077 C 
ATOM     21  C   UNL     1      -1.510  -0.998   2.200  0.00  0.00    -0.011 C 
ATOM     22  C   UNL     1      -3.422   0.511   1.640  0.00  0.00    -0.011 C 
ATOM     23  C   UNL     1      -3.717  -1.968   1.545  0.00  0.00    -0.011 C 
ENDBRANCH  17  20
ENDBRANCH  16  17
ENDBRANCH   6  16
TORSDOF 4
