REMARK  Name = ZINC49919103
REMARK  4 active torsions:
REMARK  status: ('A' for Active; 'I' for Inactive)
REMARK    1  A    between atoms: C_1  and  O_2
REMARK    2  A    between atoms: O_2  and  C_3
REMARK    3  A    between atoms: C_6  and  C_10
REMARK    4  A    between atoms: C_10  and  C_15
REMARK                            x       y       z     vdW  Elec       q    Type
REMARK                         _______ _______ _______ _____ _____    ______ ____
ROOT
ATOM      1  C   UNL     1      -1.200  -0.637   0.010  0.00  0.00    +0.134 A 
ATOM      2  C   UNL     1      -2.375   0.101   0.019  0.00  0.00    +0.047 A 
ATOM      3  C   UNL     1      -3.596  -0.545   0.028  0.00  0.00    +0.012 A 
ATOM      4  C   UNL     1      -3.648  -1.927   0.027  0.00  0.00    +0.014 A 
ATOM      5  C   UNL     1      -2.480  -2.666   0.017  0.00  0.00    +0.027 A 
ATOM      6  C   UNL     1      -1.256  -2.024   0.003  0.00  0.00    +0.060 A 
ATOM      7 BR   UNL     1       0.342  -3.035  -0.018  0.00  0.00    -0.047 Br
ENDROOT
BRANCH   4   8
ATOM      8  C   UNL     1      -4.982  -2.629   0.036  0.00  0.00    +0.210 C 
ATOM      9  O   UNL     1      -4.868  -3.891  -0.642  0.00  0.00    -0.342 OA
ATOM     10  C   UNL     1      -6.133  -4.059  -1.326  0.00  0.00    +0.192 C 
ATOM     11  C   UNL     1      -6.459  -2.605  -1.747  0.00  0.00    +0.192 C 
ATOM     12  O   UNL     1      -5.954  -1.825  -0.645  0.00  0.00    -0.342 OA
BRANCH   8  13
ATOM     13  C   UNL     1      -5.429  -2.863   1.480  0.00  0.00    +0.178 C 
ATOM     14 CL   UNL     1      -7.025  -3.703   1.487  0.00  0.00    -0.120 Cl
ENDBRANCH   8  13
ENDBRANCH   4   8
BRANCH   1  16
ATOM     15  C   UNL     1      -0.017   1.425   0.010  0.00  0.00    +0.277 C 
ATOM     16  O   UNL     1       0.002  -0.004   0.002  0.00  0.00    -0.494 OA
ENDBRANCH   1  16
TORSDOF 3
