REMARK  Name = ZINC09243389
REMARK  7 active torsions:
REMARK  status: ('A' for Active; 'I' for Inactive)
REMARK    1  A    between atoms: C_1  and  C_2
REMARK    2  A    between atoms: C_4  and  C_10
REMARK    3  A    between atoms: C_5  and  O_9
REMARK    4  A    between atoms: C_7  and  C_8
REMARK    5  A    between atoms: N_18  and  C_28
REMARK    6  A    between atoms: C_19  and  C_21
REMARK    7  A    between atoms: C_28  and  C_29
REMARK                            x       y       z     vdW  Elec       q    Type
REMARK                         _______ _______ _______ _____ _____    ______ ____
ROOT
ATOM      1  C   UNL     1      -0.263  -2.972  -2.930  0.00  0.00    +0.102 A 
ATOM      2  C   UNL     1       0.018  -4.341  -2.869  0.00  0.00    +0.035 A 
ATOM      3  C   UNL     1       0.062  -4.775  -4.179  0.00  0.00    +0.126 A 
ATOM      4  N   UNL     1      -0.187  -3.677  -4.952  0.00  0.00    -0.272 N 
ATOM      5  H   UNL     1      -0.221  -3.673  -5.921  0.00  0.00    +0.189 HD
ATOM      6  N   UNL     1      -0.376  -2.649  -4.203  0.00  0.00    -0.173 NA
ATOM      7  C   UNL     1       0.354  -6.213  -4.185  0.00  0.00    +0.266 C 
ATOM      8  O   UNL     1       0.461  -6.896  -5.186  0.00  0.00    -0.268 OA
ATOM      9  N   UNL     1       0.489  -6.669  -2.926  0.00  0.00    -0.281 N 
ATOM     10  C   UNL     1       0.291  -5.542  -2.005  0.00  0.00    +0.142 C 
ENDROOT
BRANCH   1  14
ATOM     11  C   UNL     1       1.372  -1.257   1.464  0.00  0.00    +0.044 C 
ATOM     12  C   UNL     1       0.370  -1.225   0.339  0.00  0.00    -0.047 A 
ATOM     13  C   UNL     1       0.513  -2.082  -0.734  0.00  0.00    +0.017 A 
ATOM     14  C   UNL     1      -0.412  -2.053  -1.774  0.00  0.00    +0.044 A 
ATOM     15  C   UNL     1      -1.482  -1.155  -1.725  0.00  0.00    +0.126 A 
ATOM     16  C   UNL     1      -1.614  -0.300  -0.642  0.00  0.00    +0.049 A 
ATOM     17  C   UNL     1      -0.693  -0.341   0.388  0.00  0.00    -0.044 A 
ATOM     18  C   UNL     1      -0.844   0.586   1.566  0.00  0.00    +0.044 C 
BRANCH  15  19
ATOM     19  O   UNL     1      -2.390  -1.119  -2.735  0.00  0.00    -0.506 OA
ATOM     20  H   UNL     1      -3.179  -1.655  -2.575  0.00  0.00    +0.292 HD
ENDBRANCH  15  19
ENDBRANCH   1  14
BRANCH  10  21
ATOM     21  C   UNL     1      -0.886  -5.811  -1.103  0.00  0.00    -0.022 A 
ATOM     22  C   UNL     1      -2.046  -6.353  -1.624  0.00  0.00    +0.007 A 
ATOM     23  C   UNL     1      -3.126  -6.600  -0.797  0.00  0.00    +0.020 A 
ATOM     24  C   UNL     1      -3.046  -6.304   0.552  0.00  0.00    +0.041 A 
ATOM     25  C   UNL     1      -1.884  -5.762   1.073  0.00  0.00    +0.020 A 
ATOM     26  C   UNL     1      -0.803  -5.521   0.246  0.00  0.00    +0.007 A 
ATOM     27 CL   UNL     1      -4.402  -6.614   1.591  0.00  0.00    -0.084 Cl
ENDBRANCH  10  21
BRANCH   9  28
ATOM     28  C   UNL     1       0.782  -8.051  -2.541  0.00  0.00    +0.145 C 
BRANCH  28  29
ATOM     29  C   UNL     1       2.274  -8.243  -2.455  0.00  0.00    -0.012 A 
ATOM     30  C   UNL     1       2.996  -8.643  -3.569  0.00  0.00    +0.008 A 
ATOM     31  C   UNL     1       4.367  -8.807  -3.443  0.00  0.00    +0.020 A 
ATOM     32  C   UNL     1       4.964  -8.568  -2.220  0.00  0.00    +0.111 A 
ATOM     33  N   UNL     1       4.246  -8.190  -1.181  0.00  0.00    -0.263 NA
ATOM     34  C   UNL     1       2.941  -8.018  -1.266  0.00  0.00    +0.115 A 
ENDBRANCH  28  29
ENDBRANCH   9  28
TORSDOF 5
