REMARK  Name = ZINC38546140
REMARK  9 active torsions:
REMARK  status: ('A' for Active; 'I' for Inactive)
REMARK    1  A    between atoms: C_1  and  O_2
REMARK    2  A    between atoms: O_2  and  C_3
REMARK    3  A    between atoms: C_7  and  C_11
REMARK    4  A    between atoms: C_8  and  O_9
REMARK    5  A    between atoms: O_9  and  C_10
REMARK    6  A    between atoms: C_11  and  C_13
REMARK    7  A    between atoms: C_11  and  N_30
REMARK    8  A    between atoms: C_17  and  N_18
REMARK    9  A    between atoms: C_19  and  C_21
REMARK                            x       y       z     vdW  Elec       q    Type
REMARK                         _______ _______ _______ _____ _____    ______ ____
ROOT
ATOM      1  C   UNL     1      -3.128  -4.411  -0.402  0.00  0.00    -0.000 C 
ENDROOT
BRANCH   1   2
ATOM      2  C   UNL     1      -2.681  -4.871   0.962  0.00  0.00    -0.025 A 
ATOM      3  C   UNL     1      -1.554  -5.685   1.090  0.00  0.00    -0.033 A 
ATOM      4  C   UNL     1      -1.214  -6.059   2.353  0.00  0.00    -0.005 A 
ATOM      5  S   UNL     1      -2.445  -5.290   3.371  0.00  0.00    -0.078 S 
ATOM      6  C   UNL     1      -3.370  -4.490   2.070  0.00  0.00    +0.074 A 
ATOM      7  C   UNL     1      -0.066  -6.920   2.769  0.00  0.00    +0.043 C 
ATOM      8  C   UNL     1       0.479  -7.634   1.523  0.00  0.00    +0.005 C 
ATOM      9  C   UNL     1       0.648  -6.605   0.402  0.00  0.00    +0.005 C 
ATOM     10  C   UNL     1      -0.722  -6.150  -0.101  0.00  0.00    +0.036 C 
BRANCH   6  11
ATOM     11  N   UNL     1      -4.508  -3.686   2.165  0.00  0.00    -0.273 N 
ATOM     12  C   UNL     1      -5.136  -3.544   3.349  0.00  0.00    +0.284 C 
ATOM     13  O   UNL     1      -4.712  -4.118   4.335  0.00  0.00    -0.266 OA
ATOM     14  H   UNL     1      -4.845  -3.228   1.379  0.00  0.00    +0.156 HD
BRANCH  12  15
ATOM     15  C   UNL     1      -6.330  -2.699   3.450  0.00  0.00    +0.189 A 
ATOM     16  C   UNL     1      -7.055  -2.466   4.583  0.00  0.00    +0.054 A 
ATOM     17  C   UNL     1      -8.103  -1.605   4.221  0.00  0.00    +0.042 A 
ATOM     18  C   UNL     1      -7.973  -1.354   2.900  0.00  0.00    +0.196 A 
ATOM     19  O   UNL     1      -6.901  -2.011   2.439  0.00  0.00    -0.458 OA
ENDBRANCH  12  15
ENDBRANCH   6  11
ENDBRANCH   1   2
BRANCH   1  20
ATOM     20  N   UNL     1      -4.573  -4.632  -0.543  0.00  0.00    +0.387 N 
ATOM     21  C   UNL     1      -4.980  -4.331  -1.921  0.00  0.00    -0.078 C 
ATOM     22  C   UNL     1      -6.497  -4.482  -2.054  0.00  0.00    -0.019 C 
ATOM     23  C   UNL     1      -6.894  -5.919  -1.705  0.00  0.00    -0.004 C 
ATOM     24  C   UNL     1      -6.400  -6.246  -0.293  0.00  0.00    -0.019 C 
ATOM     25  C   UNL     1      -4.886  -6.030  -0.225  0.00  0.00    -0.078 C 
ATOM     26  H   UNL     1      -5.069  -4.024   0.091  0.00  0.00    -0.080 HD
ENDBRANCH   1  20
BRANCH   1  31
ATOM     27  C   UNL     1      -2.338  -1.055  -1.965  0.00  0.00    +0.162 A 
ATOM     28  C   UNL     1      -2.271  -0.243  -0.844  0.00  0.00    +0.049 A 
ATOM     29  C   UNL     1      -2.482  -0.780   0.412  0.00  0.00    +0.004 A 
ATOM     30  C   UNL     1      -2.759  -2.127   0.554  0.00  0.00    +0.006 A 
ATOM     31  C   UNL     1      -2.826  -2.943  -0.560  0.00  0.00    -0.011 A 
ATOM     32  C   UNL     1      -2.622  -2.410  -1.823  0.00  0.00    +0.163 A 
BRANCH  27  34
ATOM     33  C   UNL     1      -1.844   0.870  -3.271  0.00  0.00    +0.277 C 
ATOM     34  O   UNL     1      -2.131  -0.528  -3.202  0.00  0.00    -0.491 OA
ENDBRANCH  27  34
BRANCH  32  35
ATOM     35  O   UNL     1      -2.694  -3.210  -2.920  0.00  0.00    -0.491 OA
ATOM     36  C   UNL     1      -1.490  -3.864  -3.326  0.00  0.00    +0.277 C 
ENDBRANCH  32  35
ENDBRANCH   1  31
TORSDOF 7
