REMARK  Name = ZINC12996149
REMARK  6 active torsions:
REMARK  status: ('A' for Active; 'I' for Inactive)
REMARK    1  A    between atoms: C_1  and  C_2
REMARK    2  A    between atoms: C_2  and  C_3
REMARK    3  A    between atoms: C_6  and  C_9
REMARK    4  A    between atoms: C_11  and  C_14
REMARK    5  A    between atoms: C_14  and  N_15
REMARK    6  A    between atoms: C_24  and  C_26
REMARK                            x       y       z     vdW  Elec       q    Type
REMARK                         _______ _______ _______ _____ _____    ______ ____
ROOT
ATOM      1  N   UNL     1      -8.380  -4.221  -2.236  0.00  0.00    -0.278 NA
ATOM      2  C   UNL     1      -7.293  -4.527  -3.172  0.00  0.00    +0.121 C 
ATOM      3  C   UNL     1      -7.003  -6.005  -3.179  0.00  0.00    -0.030 A 
ATOM      4  C   UNL     1      -5.793  -6.438  -3.701  0.00  0.00    +0.005 A 
ATOM      5  C   UNL     1      -5.487  -7.784  -3.731  0.00  0.00    +0.000 A 
ATOM      6  C   UNL     1      -6.392  -8.706  -3.239  0.00  0.00    +0.000 A 
ATOM      7  C   UNL     1      -7.596  -8.277  -2.718  0.00  0.00    +0.004 A 
ATOM      8  C   UNL     1      -7.903  -6.924  -2.685  0.00  0.00    -0.041 A 
ATOM      9  C   UNL     1      -9.225  -6.501  -2.097  0.00  0.00    +0.063 C 
ATOM     10  C   UNL     1      -9.549  -5.068  -2.520  0.00  0.00    +0.148 C 
ENDROOT
BRANCH  10  11
ATOM     11  C   UNL     1     -10.738  -4.567  -1.741  0.00  0.00    +0.228 C 
ATOM     12  O   UNL     1     -10.582  -4.086  -0.639  0.00  0.00    -0.274 OA
ATOM     13  N   UNL     1     -11.975  -4.654  -2.269  0.00  0.00    -0.328 N 
ATOM     14  H   UNL     1     -12.100  -5.039  -3.151  0.00  0.00    +0.145 HD
ATOM     15  H   UNL     1     -12.740  -4.332  -1.768  0.00  0.00    +0.145 HD
ENDBRANCH  10  11
BRANCH   1  16
ATOM     16  C   UNL     1      -8.736  -2.797  -2.290  0.00  0.00    +0.184 C 
BRANCH  16  19
ATOM     17  C   UNL     1      -5.841  -0.812  -1.366  0.00  0.00    +0.202 A 
ATOM     18  N   UNL     1      -6.607  -1.483  -2.245  0.00  0.00    -0.190 NA
ATOM     19  C   UNL     1      -7.647  -1.982  -1.641  0.00  0.00    +0.242 A 
ATOM     20  O   UNL     1      -7.586  -1.648  -0.345  0.00  0.00    -0.336 OA
ATOM     21  N   UNL     1      -6.398  -0.888  -0.182  0.00  0.00    -0.056 NA
BRANCH  17  25
ATOM     22  C   UNL     1      -2.207   1.203  -2.273  0.00  0.00    -0.048 A 
ATOM     23  C   UNL     1      -2.688   1.200  -0.976  0.00  0.00    +0.004 A 
ATOM     24  C   UNL     1      -3.867   0.547  -0.676  0.00  0.00    +0.012 A 
ATOM     25  C   UNL     1      -4.573  -0.109  -1.682  0.00  0.00    +0.022 A 
ATOM     26  C   UNL     1      -4.084  -0.102  -2.987  0.00  0.00    +0.012 A 
ATOM     27  C   UNL     1      -2.907   0.558  -3.277  0.00  0.00    +0.004 A 
BRANCH  22  29
ATOM     28  C   UNL     1      -1.221   3.370  -2.967  0.00  0.00    +0.009 C 
ATOM     29  C   UNL     1      -0.920   1.917  -2.594  0.00  0.00    +0.032 C 
ENDBRANCH  22  29
ENDBRANCH  17  25
ENDBRANCH  16  19
ENDBRANCH   1  16
TORSDOF 5
