REMARK  Name = ZINC09752219
REMARK  8 active torsions:
REMARK  status: ('A' for Active; 'I' for Inactive)
REMARK    1  A    between atoms: C_1  and  C_2
REMARK    2  A    between atoms: C_2  and  N_3
REMARK    3  A    between atoms: C_16  and  S_17
REMARK    4  A    between atoms: S_17  and  C_18
REMARK    5  A    between atoms: C_18  and  C_19
REMARK    6  A    between atoms: N_21  and  C_22
REMARK    7  A    between atoms: C_24  and  C_29
REMARK    8  A    between atoms: C_27  and  C_28
REMARK                            x       y       z     vdW  Elec       q    Type
REMARK                         _______ _______ _______ _____ _____    ______ ____
ROOT
ATOM      1  N   UNL     1      -3.779   6.429   0.104  0.00  0.00    -0.285 N 
ATOM      2  C   UNL     1      -2.435   6.552   0.104  0.00  0.00    +0.298 A 
ATOM      3  O   UNL     1      -1.911   7.654   0.109  0.00  0.00    -0.264 OA
ATOM      4  C   UNL     1      -1.648   5.383   0.097  0.00  0.00    +0.219 A 
ATOM      5  C   UNL     1      -2.297   4.150   0.092  0.00  0.00    +0.125 A 
ATOM      6  C   UNL     1      -1.230   3.137   0.086  0.00  0.00    +0.046 A 
ATOM      7  C   UNL     1      -1.216   1.744   0.073  0.00  0.00    +0.014 A 
ATOM      8  C   UNL     1      -0.012   1.074   0.073  0.00  0.00    +0.001 A 
ATOM      9  C   UNL     1       1.181   1.781   0.076  0.00  0.00    +0.004 A 
ATOM     10  C   UNL     1       1.180   3.159   0.082  0.00  0.00    +0.047 A 
ATOM     11  C   UNL     1      -0.024   3.855   0.087  0.00  0.00    +0.138 A 
ATOM     12  O   UNL     1      -0.314   5.173   0.094  0.00  0.00    -0.448 OA
ATOM     13  N   UNL     1      -3.636   4.096   0.093  0.00  0.00    -0.219 NA
ATOM     14  C   UNL     1      -4.359   5.195   0.099  0.00  0.00    +0.173 A 
ENDROOT
BRANCH   1  16
ATOM     15  C   UNL     1      -4.911   8.039   1.555  0.00  0.00    +0.027 C 
ATOM     16  C   UNL     1      -4.620   7.629   0.111  0.00  0.00    +0.124 C 
ENDBRANCH   1  16
BRANCH  14  17
ATOM     17  S   UNL     1      -6.117   5.069   0.099  0.00  0.00    -0.078 S 
BRANCH  17  18
ATOM     18  C   UNL     1      -6.303   3.269   0.091  0.00  0.00    +0.173 C 
BRANCH  18  19
ATOM     19  C   UNL     1      -7.768   2.916   0.090  0.00  0.00    +0.227 C 
ATOM     20  O   UNL     1      -8.604   3.795   0.095  0.00  0.00    -0.275 OA
ATOM     21  N   UNL     1      -8.150   1.623   0.084  0.00  0.00    -0.285 N 
ATOM     22  H   UNL     1      -7.485   0.922  -0.000  0.00  0.00    +0.155 HD
BRANCH  21  23
ATOM     23  C   UNL     1      -9.504   1.293   0.200  0.00  0.00    +0.037 A 
ATOM     24  C   UNL     1     -10.384   2.172   0.818  0.00  0.00    +0.027 A 
ATOM     25  C   UNL     1     -11.722   1.846   0.926  0.00  0.00    -0.049 A 
ATOM     26  C   UNL     1     -12.183   0.640   0.430  0.00  0.00    +0.004 A 
ATOM     27  C   UNL     1     -11.309  -0.240  -0.181  0.00  0.00    +0.005 A 
ATOM     28  C   UNL     1      -9.971   0.083  -0.297  0.00  0.00    -0.029 A 
ATOM     29  C   UNL     1      -9.018  -0.876  -0.963  0.00  0.00    +0.045 C 
ATOM     30  C   UNL     1     -12.679   2.801   1.592  0.00  0.00    +0.044 C 
ENDBRANCH  21  23
ENDBRANCH  18  19
ENDBRANCH  17  18
ENDBRANCH  14  17
TORSDOF 5
