REMARK  Name = ZINC16846338
REMARK  9 active torsions:
REMARK  status: ('A' for Active; 'I' for Inactive)
REMARK    1  A    between atoms: C_1  and  C_2
REMARK    2  A    between atoms: C_2  and  S_3
REMARK    3  A    between atoms: S_3  and  C_4
REMARK    4  A    between atoms: C_13  and  C_16
REMARK    5  A    between atoms: C_19  and  S_22
REMARK    6  A    between atoms: S_22  and  C_23
REMARK    7  A    between atoms: C_23  and  C_24
REMARK    8  A    between atoms: N_26  and  C_27
REMARK    9  A    between atoms: C_31  and  C_33
REMARK                            x       y       z     vdW  Elec       q    Type
REMARK                         _______ _______ _______ _____ _____    ______ ____
ROOT
ATOM      1  C   UNL     1      -2.279   7.683   3.702  0.00  0.00    +0.178 A 
ATOM      2  N   UNL     1      -2.097   6.751   4.609  0.00  0.00    -0.216 NA
ATOM      3  C   UNL     1      -1.663   5.532   4.298  0.00  0.00    +0.115 A 
ATOM      4  C   UNL     1      -1.370   5.154   2.980  0.00  0.00    +0.056 A 
ATOM      5  C   UNL     1      -0.905   3.782   2.794  0.00  0.00    -0.024 A 
ATOM      6  C   UNL     1      -0.802   3.014   3.901  0.00  0.00    -0.004 A 
ATOM      7  S   UNL     1      -1.313   4.064   5.234  0.00  0.00    -0.073 S 
ATOM      8  C   UNL     1      -0.353   1.587   3.978  0.00  0.00    +0.043 C 
ATOM      9  C   UNL     1       0.331   1.223   2.652  0.00  0.00    +0.009 C 
ATOM     10  C   UNL     1      -0.557   1.693   1.496  0.00  0.00    -0.009 C 
ATOM     11  C   UNL     1      -0.548   3.220   1.421  0.00  0.00    +0.040 C 
ATOM     12  C   UNL     1      -0.027   1.117   0.181  0.00  0.00    +0.008 C 
ATOM     13  C   UNL     1      -1.577   6.209   1.964  0.00  0.00    +0.174 A 
ATOM     14  N   UNL     1      -2.029   7.443   2.377  0.00  0.00    -0.248 N 
ATOM     15  C   UNL     1      -2.123   8.196   1.239  0.00  0.00    +0.198 A 
ATOM     16  N   UNL     1      -1.746   7.435   0.238  0.00  0.00    -0.122 NA
ATOM     17  N   UNL     1      -1.423   6.263   0.664  0.00  0.00    -0.128 NA
ENDROOT
BRANCH   1  18
ATOM     18  S   UNL     1      -2.857   9.271   4.199  0.00  0.00    -0.088 S 
BRANCH  18  20
ATOM     19  C   UNL     1      -3.507  10.291   6.649  0.00  0.00    +0.016 C 
ATOM     20  C   UNL     1      -3.006   9.008   5.984  0.00  0.00    +0.074 C 
ENDBRANCH  18  20
ENDBRANCH   1  18
BRANCH  15  21
ATOM     21  S   UNL     1      -2.651   9.874   1.136  0.00  0.00    -0.076 S 
BRANCH  21  22
ATOM     22  C   UNL     1      -2.543  10.260  -0.633  0.00  0.00    +0.173 C 
BRANCH  22  23
ATOM     23  C   UNL     1      -2.973  11.686  -0.864  0.00  0.00    +0.227 C 
ATOM     24  O   UNL     1      -3.318  12.374   0.074  0.00  0.00    -0.275 OA
ATOM     25  N   UNL     1      -2.975  12.197  -2.111  0.00  0.00    -0.285 N 
ATOM     26  H   UNL     1      -2.627  11.673  -2.850  0.00  0.00    +0.155 HD
BRANCH  25  27
ATOM     27  C   UNL     1      -3.477  13.482  -2.340  0.00  0.00    +0.034 A 
ATOM     28  C   UNL     1      -4.537  13.960  -1.581  0.00  0.00    +0.023 A 
ATOM     29  C   UNL     1      -5.028  15.232  -1.806  0.00  0.00    +0.002 A 
ATOM     30  C   UNL     1      -4.472  16.024  -2.794  0.00  0.00    +0.003 A 
ATOM     31  C   UNL     1      -3.420  15.549  -3.555  0.00  0.00    -0.049 A 
ATOM     32  C   UNL     1      -2.921  14.280  -3.331  0.00  0.00    +0.026 A 
ATOM     33  C   UNL     1      -2.817  16.415  -4.630  0.00  0.00    +0.044 C 
ENDBRANCH  25  27
ENDBRANCH  22  23
ENDBRANCH  21  22
ENDBRANCH  15  21
TORSDOF 6
