REMARK  Name = ZINC39882038
REMARK  14 active torsions:
REMARK  status: ('A' for Active; 'I' for Inactive)
REMARK    1  A    between atoms: C_1  and  C_2
REMARK    2  A    between atoms: C_2  and  C_3
REMARK    3  A    between atoms: C_2  and  C_4
REMARK    4  A    between atoms: C_2  and  C_5
REMARK    5  A    between atoms: N_7  and  C_8
REMARK    6  A    between atoms: C_8  and  C_19
REMARK    7  A    between atoms: C_9  and  C_10
REMARK    8  A    between atoms: C_13  and  N_16
REMARK    9  A    between atoms: N_16  and  C_17
REMARK   10  A    between atoms: N_16  and  C_18
REMARK   11  A    between atoms: N_21  and  C_22
REMARK   12  A    between atoms: C_22  and  C_23
REMARK   13  A    between atoms: C_22  and  C_24
REMARK   14  A    between atoms: C_22  and  C_25
REMARK                            x       y       z     vdW  Elec       q    Type
REMARK                         _______ _______ _______ _____ _____    ______ ____
ROOT
ATOM      1  C   UNL     1       1.425  -2.394  -2.594  0.00  0.00    +0.096 C 
ATOM      2  C   UNL     1       1.797  -3.695  -2.637  0.00  0.00    +0.036 C 
ENDROOT
BRANCH   2   3
ATOM      3  C   UNL     1       2.865  -4.124  -3.549  0.00  0.00    -0.023 A 
ATOM      4  C   UNL     1       3.928  -3.260  -3.842  0.00  0.00    +0.010 A 
ATOM      5  C   UNL     1       4.926  -3.667  -4.697  0.00  0.00    +0.023 A 
ATOM      6  C   UNL     1       4.881  -4.934  -5.271  0.00  0.00    +0.029 A 
ATOM      7  C   UNL     1       3.827  -5.796  -4.983  0.00  0.00    +0.023 A 
ATOM      8  C   UNL     1       2.827  -5.400  -4.125  0.00  0.00    +0.010 A 
BRANCH   6   9
ATOM      9  N   UNL     1       5.895  -5.341  -6.136  0.00  0.00    -0.336 N 
ATOM     10  C   UNL     1       7.005  -4.435  -6.440  0.00  0.00    +0.129 C 
ATOM     11  C   UNL     1       5.849  -6.674  -6.741  0.00  0.00    +0.129 C 
ENDBRANCH   6   9
ENDBRANCH   2   3
BRANCH   1  14
ATOM     12  C   UNL     1       0.064  -0.687  -1.644  0.00  0.00    +0.223 C 
ATOM     13  O   UNL     1       0.513   0.102  -2.449  0.00  0.00    -0.275 OA
ATOM     14  N   UNL     1       0.514  -1.957  -1.623  0.00  0.00    -0.281 N 
ATOM     15  H   UNL     1       0.208  -2.569  -0.935  0.00  0.00    +0.155 HD
BRANCH  12  17
ATOM     16  C   UNL     1      -1.327   1.227  -0.904  0.00  0.00    +0.020 C 
ATOM     17  C   UNL     1      -0.998  -0.248  -0.669  0.00  0.00    +0.039 C 
ATOM     18  C   UNL     1      -0.485  -0.434   0.760  0.00  0.00    +0.020 C 
ATOM     19  C   UNL     1      -2.258  -1.091  -0.873  0.00  0.00    +0.020 C 
ENDBRANCH  12  17
ENDBRANCH   1  14
BRANCH   1  20
ATOM     20  C   UNL     1       1.975  -1.441  -3.565  0.00  0.00    +0.259 C 
ATOM     21  O   UNL     1       2.794  -0.614  -3.209  0.00  0.00    -0.269 OA
ATOM     22  N   UNL     1       1.574  -1.481  -4.851  0.00  0.00    -0.306 N 
ATOM     23  H   UNL     1       0.869  -2.091  -5.120  0.00  0.00    +0.150 HD
BRANCH  22  24
ATOM     24  C   UNL     1       2.202  -0.604  -5.842  0.00  0.00    +0.027 C 
ATOM     25  C   UNL     1       3.700  -0.905  -5.913  0.00  0.00    +0.031 C 
ATOM     26  C   UNL     1       1.568  -0.847  -7.213  0.00  0.00    +0.031 C 
ATOM     27  C   UNL     1       1.994   0.856  -5.436  0.00  0.00    +0.031 C 
ENDBRANCH  22  24
ENDBRANCH   1  20
TORSDOF 6
