REMARK  Name = ZINC39724396
REMARK  16 active torsions:
REMARK  status: ('A' for Active; 'I' for Inactive)
REMARK    1  A    between atoms: C_1  and  C_2
REMARK    2  A    between atoms: C_2  and  C_3
REMARK    3  A    between atoms: C_6  and  O_9
REMARK    4  A    between atoms: O_9  and  C_10
REMARK    5  A    between atoms: C_10  and  C_11
REMARK    6  A    between atoms: C_15  and  O_37
REMARK    7  A    between atoms: C_16  and  O_35
REMARK    8  A    between atoms: N_21  and  C_22
REMARK    9  A    between atoms: C_22  and  N_24
REMARK   10  A    between atoms: N_24  and  C_25
REMARK   11  A    between atoms: C_26  and  C_33
REMARK   12  A    between atoms: C_30  and  C_31
REMARK   13  A    between atoms: C_31  and  C_32
REMARK   14  A    between atoms: C_33  and  C_34
REMARK   15  A    between atoms: O_35  and  C_36
REMARK   16  A    between atoms: O_37  and  C_38
REMARK                            x       y       z     vdW  Elec       q    Type
REMARK                         _______ _______ _______ _____ _____    ______ ____
ROOT
ATOM      1  C   UNL     1       2.803  -2.128   7.323  0.00  0.00    +0.143 C 
ATOM      2  C   UNL     1       1.948  -2.211   8.563  0.00  0.00    -0.017 A 
ATOM      3  C   UNL     1       0.877  -3.095   8.550  0.00  0.00    +0.055 A 
ATOM      4  C   UNL     1       0.061  -3.226   9.659  0.00  0.00    +0.162 A 
ATOM      5  C   UNL     1       0.319  -2.464  10.795  0.00  0.00    +0.162 A 
ATOM      6  C   UNL     1       1.383  -1.583  10.801  0.00  0.00    +0.053 A 
ATOM      7  C   UNL     1       2.198  -1.450   9.682  0.00  0.00    -0.037 A 
ATOM      8  C   UNL     1       3.322  -0.449   9.755  0.00  0.00    +0.054 C 
ATOM      9  C   UNL     1       4.384  -0.746   8.698  0.00  0.00    +0.112 C 
ATOM     10  N   UNL     1       3.696  -0.968   7.416  0.00  0.00    -0.302 N 
ENDROOT
BRANCH  10  11
ATOM     11  C   UNL     1       3.881  -0.140   6.369  0.00  0.00    +0.138 C 
ATOM     12  S   UNL     1       3.206  -0.525   4.844  0.00  0.00    -0.018 S 
BRANCH  11  13
ATOM     13  N   UNL     1       4.596   0.992   6.523  0.00  0.00    -0.296 N 
ATOM     14  H   UNL     1       4.144   1.848   6.576  0.00  0.00    +0.154 HD
BRANCH  13  15
ATOM     15  C   UNL     1       5.991   0.931   6.608  0.00  0.00    +0.039 A 
ATOM     16  C   UNL     1       6.683   1.857   7.379  0.00  0.00    -0.026 A 
ATOM     17  C   UNL     1       8.060   1.794   7.461  0.00  0.00    +0.005 A 
ATOM     18  C   UNL     1       8.751   0.810   6.776  0.00  0.00    +0.001 A 
ATOM     19  C   UNL     1       8.065  -0.113   6.008  0.00  0.00    +0.005 A 
ATOM     20  C   UNL     1       6.687  -0.059   5.926  0.00  0.00    -0.026 A 
BRANCH  20  21
ATOM     21  C   UNL     1       5.941  -1.069   5.094  0.00  0.00    +0.033 C 
ATOM     22  C   UNL     1       5.608  -0.460   3.730  0.00  0.00    +0.009 C 
ENDBRANCH  20  21
BRANCH  16  23
ATOM     23  C   UNL     1       5.931   2.929   8.124  0.00  0.00    +0.033 C 
ATOM     24  C   UNL     1       5.520   2.401   9.500  0.00  0.00    +0.009 C 
ENDBRANCH  16  23
ENDBRANCH  13  15
ENDBRANCH  11  13
ENDBRANCH  10  11
BRANCH   5  25
ATOM     25  O   UNL     1      -0.473  -2.586  11.893  0.00  0.00    -0.491 OA
ATOM     26  C   UNL     1      -0.148  -1.772  13.022  0.00  0.00    +0.277 C 
ENDBRANCH   5  25
BRANCH   4  27
ATOM     27  O   UNL     1      -0.987  -4.092   9.639  0.00  0.00    -0.491 OA
ATOM     28  C   UNL     1      -1.189  -4.839   8.437  0.00  0.00    +0.277 C 
ENDBRANCH   4  27
BRANCH   1  29
ATOM     29  C   UNL     1       1.905  -1.982   6.093  0.00  0.00    +0.256 C 
BRANCH  29  30
ATOM     30  O   UNL     1       2.557  -2.550   4.956  0.00  0.00    -0.490 OA
BRANCH  30  34
ATOM     31  C   UNL     1       0.447  -2.590   1.412  0.00  0.00    -0.047 A 
ATOM     32  C   UNL     1       1.764  -3.010   1.435  0.00  0.00    +0.007 A 
ATOM     33  C   UNL     1       2.473  -2.997   2.621  0.00  0.00    +0.046 A 
ATOM     34  C   UNL     1       1.862  -2.563   3.788  0.00  0.00    +0.121 A 
ATOM     35  C   UNL     1       0.541  -2.142   3.762  0.00  0.00    +0.046 A 
ATOM     36  C   UNL     1      -0.162  -2.151   2.573  0.00  0.00    +0.007 A 
BRANCH  31  38
ATOM     37  C   UNL     1      -0.145  -1.265  -0.599  0.00  0.00    +0.009 C 
ATOM     38  C   UNL     1      -0.324  -2.605   0.117  0.00  0.00    +0.032 C 
ENDBRANCH  31  38
ENDBRANCH  30  34
ENDBRANCH  29  30
ENDBRANCH   1  29
TORSDOF 11
