REMARK  Name = ZINC00818140
REMARK  5 active torsions:
REMARK  status: ('A' for Active; 'I' for Inactive)
REMARK    1  A    between atoms: C_1  and  C_2
REMARK    2  A    between atoms: C_5  and  O_24
REMARK    3  A    between atoms: C_6  and  C_8
REMARK    4  A    between atoms: C_12  and  C_23
REMARK    5  A    between atoms: C_20  and  C_22
REMARK                            x       y       z     vdW  Elec       q    Type
REMARK                         _______ _______ _______ _____ _____    ______ ____
ROOT
ATOM      1  C   UNL     1       0.052  -2.841   2.493  0.00  0.00    +0.226 C 
ATOM      2  N   UNL     1      -0.535  -2.010   3.554  0.00  0.00    -0.318 N 
ATOM      3  C   UNL     1       0.207  -1.009   4.178  0.00  0.00    +0.041 A 
ATOM      4  C   UNL     1      -0.394   0.127   4.690  0.00  0.00    -0.029 A 
ATOM      5  C   UNL     1       0.375   1.093   5.313  0.00  0.00    +0.005 A 
ATOM      6  C   UNL     1       1.745   0.937   5.432  0.00  0.00    +0.001 A 
ATOM      7  C   UNL     1       2.365  -0.190   4.923  0.00  0.00    +0.012 A 
ATOM      8  C   UNL     1       1.604  -1.159   4.292  0.00  0.00    +0.021 A 
ATOM      9  C   UNL     1       2.183  -2.378   3.695  0.00  0.00    +0.073 A 
ATOM     10  N   UNL     1       1.434  -3.170   2.851  0.00  0.00    -0.238 N 
ATOM     11  N   UNL     1       2.230  -4.240   2.461  0.00  0.00    -0.174 NA
ATOM     12  C   UNL     1       3.409  -4.108   3.026  0.00  0.00    +0.061 A 
ATOM     13  C   UNL     1       3.405  -2.942   3.807  0.00  0.00    +0.052 A 
ATOM     14  C   UNL     1       4.571  -5.053   2.862  0.00  0.00    +0.067 C 
ATOM     15  C   UNL     1      -1.885   0.312   4.569  0.00  0.00    +0.045 C 
ATOM     16  H   UNL     1      -1.455  -2.160   3.823  0.00  0.00    +0.148 HD
ENDROOT
BRANCH   1  22
ATOM     17  C   UNL     1      -0.018   1.503   0.010  0.00  0.00    +0.044 C 
ATOM     18  C   UNL     1       0.002  -0.004   0.002  0.00  0.00    -0.050 A 
ATOM     19  C   UNL     1       0.006  -0.688  -1.200  0.00  0.00    +0.007 A 
ATOM     20  C   UNL     1       0.024  -2.069  -1.210  0.00  0.00    +0.046 A 
ATOM     21  C   UNL     1       0.039  -2.770  -0.013  0.00  0.00    +0.124 A 
ATOM     22  C   UNL     1       0.036  -2.082   1.191  0.00  0.00    +0.036 A 
ATOM     23  C   UNL     1       0.023  -0.701   1.196  0.00  0.00    +0.014 A 
BRANCH  21  24
ATOM     24  O   UNL     1       0.057  -4.129  -0.021  0.00  0.00    -0.506 OA
ATOM     25  H   UNL     1       0.945  -4.511  -0.027  0.00  0.00    +0.292 HD
ENDBRANCH  21  24
ENDBRANCH   1  22
TORSDOF 2
