REMARK  Name = ZINC39990849
REMARK  7 active torsions:
REMARK  status: ('A' for Active; 'I' for Inactive)
REMARK    1  A    between atoms: C_1  and  C_2
REMARK    2  A    between atoms: C_2  and  C_4
REMARK    3  A    between atoms: C_2  and  N_15
REMARK    4  A    between atoms: N_15  and  C_16
REMARK    5  A    between atoms: C_16  and  C_17
REMARK    6  A    between atoms: C_17  and  C_19
REMARK    7  A    between atoms: C_17  and  C_25
REMARK                            x       y       z     vdW  Elec       q    Type
REMARK                         _______ _______ _______ _____ _____    ______ ____
ROOT
ATOM      1  C   UNL     1      -1.711  -0.641  -1.220  0.00  0.00    -0.072 C 
ENDROOT
BRANCH   1   2
ATOM      2  N   UNL     1      -0.837  -0.898  -0.068  0.00  0.00    +0.387 N 
ATOM      3  H   UNL     1      -0.603  -1.879  -0.036  0.00  0.00    -0.085 HD
ATOM      4  H   UNL     1      -1.315  -0.639   0.782  0.00  0.00    -0.085 HD
BRANCH   2   6
ATOM      5  C   UNL     1       0.050   1.384  -0.122  0.00  0.00    -0.004 C 
ATOM      6  C   UNL     1       0.392  -0.105  -0.200  0.00  0.00    +0.013 C 
BRANCH   6   7
ATOM      7  C   UNL     1       1.341  -0.461   0.916  0.00  0.00    +0.206 C 
ATOM      8  O   UNL     1       0.928  -1.026   1.907  0.00  0.00    -0.277 OA
ATOM      9  N   UNL     1       2.648  -0.150   0.814  0.00  0.00    -0.272 N 
ATOM     10  C   UNL     1       3.246   0.617  -0.282  0.00  0.00    +0.118 C 
ATOM     11  C   UNL     1       4.744   0.701   0.055  0.00  0.00    +0.056 C 
ATOM     12  C   UNL     1       4.883  -0.050   1.360  0.00  0.00    -0.024 A 
ATOM     13  C   UNL     1       3.632  -0.508   1.741  0.00  0.00    +0.039 A 
ATOM     14  C   UNL     1       3.508  -1.232   2.928  0.00  0.00    +0.024 A 
ATOM     15  C   UNL     1       4.617  -1.480   3.710  0.00  0.00    +0.002 A 
ATOM     16  C   UNL     1       5.860  -1.015   3.323  0.00  0.00    +0.000 A 
ATOM     17  C   UNL     1       5.992  -0.305   2.144  0.00  0.00    +0.005 A 
ENDBRANCH   6   7
ENDBRANCH   2   6
ENDBRANCH   1   2
BRANCH   1  18
ATOM     18  C   UNL     1      -2.931  -1.562  -1.151  0.00  0.00    +0.018 C 
BRANCH  18  19
ATOM     19  C   UNL     1      -3.771  -1.194   0.045  0.00  0.00    -0.020 A 
ATOM     20  C   UNL     1      -4.110  -2.064   1.173  0.00  0.00    +0.003 A 
ATOM     21  C   UNL     1      -3.810  -3.388   1.502  0.00  0.00    +0.010 A 
ATOM     22  C   UNL     1      -4.292  -3.924   2.663  0.00  0.00    +0.001 A 
ATOM     23  C   UNL     1      -5.078  -3.164   3.518  0.00  0.00    +0.002 A 
ATOM     24  C   UNL     1      -5.386  -1.856   3.213  0.00  0.00    +0.026 A 
ATOM     25  C   UNL     1      -4.906  -1.290   2.037  0.00  0.00    +0.047 A 
ATOM     26  N   UNL     1      -5.033  -0.044   1.464  0.00  0.00    -0.360 N 
ATOM     27  C   UNL     1      -4.346  -0.004   0.281  0.00  0.00    +0.087 A 
ATOM     28  H   UNL     1      -5.532   0.696   1.844  0.00  0.00    +0.165 HD
ENDBRANCH  18  19
BRANCH  18  29
ATOM     29  C   UNL     1      -3.762  -1.404  -2.426  0.00  0.00    +0.060 C 
ATOM     30  C   UNL     1      -4.940  -2.414  -2.466  0.00  0.00    +0.042 C 
ATOM     31  C   UNL     1      -5.141  -2.939  -3.851  0.00  0.00    -0.019 C 
ATOM     32  C   UNL     1      -4.175  -2.824  -4.742  0.00  0.00    +0.036 C 
ATOM     33  S   UNL     1      -2.838  -1.984  -3.911  0.00  0.00    -0.129 S 
ENDBRANCH  18  29
ENDBRANCH   1  18
TORSDOF 6
