REMARK  Name = ZINC32106174
REMARK  3 active torsions:
REMARK  status: ('A' for Active; 'I' for Inactive)
REMARK    1  A    between atoms: C_1  and  C_2
REMARK    2  A    between atoms: N_20  and  C_21
REMARK    3  A    between atoms: C_21  and  C_22
REMARK                            x       y       z     vdW  Elec       q    Type
REMARK                         _______ _______ _______ _____ _____    ______ ____
ROOT
ATOM      1  C   UNL     1      -0.018   1.503   0.010  0.00  0.00    +0.045 C 
ATOM      2  C   UNL     1       0.002  -0.004   0.002  0.00  0.00    -0.029 A 
ATOM      3  C   UNL     1       0.006  -0.720  -1.185  0.00  0.00    +0.005 A 
ATOM      4  C   UNL     1       0.026  -2.099  -1.207  0.00  0.00    +0.001 A 
ATOM      5  C   UNL     1       0.042  -2.841  -0.030  0.00  0.00    +0.007 A 
ATOM      6  C   UNL     1       0.037  -2.138   1.154  0.00  0.00    -0.006 A 
ATOM      7  C   UNL     1       0.023  -0.737   1.189  0.00  0.00    +0.041 A 
ATOM      8  N   UNL     1       0.029  -0.289   2.498  0.00  0.00    -0.284 N 
ATOM      9  C   UNL     1       0.049  -1.308   3.382  0.00  0.00    +0.233 C 
ATOM     10  O   UNL     1       0.057  -1.215   4.591  0.00  0.00    -0.274 OA
ATOM     11  C   UNL     1       0.049  -2.591   2.579  0.00  0.00    +0.111 C 
ATOM     12  C   UNL     1      -1.186  -3.429   2.902  0.00  0.00    +0.122 C 
ATOM     13  C   UNL     1      -1.017  -4.849   2.436  0.00  0.00    +0.220 C 
ATOM     14  O   UNL     1      -1.975  -5.434   1.978  0.00  0.00    -0.275 OA
ATOM     15  N   UNL     1       0.167  -5.493   2.512  0.00  0.00    -0.270 N 
ATOM     16  C   UNL     1       1.302  -4.756   2.849  0.00  0.00    +0.128 A 
ATOM     17  C   UNL     1       1.286  -3.385   2.892  0.00  0.00    +0.032 A 
ATOM     18  C   UNL     1       2.553  -2.955   3.256  0.00  0.00    +0.141 A 
ATOM     19  N   UNL     1       3.313  -4.013   3.417  0.00  0.00    -0.177 NA
ATOM     20  N   UNL     1       2.543  -5.158   3.157  0.00  0.00    -0.246 N 
ATOM     21  H   UNL     1       0.019   0.648   2.751  0.00  0.00    +0.155 HD
ATOM     22  H   UNL     1       0.227  -6.445   2.337  0.00  0.00    +0.156 HD
ENDROOT
BRANCH  20  23
ATOM     23  C   UNL     1       3.012  -6.545   3.212  0.00  0.00    +0.182 C 
BRANCH  23  24
ATOM     24  C   UNL     1       3.536  -6.951   1.859  0.00  0.00    -0.008 A 
ATOM     25  C   UNL     1       2.710  -7.608   0.967  0.00  0.00    +0.007 A 
ATOM     26  C   UNL     1       3.191  -7.981  -0.274  0.00  0.00    +0.000 A 
ATOM     27  C   UNL     1       4.498  -7.698  -0.624  0.00  0.00    +0.001 A 
ATOM     28  C   UNL     1       5.325  -7.042   0.268  0.00  0.00    +0.020 A 
ATOM     29  C   UNL     1       4.843  -6.663   1.508  0.00  0.00    +0.046 A 
ATOM     30 CL   UNL     1       5.879  -5.832   2.626  0.00  0.00    -0.083 Cl
ENDBRANCH  23  24
ENDBRANCH  20  23
TORSDOF 2
