REMARK  Name = ZINC21223865
REMARK  12 active torsions:
REMARK  status: ('A' for Active; 'I' for Inactive)
REMARK    1  A    between atoms: C_1  and  C_2
REMARK    2  A    between atoms: C_2  and  C_3
REMARK    3  A    between atoms: C_2  and  C_4
REMARK    4  A    between atoms: C_2  and  C_5
REMARK    5  A    between atoms: C_8  and  C_11
REMARK    6  A    between atoms: C_16  and  C_21
REMARK    7  A    between atoms: C_23  and  O_31
REMARK    8  A    between atoms: C_24  and  O_29
REMARK    9  A    between atoms: C_25  and  O_27
REMARK   10  A    between atoms: O_27  and  C_28
REMARK   11  A    between atoms: O_29  and  C_30
REMARK   12  A    between atoms: O_31  and  C_32
REMARK                            x       y       z     vdW  Elec       q    Type
REMARK                         _______ _______ _______ _____ _____    ______ ____
ROOT
ATOM      1  C   UNL     1      -4.618   4.879  -0.032  0.00  0.00    +0.136 C 
ATOM      2  C   UNL     1      -3.273   4.195  -0.088  0.00  0.00    +0.036 C 
ATOM      3  C   UNL     1      -2.572   3.747   0.967  0.00  0.00    +0.017 C 
ATOM      4  C   UNL     1      -1.222   3.077   0.767  0.00  0.00    +0.059 C 
ATOM      5  C   UNL     1      -1.207   2.322  -0.561  0.00  0.00    +0.032 C 
ATOM      6  C   UNL     1      -1.469   3.337  -1.679  0.00  0.00    +0.088 C 
ATOM      7  C   UNL     1      -2.768   4.031  -1.400  0.00  0.00    +0.163 C 
ATOM      8  O   UNL     1      -3.411   4.469  -2.334  0.00  0.00    -0.292 OA
ATOM      9  N   UNL     1      -2.969   3.852   2.260  0.00  0.00    -0.316 N 
ATOM     10  C   UNL     1      -4.239   3.542   2.730  0.00  0.00    +0.052 A 
ATOM     11  C   UNL     1      -4.470   2.502   3.614  0.00  0.00    +0.025 A 
ATOM     12  C   UNL     1      -5.755   2.279   4.080  0.00  0.00    +0.002 A 
ATOM     13  C   UNL     1      -6.797   3.089   3.666  0.00  0.00    +0.002 A 
ATOM     14  C   UNL     1      -6.571   4.118   2.768  0.00  0.00    +0.025 A 
ATOM     15  C   UNL     1      -5.290   4.330   2.284  0.00  0.00    +0.049 A 
ATOM     16  N   UNL     1      -5.034   5.279   1.296  0.00  0.00    -0.331 N 
ATOM     17  H   UNL     1      -2.262   4.205   3.026  0.00  0.00    +0.152 HD
ATOM     18  H   UNL     1      -5.152   6.345   1.537  0.00  0.00    +0.147 HD
ENDROOT
BRANCH   1  22
ATOM     19  C   UNL     1      -7.556   2.222  -1.629  0.00  0.00    -0.042 A 
ATOM     20  C   UNL     1      -7.295   3.424  -2.260  0.00  0.00    +0.004 A 
ATOM     21  C   UNL     1      -6.344   4.284  -1.744  0.00  0.00    +0.006 A 
ATOM     22  C   UNL     1      -5.654   3.942  -0.595  0.00  0.00    -0.023 A 
ATOM     23  C   UNL     1      -5.912   2.738   0.033  0.00  0.00    +0.006 A 
ATOM     24  C   UNL     1      -6.866   1.880  -0.481  0.00  0.00    +0.004 A 
BRANCH  19  26
ATOM     25  C   UNL     1      -8.194   0.878  -3.613  0.00  0.00    +0.015 C 
ATOM     26  C   UNL     1      -8.593   1.285  -2.193  0.00  0.00    -0.013 C 
ATOM     27  C   UNL     1      -8.685   0.037  -1.312  0.00  0.00    +0.015 C 
ATOM     28  C   UNL     1      -9.951   1.987  -2.226  0.00  0.00    +0.015 C 
ENDBRANCH  19  26
ENDBRANCH   1  22
BRANCH   5  29
ATOM     29  C   UNL     1       0.137   1.673  -0.764  0.00  0.00    -0.036 A 
ATOM     30  C   UNL     1       1.279   2.451  -0.803  0.00  0.00    +0.053 A 
ATOM     31  C   UNL     1       2.518   1.858  -0.996  0.00  0.00    +0.165 A 
ATOM     32  C   UNL     1       2.611   0.480  -1.150  0.00  0.00    +0.204 A 
ATOM     33  C   UNL     1       1.460  -0.299  -1.110  0.00  0.00    +0.165 A 
ATOM     34  C   UNL     1       0.225   0.302  -0.917  0.00  0.00    +0.053 A 
BRANCH  33  35
ATOM     35  O   UNL     1       1.545  -1.648  -1.259  0.00  0.00    -0.491 OA
ATOM     36  C   UNL     1       0.322  -2.385  -1.207  0.00  0.00    +0.277 C 
ENDBRANCH  33  35
BRANCH  32  37
ATOM     37  O   UNL     1       3.825  -0.106  -1.338  0.00  0.00    -0.488 OA
ATOM     38  C   UNL     1       4.271  -0.254  -2.688  0.00  0.00    +0.277 C 
ENDBRANCH  32  37
BRANCH  31  39
ATOM     39  O   UNL     1       3.641   2.624  -1.034  0.00  0.00    -0.491 OA
ATOM     40  C   UNL     1       3.471   4.034  -0.868  0.00  0.00    +0.277 C 
ENDBRANCH  31  39
ENDBRANCH   5  29
TORSDOF 6
