REMARK  Name = ZINC31408658
REMARK  5 active torsions:
REMARK  status: ('A' for Active; 'I' for Inactive)
REMARK    1  A    between atoms: C_11  and  C_14
REMARK    2  A    between atoms: C_14  and  C_15
REMARK    3  A    between atoms: N_17  and  C_18
REMARK    4  A    between atoms: C_18  and  C_19
REMARK    5  A    between atoms: N_21  and  C_22
REMARK                            x       y       z     vdW  Elec       q    Type
REMARK                         _______ _______ _______ _____ _____    ______ ____
ROOT
ATOM      1  C   UNL     1       4.818   1.616   0.159  0.00  0.00    +0.218 C 
ATOM      2  O   UNL     1       5.092   0.438   0.247  0.00  0.00    -0.275 OA
ATOM      3  N   UNL     1       3.530   2.004   0.082  0.00  0.00    -0.306 N 
ATOM      4  H   UNL     1       3.281   3.072   0.002  0.00  0.00    +0.149 HD
ENDROOT
BRANCH   1   5
ATOM      5  C   UNL     1       5.918   2.646   0.136  0.00  0.00    +0.134 C 
BRANCH   5  16
ATOM      6  C   UNL     1       7.554   1.005  -5.046  0.00  0.00    +0.001 A 
ATOM      7  C   UNL     1       6.569   1.637  -4.291  0.00  0.00    +0.001 A 
ATOM      8  C   UNL     1       6.702   1.770  -2.941  0.00  0.00    +0.009 A 
ATOM      9  C   UNL     1       7.840   1.266  -2.303  0.00  0.00    -0.007 A 
ATOM     10  C   UNL     1       8.844   0.623  -3.068  0.00  0.00    -0.017 A 
ATOM     11  C   UNL     1       8.675   0.503  -4.457  0.00  0.00    +0.008 A 
ATOM     12  C   UNL     1       9.988   0.116  -2.424  0.00  0.00    +0.012 A 
ATOM     13  C   UNL     1      10.152   0.240  -1.083  0.00  0.00    +0.047 A 
ATOM     14  C   UNL     1       9.190   0.862  -0.280  0.00  0.00    +0.136 A 
ATOM     15  C   UNL     1       8.030   1.382  -0.863  0.00  0.00    +0.031 A 
ATOM     16  C   UNL     1       7.254   1.956   0.235  0.00  0.00    +0.007 A 
ATOM     17  C   UNL     1       7.970   1.739   1.351  0.00  0.00    +0.200 A 
ATOM     18  O   UNL     1       9.109   1.095   1.046  0.00  0.00    -0.463 OA
ENDBRANCH   5  16
ENDBRANCH   1   5
BRANCH   3  19
ATOM     19  C   UNL     1       2.460   1.003   0.104  0.00  0.00    +0.200 C 
BRANCH  19  20
ATOM     20  C   UNL     1       1.124   1.692   0.005  0.00  0.00    +0.234 C 
ATOM     21  O   UNL     1       1.070   2.901  -0.076  0.00  0.00    -0.274 OA
ATOM     22  N   UNL     1      -0.011   0.966   0.007  0.00  0.00    -0.284 N 
ATOM     23  H   UNL     1       0.039  -0.133   0.009  0.00  0.00    +0.155 HD
BRANCH  22  24
ATOM     24  C   UNL     1      -1.254   1.610   0.007  0.00  0.00    +0.036 A 
ATOM     25  C   UNL     1      -2.325   1.054   0.695  0.00  0.00    +0.026 A 
ATOM     26  C   UNL     1      -3.550   1.693   0.700  0.00  0.00    +0.043 A 
ATOM     27  C   UNL     1      -3.714   2.882   0.009  0.00  0.00    +0.159 A 
ATOM     28  C   UNL     1      -2.649   3.436  -0.684  0.00  0.00    +0.160 A 
ATOM     29  C   UNL     1      -1.420   2.802  -0.685  0.00  0.00    +0.064 A 
ATOM     30  F   UNL     1      -2.811   4.596  -1.357  0.00  0.00    -0.202 F 
ATOM     31  F   UNL     1      -4.915   3.502   0.011  0.00  0.00    -0.202 F 
ENDBRANCH  22  24
ENDBRANCH  19  20
ENDBRANCH   3  19
TORSDOF 5
