REMARK  Name = ZINC52583861
REMARK  10 active torsions:
REMARK  status: ('A' for Active; 'I' for Inactive)
REMARK    1  A    between atoms: C_1  and  C_2
REMARK    2  A    between atoms: C_2  and  C_3
REMARK    3  A    between atoms: C_3  and  C_4
REMARK    4  A    between atoms: C_8  and  C_35
REMARK    5  A    between atoms: N_13  and  C_14
REMARK    6  A    between atoms: C_14  and  C_15
REMARK    7  A    between atoms: C_18  and  O_21
REMARK    8  A    between atoms: O_21  and  C_22
REMARK    9  A    between atoms: C_22  and  C_24
REMARK   10  A    between atoms: C_22  and  C_30
REMARK                            x       y       z     vdW  Elec       q    Type
REMARK                         _______ _______ _______ _____ _____    ______ ____
ROOT
ATOM      1  C   UNL     1      -3.604  -3.417  -2.231  0.00  0.00    -0.030 A 
ATOM      2  C   UNL     1      -2.884  -3.162  -3.383  0.00  0.00    +0.009 A 
ATOM      3  C   UNL     1      -2.728  -4.150  -4.335  0.00  0.00    +0.046 A 
ATOM      4  C   UNL     1      -3.295  -5.400  -4.134  0.00  0.00    +0.122 A 
ATOM      5  C   UNL     1      -4.017  -5.654  -2.977  0.00  0.00    +0.046 A 
ATOM      6  C   UNL     1      -4.166  -4.664  -2.026  0.00  0.00    +0.009 A 
ENDROOT
BRANCH   1   7
ATOM      7  C   UNL     1      -3.773  -2.337  -1.194  0.00  0.00    +0.143 C 
BRANCH   7  16
ATOM      8  C   UNL     1      -1.384  -1.703  -0.335  0.00  0.00    +0.160 C 
ATOM      9  N   UNL     1      -0.620  -2.090   0.857  0.00  0.00    -0.323 N 
ATOM     10  C   UNL     1      -1.426  -2.964   1.598  0.00  0.00    +0.070 A 
ATOM     11  C   UNL     1      -1.190  -3.619   2.801  0.00  0.00    -0.025 A 
ATOM     12  C   UNL     1      -2.184  -4.440   3.314  0.00  0.00    +0.023 A 
ATOM     13  C   UNL     1      -3.368  -4.580   2.618  0.00  0.00    +0.084 A 
ATOM     14  N   UNL     1      -3.566  -3.946   1.478  0.00  0.00    -0.348 N 
ATOM     15  C   UNL     1      -2.645  -3.150   0.949  0.00  0.00    +0.122 A 
ATOM     16  N   UNL     1      -2.669  -2.405  -0.233  0.00  0.00    -0.292 N 
ATOM     17  C   UNL     1       0.116  -3.443   3.531  0.00  0.00    +0.046 C 
ATOM     18  H   UNL     1       0.275  -1.797   1.088  0.00  0.00    +0.148 HD
ATOM     19  H   UNL     1      -4.409  -4.066   1.014  0.00  0.00    +0.167 HD
BRANCH   8  20
ATOM     20  C   UNL     1      -1.609  -0.190  -0.350  0.00  0.00    +0.042 C 
BRANCH  20  22
ATOM     21  C   UNL     1      -0.496   2.036  -0.570  0.00  0.00    +0.004 C 
ATOM     22  C   UNL     1      -0.271   0.522  -0.555  0.00  0.00    +0.000 C 
ENDBRANCH  20  22
ENDBRANCH   8  20
ENDBRANCH   7  16
ENDBRANCH   1   7
BRANCH   4  23
ATOM     23  O   UNL     1      -3.144  -6.374  -5.070  0.00  0.00    -0.476 OA
BRANCH  23  24
ATOM     24  C   UNL     1      -2.291  -6.082  -6.178  0.00  0.00    +0.275 C 
BRANCH  24  25
ATOM     25  C   UNL     1      -1.764  -7.369  -6.759  0.00  0.00    +0.000 A 
ATOM     26  C   UNL     1      -2.596  -8.467  -6.876  0.00  0.00    +0.008 A 
ATOM     27  C   UNL     1      -2.112  -9.647  -7.409  0.00  0.00    +0.000 A 
ATOM     28  C   UNL     1      -0.797  -9.730  -7.825  0.00  0.00    +0.000 A 
ATOM     29  C   UNL     1       0.035  -8.632  -7.710  0.00  0.00    +0.000 A 
ATOM     30  C   UNL     1      -0.450  -7.450  -7.181  0.00  0.00    +0.008 A 
ENDBRANCH  24  25
BRANCH  24  31
ATOM     31  C   UNL     1      -3.072  -5.339  -7.231  0.00  0.00    +0.221 A 
ATOM     32  N   UNL     1      -4.289  -5.631  -7.665  0.00  0.00    -0.107 NA
ATOM     33  N   UNL     1      -4.602  -4.760  -8.563  0.00  0.00    -0.021 NA
ATOM     34  N   UNL     1      -3.624  -3.934  -8.706  0.00  0.00    -0.021 NA
ATOM     35  N   UNL     1      -2.676  -4.264  -7.897  0.00  0.00    -0.107 NA
ENDBRANCH  24  31
ENDBRANCH  23  24
ENDBRANCH   4  23
TORSDOF 8
