REMARK  Name = ZINC33324517
REMARK  13 active torsions:
REMARK  status: ('A' for Active; 'I' for Inactive)
REMARK    1  A    between atoms: C_1  and  C_2
REMARK    2  A    between atoms: C_2  and  N_3
REMARK    3  A    between atoms: N_3  and  C_4
REMARK    4  A    between atoms: C_4  and  C_5
REMARK    5  A    between atoms: C_8  and  N_13
REMARK    6  A    between atoms: C_10  and  C_12
REMARK    7  A    between atoms: N_13  and  C_14
REMARK    8  A    between atoms: C_17  and  N_20
REMARK    9  A    between atoms: N_20  and  S_21
REMARK   10  A    between atoms: S_21  and  C_24
REMARK   11  A    between atoms: C_26  and  C_32
REMARK   12  A    between atoms: C_27  and  C_31
REMARK   13  A    between atoms: C_29  and  C_30
REMARK                            x       y       z     vdW  Elec       q    Type
REMARK                         _______ _______ _______ _____ _____    ______ ____
ROOT
ATOM      1  C   UNL     1       1.827   1.409  -0.759  0.00  0.00    +0.032 A 
ATOM      2  C   UNL     1       0.775   2.287  -0.534  0.00  0.00    +0.025 A 
ATOM      3  C   UNL     1      -0.457   1.802  -0.143  0.00  0.00    +0.026 A 
ATOM      4  C   UNL     1      -0.645   0.437   0.026  0.00  0.00    +0.048 A 
ATOM      5  C   UNL     1       0.407  -0.441  -0.199  0.00  0.00    +0.026 A 
ATOM      6  C   UNL     1       1.639   0.043  -0.591  0.00  0.00    +0.025 A 
ENDROOT
BRANCH   1   7
ATOM      7  N   UNL     1       3.077   1.900  -1.156  0.00  0.00    -0.301 N 
ATOM      8  H   UNL     1       3.996   1.478  -0.724  0.00  0.00    +0.154 HD
BRANCH   7  12
ATOM      9  N   UNL     1       1.046   4.826  -4.408  0.00  0.00    -0.316 N 
ATOM     10  C   UNL     1       2.149   4.368  -3.705  0.00  0.00    +0.126 A 
ATOM     11  C   UNL     1       2.018   3.338  -2.778  0.00  0.00    +0.085 A 
ATOM     12  C   UNL     1       3.155   2.919  -2.094  0.00  0.00    +0.105 A 
ATOM     13  N   UNL     1       4.322   3.506  -2.357  0.00  0.00    -0.332 N 
ATOM     14  C   UNL     1       4.405   4.475  -3.247  0.00  0.00    +0.107 A 
ATOM     15  N   UNL     1       3.351   4.904  -3.910  0.00  0.00    -0.219 NA
ATOM     16  C   UNL     1       5.745   5.111  -3.512  0.00  0.00    +0.086 C 
ATOM     17  H   UNL     1       5.231   3.184  -1.830  0.00  0.00    +0.168 HD
BRANCH   9  19
ATOM     18  C   UNL     1      -0.935   5.178  -3.017  0.00  0.00    +0.024 C 
ATOM     19  C   UNL     1      -0.288   4.307  -4.096  0.00  0.00    +0.103 C 
ENDBRANCH   9  19
BRANCH   9  20
ATOM     20  C   UNL     1       1.213   5.829  -5.463  0.00  0.00    +0.103 C 
ATOM     21  C   UNL     1       1.454   5.127  -6.801  0.00  0.00    +0.024 C 
ENDBRANCH   9  20
ENDBRANCH   7  12
ENDBRANCH   1   7
BRANCH   4  22
ATOM     22  N   UNL     1      -1.894  -0.054   0.424  0.00  0.00    -0.216 N 
ATOM     23  H   UNL     1      -2.428   0.416   1.263  0.00  0.00    +0.174 HD
BRANCH  22  24
ATOM     24  S   UNL     1      -2.567  -1.343  -0.369  0.00  0.00    +0.073 S 
ATOM     25  O   UNL     1      -1.595  -2.379  -0.358  0.00  0.00    -0.150 OA
ATOM     26  O   UNL     1      -3.870  -1.516   0.171  0.00  0.00    -0.150 OA
BRANCH  24  27
ATOM     27  C   UNL     1      -2.778  -0.867  -2.052  0.00  0.00    +0.112 A 
ATOM     28  C   UNL     1      -2.118  -1.556  -3.053  0.00  0.00    +0.032 A 
ATOM     29  C   UNL     1      -2.287  -1.185  -4.374  0.00  0.00    -0.046 A 
ATOM     30  C   UNL     1      -3.108  -0.120  -4.693  0.00  0.00    -0.047 A 
ATOM     31  C   UNL     1      -3.764   0.571  -3.692  0.00  0.00    +0.009 A 
ATOM     32  C   UNL     1      -3.599   0.198  -2.371  0.00  0.00    -0.024 A 
ATOM     33  C   UNL     1      -4.314   0.952  -1.280  0.00  0.00    +0.046 C 
ATOM     34  C   UNL     1      -3.289   0.287  -6.133  0.00  0.00    +0.044 C 
ATOM     35  C   UNL     1      -1.572  -1.940  -5.465  0.00  0.00    +0.044 C 
ENDBRANCH  24  27
ENDBRANCH  22  24
ENDBRANCH   4  22
TORSDOF 7
