REMARK  Name = ZINC00645596
REMARK  7 active torsions:
REMARK  status: ('A' for Active; 'I' for Inactive)
REMARK    1  A    between atoms: C_1  and  C_2
REMARK    2  A    between atoms: C_2  and  C_3
REMARK    3  A    between atoms: C_2  and  C_4
REMARK    4  A    between atoms: C_7  and  S_10
REMARK    5  A    between atoms: S_10  and  N_13
REMARK    6  A    between atoms: N_13  and  C_14
REMARK    7  A    between atoms: C_17  and  O_24
REMARK                            x       y       z     vdW  Elec       q    Type
REMARK                         _______ _______ _______ _____ _____    ______ ____
ROOT
ATOM      1  N   UNL     1       1.172   5.979   0.023  0.00  0.00    -0.216 N 
ATOM      2  H   UNL     1       1.910   5.667  -0.524  0.00  0.00    +0.174 HD
ENDROOT
BRANCH   1   3
ATOM      3  C   UNL     1       0.044   5.174   0.199  0.00  0.00    +0.057 A 
ATOM      4  C   UNL     1      -1.207   5.745   0.288  0.00  0.00    +0.048 A 
ATOM      5  C   UNL     1      -2.340   4.955   0.464  0.00  0.00    +0.085 A 
ATOM      6  C   UNL     1      -2.238   3.585   0.554  0.00  0.00    +0.143 A 
ATOM      7  C   UNL     1      -0.974   2.971   0.467  0.00  0.00    +0.027 A 
ATOM      8  C   UNL     1       0.180   3.773   0.287  0.00  0.00    +0.008 A 
ATOM      9  C   UNL     1       1.440   3.158   0.201  0.00  0.00    +0.010 A 
ATOM     10  C   UNL     1       1.536   1.803   0.289  0.00  0.00    +0.001 A 
ATOM     11  C   UNL     1       0.401   1.014   0.466  0.00  0.00    +0.001 A 
ATOM     12  C   UNL     1      -0.836   1.575   0.548  0.00  0.00    +0.012 A 
ATOM     13 CL   UNL     1      -3.901   5.707   0.572  0.00  0.00    -0.080 Cl
BRANCH   6  14
ATOM     14  O   UNL     1      -3.354   2.827   0.727  0.00  0.00    -0.505 OA
ATOM     15  H   UNL     1      -3.769   2.544  -0.100  0.00  0.00    +0.292 HD
ENDBRANCH   6  14
ENDBRANCH   1   3
BRANCH   1  16
ATOM     16  S   UNL     1       1.249   7.467   0.746  0.00  0.00    +0.072 S 
ATOM     17  O   UNL     1       2.552   7.974   0.494  0.00  0.00    -0.150 OA
ATOM     18  O   UNL     1       0.072   8.165   0.365  0.00  0.00    -0.150 OA
BRANCH  16  22
ATOM     19  C   UNL     1       0.964   6.798   5.214  0.00  0.00    -0.045 A 
ATOM     20  C   UNL     1       2.200   6.808   4.594  0.00  0.00    +0.006 A 
ATOM     21  C   UNL     1       2.287   7.012   3.230  0.00  0.00    +0.029 A 
ATOM     22  C   UNL     1       1.138   7.206   2.486  0.00  0.00    +0.109 A 
ATOM     23  C   UNL     1      -0.097   7.202   3.106  0.00  0.00    +0.029 A 
ATOM     24  C   UNL     1      -0.184   6.993   4.470  0.00  0.00    +0.006 A 
BRANCH  19  26
ATOM     25  C   UNL     1       0.205   7.786   7.358  0.00  0.00    +0.012 C 
ATOM     26  C   UNL     1       0.870   6.574   6.702  0.00  0.00    +0.013 C 
ATOM     27  C   UNL     1       0.034   5.322   6.977  0.00  0.00    +0.012 C 
ENDBRANCH  19  26
ENDBRANCH  16  22
ENDBRANCH   1  16
TORSDOF 5
