REMARK  Name = ZINC04914203
REMARK  7 active torsions:
REMARK  status: ('A' for Active; 'I' for Inactive)
REMARK    1  A    between atoms: C_1  and  C_2
REMARK    2  A    between atoms: C_4  and  O_28
REMARK    3  A    between atoms: C_5  and  C_17
REMARK    4  A    between atoms: C_7  and  N_8
REMARK    5  A    between atoms: N_8  and  S_9
REMARK    6  A    between atoms: S_9  and  C_12
REMARK    7  A    between atoms: C_26  and  O_27
REMARK                            x       y       z     vdW  Elec       q    Type
REMARK                         _______ _______ _______ _____ _____    ______ ____
ROOT
ATOM      1  C   UNL     1      -3.484   2.543  -2.285  0.00  0.00    +0.046 C 
ATOM      2  C   UNL     1      -2.457   3.604  -1.980  0.00  0.00    -0.025 A 
ATOM      3  C   UNL     1      -2.768   4.937  -2.169  0.00  0.00    +0.051 A 
ATOM      4  C   UNL     1      -1.827   5.916  -1.896  0.00  0.00    +0.125 A 
ATOM      5  C   UNL     1      -0.561   5.554  -1.423  0.00  0.00    +0.029 A 
ATOM      6  C   UNL     1      -0.254   4.208  -1.229  0.00  0.00    +0.037 A 
ATOM      7  C   UNL     1      -1.204   3.237  -1.506  0.00  0.00    +0.052 A 
ENDROOT
BRANCH   5   8
ATOM      8  C   UNL     1       0.448   6.596  -1.129  0.00  0.00    +0.035 A 
ATOM      9  C   UNL     1       0.523   7.176   0.159  0.00  0.00    -0.007 A 
ATOM     10  C   UNL     1      -0.341   6.776   1.188  0.00  0.00    +0.009 A 
ATOM     11  C   UNL     1      -0.237   7.350   2.419  0.00  0.00    +0.001 A 
ATOM     12  C   UNL     1       0.721   8.329   2.674  0.00  0.00    +0.001 A 
ATOM     13  C   UNL     1       1.579   8.738   1.700  0.00  0.00    +0.008 A 
ATOM     14  C   UNL     1       1.501   8.168   0.418  0.00  0.00    -0.017 A 
ATOM     15  C   UNL     1       2.374   8.568  -0.610  0.00  0.00    +0.012 A 
ATOM     16  C   UNL     1       2.281   8.002  -1.844  0.00  0.00    +0.046 A 
ATOM     17  C   UNL     1       1.328   7.020  -2.117  0.00  0.00    +0.125 A 
BRANCH  17  18
ATOM     18  O   UNL     1       1.260   6.473  -3.358  0.00  0.00    -0.506 OA
ATOM     19  H   UNL     1       0.666   6.940  -3.962  0.00  0.00    +0.292 HD
ENDBRANCH  17  18
ENDBRANCH   5   8
BRANCH   7  20
ATOM     20  N   UNL     1      -0.897   1.885  -1.312  0.00  0.00    -0.216 N 
ATOM     21  H   UNL     1      -1.254   1.216  -1.917  0.00  0.00    +0.174 HD
BRANCH  20  22
ATOM     22  S   UNL     1       0.074   1.429  -0.051  0.00  0.00    +0.079 S 
ATOM     23  O   UNL     1       0.091   0.008  -0.045  0.00  0.00    -0.149 OA
ATOM     24  O   UNL     1       1.261   2.204  -0.152  0.00  0.00    -0.149 OA
BRANCH  22  25
ATOM     25  C   UNL     1      -0.730   1.929   1.434  0.00  0.00    +0.146 A 
ATOM     26  C   UNL     1      -1.615   1.244   2.199  0.00  0.00    +0.036 A 
ATOM     27  C   UNL     1      -2.122   1.842   3.337  0.00  0.00    +0.010 A 
ATOM     28  C   UNL     1      -1.721   3.098   3.654  0.00  0.00    +0.047 A 
ATOM     29  S   UNL     1      -0.586   3.469   2.327  0.00  0.00    -0.077 S 
ENDBRANCH  22  25
ENDBRANCH  20  22
ENDBRANCH   7  20
BRANCH   4  30
ATOM     30  O   UNL     1      -2.134   7.227  -2.087  0.00  0.00    -0.506 OA
ATOM     31  H   UNL     1      -1.927   7.554  -2.973  0.00  0.00    +0.292 HD
ENDBRANCH   4  30
TORSDOF 6
