REMARK  Name = ZINC58333028
REMARK  5 active torsions:
REMARK  status: ('A' for Active; 'I' for Inactive)
REMARK    1  A    between atoms: C_2  and  N_13
REMARK    2  A    between atoms: N_13  and  C_14
REMARK    3  A    between atoms: C_14  and  C_15
REMARK    4  A    between atoms: N_17  and  C_18
REMARK    5  A    between atoms: C_18  and  C_23
REMARK                            x       y       z     vdW  Elec       q    Type
REMARK                         _______ _______ _______ _____ _____    ______ ____
ROOT
ATOM      1  N   UNL     1       1.169   3.484   0.009  0.00  0.00    -0.334 N 
ATOM      2  H   UNL     1       2.005   3.976   0.004  0.00  0.00    +0.147 HD
ENDROOT
BRANCH   1   4
ATOM      3  C   UNL     1      -0.017   1.380   0.010  0.00  0.00    +0.073 A 
ATOM      4  C   UNL     1       1.181   2.084   0.002  0.00  0.00    +0.050 A 
ATOM      5  C   UNL     1       2.390   1.400  -0.014  0.00  0.00    +0.065 A 
ATOM      6  C   UNL     1       2.405   0.016  -0.021  0.00  0.00    +0.071 A 
ATOM      7  C   UNL     1       1.211  -0.685  -0.013  0.00  0.00    +0.163 A 
ATOM      8  C   UNL     1       0.002  -0.004   0.002  0.00  0.00    +0.164 A 
ATOM      9  O   UNL     1      -1.168  -0.708   0.010  0.00  0.00    -0.488 OA
ATOM     10  C   UNL     1      -1.470  -1.431  -1.185  0.00  0.00    +0.232 C 
ATOM     11  C   UNL     1      -0.785  -2.788  -1.182  0.00  0.00    +0.082 C 
ATOM     12  C   UNL     1       0.731  -2.671  -1.213  0.00  0.00    +0.232 C 
ATOM     13  O   UNL     1       1.216  -2.051  -0.020  0.00  0.00    -0.488 OA
ATOM     14 CL   UNL     1       3.885   2.283  -0.024  0.00  0.00    -0.082 Cl
ENDBRANCH   1   4
BRANCH   1  15
ATOM     15  C   UNL     1      -0.106   4.206   0.025  0.00  0.00    +0.197 C 
BRANCH  15  16
ATOM     16  C   UNL     1       0.157   5.690   0.031  0.00  0.00    +0.231 C 
ATOM     17  O   UNL     1       1.297   6.104   0.022  0.00  0.00    -0.274 OA
ATOM     18  N   UNL     1      -0.874   6.557   0.045  0.00  0.00    -0.296 N 
ATOM     19  H   UNL     1      -1.786   6.226   0.052  0.00  0.00    +0.150 HD
BRANCH  18  20
ATOM     20  C   UNL     1      -0.619   7.999   0.050  0.00  0.00    +0.121 C 
ATOM     21  C   UNL     1       0.137   8.397   1.335  0.00  0.00    +0.041 C 
ATOM     22  C   UNL     1      -0.458   9.776   1.714  0.00  0.00    +0.003 C 
ATOM     23  C   UNL     1      -1.957   9.610   1.361  0.00  0.00    +0.003 C 
ATOM     24  C   UNL     1      -1.950   8.770   0.067  0.00  0.00    +0.041 C 
BRANCH  20  25
ATOM     25  C   UNL     1       0.167   8.376  -1.136  0.00  0.00    +0.088 C 
ATOM     26  N   UNL     1       0.774   8.667  -2.051  0.00  0.00    -0.194 NA
ENDBRANCH  20  25
ENDBRANCH  18  20
ENDBRANCH  15  16
ENDBRANCH   1  15
TORSDOF 5
