REMARK  Name = ZINC15252923
REMARK  4 active torsions:
REMARK  status: ('A' for Active; 'I' for Inactive)
REMARK    1  A    between atoms: C_1  and  C_2
REMARK    2  A    between atoms: C_20  and  C_22
REMARK    3  A    between atoms: C_22  and  C_23
REMARK    4  A    between atoms: C_23  and  O_24
REMARK                            x       y       z     vdW  Elec       q    Type
REMARK                         _______ _______ _______ _____ _____    ______ ____
ROOT
ATOM      1  C   UNL     1      10.234   0.548   2.570  0.00  0.00    +0.035 C 
ATOM      2  C   UNL     1       9.170   1.502   2.094  0.00  0.00    -0.033 C 
ATOM      3  C   UNL     1       8.294   1.114   1.200  0.00  0.00    -0.087 C 
ATOM      4  C   UNL     1       7.708   2.094   0.206  0.00  0.00    -0.047 C 
ATOM      5  C   UNL     1       5.616   2.913  -0.694  0.00  0.00    -0.073 C 
ATOM      6  C   UNL     1       4.115   3.016  -0.388  0.00  0.00    +0.019 C 
ATOM      7  C   UNL     1       3.561   1.616  -0.305  0.00  0.00    -0.022 A 
ATOM      8  C   UNL     1       2.187   1.170  -0.362  0.00  0.00    +0.003 A 
ATOM      9  C   UNL     1       0.972   1.848  -0.502  0.00  0.00    +0.010 A 
ATOM     10  C   UNL     1      -0.168   1.083  -0.516  0.00  0.00    +0.001 A 
ATOM     11  C   UNL     1      -0.130  -0.297  -0.399  0.00  0.00    +0.002 A 
ATOM     12  C   UNL     1       1.057  -0.994  -0.260  0.00  0.00    +0.026 A 
ATOM     13  C   UNL     1       2.232  -0.244  -0.242  0.00  0.00    +0.047 A 
ATOM     14  N   UNL     1       3.544  -0.601  -0.122  0.00  0.00    -0.359 N 
ATOM     15  H   UNL     1       3.868  -1.510  -0.025  0.00  0.00    +0.166 HD
ATOM     16  C   UNL     1       4.334   0.516  -0.160  0.00  0.00    +0.007 A 
ATOM     17  C   UNL     1       5.839   0.575  -0.059  0.00  0.00    -0.020 C 
ATOM     18  C   UNL     1       6.307  -0.344   1.072  0.00  0.00    -0.002 C 
ATOM     19  C   UNL     1       7.840  -0.329   1.129  0.00  0.00    +0.014 C 
ATOM     20  N   UNL     1       6.237   1.967   0.260  0.00  0.00    +0.388 N 
ATOM     21  H   UNL     1       5.917   2.194   1.209  0.00  0.00    -0.080 HD
ENDROOT
BRANCH  19  22
ATOM     22  C   UNL     1       8.319  -1.083   2.371  0.00  0.00    +0.035 C 
BRANCH  22  23
ATOM     23  C   UNL     1       7.812  -0.371   3.627  0.00  0.00    +0.156 C 
BRANCH  23  24
ATOM     24  O   UNL     1       8.358  -1.004   4.786  0.00  0.00    -0.395 OA
ATOM     25  H   UNL     1       8.079  -0.604   5.621  0.00  0.00    +0.209 HD
ENDBRANCH  23  24
ENDBRANCH  22  23
ENDBRANCH  19  22
TORSDOF 3
