REMARK  Name = ZINC49933638
REMARK  7 active torsions:
REMARK  status: ('A' for Active; 'I' for Inactive)
REMARK    1  A    between atoms: C_1  and  C_2
REMARK    2  A    between atoms: C_3  and  C_23
REMARK    3  A    between atoms: C_7  and  N_22
REMARK    4  A    between atoms: C_9  and  C_11
REMARK    5  A    between atoms: C_11  and  N_12
REMARK    6  A    between atoms: C_14  and  C_21
REMARK    7  A    between atoms: C_17  and  C_20
REMARK                            x       y       z     vdW  Elec       q    Type
REMARK                         _______ _______ _______ _____ _____    ______ ____
ROOT
ATOM      1  C   UNL     1      -1.596   1.384   0.669  0.00  0.00    +0.045 C 
ATOM      2  C   UNL     1      -1.424  -0.111   0.597  0.00  0.00    -0.028 A 
ATOM      3  C   UNL     1      -2.079  -0.826  -0.330  0.00  0.00    -0.008 A 
ATOM      4  S   UNL     1      -1.557  -2.500  -0.011  0.00  0.00    -0.074 S 
ATOM      5  C   UNL     1      -0.472  -2.195   1.358  0.00  0.00    +0.114 A 
ATOM      6  C   UNL     1      -0.541  -0.794   1.526  0.00  0.00    +0.050 A 
ATOM      7  C   UNL     1       0.255  -0.267   2.579  0.00  0.00    +0.128 A 
ATOM      8  N   UNL     1       0.991  -1.091   3.307  0.00  0.00    -0.219 NA
ATOM      9  C   UNL     1       1.012  -2.394   3.089  0.00  0.00    +0.116 A 
ATOM     10  N   UNL     1       0.286  -2.944   2.134  0.00  0.00    -0.227 NA
ATOM     11  C   UNL     1      -3.032  -0.331  -1.388  0.00  0.00    +0.052 C 
ENDROOT
BRANCH   7  12
ATOM     12  N   UNL     1       0.262   1.092   2.839  0.00  0.00    -0.343 N 
ATOM     13  H   UNL     1       0.110   1.724   2.119  0.00  0.00    +0.144 HD
ATOM     14  H   UNL     1       0.418   1.412   3.741  0.00  0.00    +0.144 HD
ENDBRANCH   7  12
BRANCH   9  15
ATOM     15  C   UNL     1       1.873  -3.273   3.958  0.00  0.00    -0.001 C 
BRANCH  15  16
ATOM     16  N   UNL     1       1.098  -3.723   5.122  0.00  0.00    +0.385 N 
ATOM     17  C   UNL     1       0.748  -2.564   5.952  0.00  0.00    -0.075 C 
ATOM     18  C   UNL     1      -0.128  -3.016   7.122  0.00  0.00    -0.031 C 
ATOM     19  C   UNL     1       0.642  -4.037   7.965  0.00  0.00    +0.003 C 
ATOM     20  C   UNL     1       1.065  -5.206   7.072  0.00  0.00    -0.031 C 
ATOM     21  C   UNL     1       1.898  -4.673   5.904  0.00  0.00    -0.075 C 
ATOM     22  C   UNL     1       1.901  -6.195   7.887  0.00  0.00    +0.005 C 
ATOM     23  C   UNL     1      -1.408  -3.658   6.583  0.00  0.00    +0.005 C 
ATOM     24  H   UNL     1       0.253  -4.175   4.807  0.00  0.00    -0.081 HD
ENDBRANCH  15  16
ENDBRANCH   9  15
TORSDOF 3
