REMARK  Name = ZINC39742489
REMARK  13 active torsions:
REMARK  status: ('A' for Active; 'I' for Inactive)
REMARK    1  A    between atoms: C_1  and  C_2
REMARK    2  A    between atoms: C_5  and  N_8
REMARK    3  A    between atoms: C_9  and  C_11
REMARK    4  A    between atoms: C_11  and  C_13
REMARK    5  A    between atoms: C_11  and  S_14
REMARK    6  A    between atoms: S_14  and  C_15
REMARK    7  A    between atoms: C_18  and  C_23
REMARK    8  A    between atoms: N_19  and  C_20
REMARK    9  A    between atoms: C_20  and  C_21
REMARK   10  A    between atoms: C_23  and  C_24
REMARK   11  A    between atoms: N_26  and  C_27
REMARK   12  A    between atoms: C_29  and  C_34
REMARK   13  A    between atoms: C_31  and  C_33
REMARK                            x       y       z     vdW  Elec       q    Type
REMARK                         _______ _______ _______ _____ _____    ______ ____
ROOT
ATOM      1  C   UNL     1       1.146  -8.884   1.867  0.00  0.00    +0.193 A 
ATOM      2  N   UNL     1       0.856  -9.722   0.898  0.00  0.00    -0.122 NA
ATOM      3  N   UNL     1       1.177 -10.917   1.245  0.00  0.00    -0.133 NA
ATOM      4  C   UNL     1       1.687 -10.914   2.444  0.00  0.00    +0.143 A 
ATOM      5  N   UNL     1       1.691  -9.618   2.881  0.00  0.00    -0.302 N 
ENDROOT
BRANCH   1   6
ATOM      6  S   UNL     1       0.889  -7.141   1.856  0.00  0.00    -0.074 S 
BRANCH   6   7
ATOM      7  C   UNL     1       0.142  -6.817   0.235  0.00  0.00    +0.137 C 
ATOM      8  C   UNL     1      -1.228  -7.494   0.161  0.00  0.00    +0.029 C 
BRANCH   7  10
ATOM      9  N   UNL     1      -0.166  -4.823  -1.196  0.00  0.00    -0.285 N 
ATOM     10  C   UNL     1      -0.020  -5.331   0.044  0.00  0.00    +0.230 C 
ATOM     11  O   UNL     1      -0.018  -4.593   1.006  0.00  0.00    -0.274 OA
ATOM     12  H   UNL     1      -0.241  -5.418  -1.958  0.00  0.00    +0.155 HD
BRANCH   9  17
ATOM     13  C   UNL     1      -0.337   0.796  -1.957  0.00  0.00    +0.044 C 
ATOM     14  C   UNL     1      -0.292  -0.697  -1.755  0.00  0.00    -0.050 A 
ATOM     15  C   UNL     1       0.486  -1.233  -0.745  0.00  0.00    +0.005 A 
ATOM     16  C   UNL     1       0.530  -2.600  -0.557  0.00  0.00    +0.023 A 
ATOM     17  C   UNL     1      -0.208  -3.437  -1.383  0.00  0.00    +0.033 A 
ATOM     18  C   UNL     1      -0.989  -2.896  -2.396  0.00  0.00    +0.023 A 
ATOM     19  C   UNL     1      -1.033  -1.527  -2.576  0.00  0.00    +0.005 A 
ENDBRANCH   9  17
ENDBRANCH   7  10
ENDBRANCH   6   7
ENDBRANCH   1   6
BRANCH   5  20
ATOM     20  C   UNL     1       2.176  -9.121   4.171  0.00  0.00    +0.152 C 
BRANCH  20  21
ATOM     21  C   UNL     1       1.049  -9.139   5.172  0.00  0.00    -0.013 C 
ATOM     22  C   UNL     1       1.192  -9.775   6.308  0.00  0.00    +0.005 C 
ENDBRANCH  20  21
ENDBRANCH   5  20
BRANCH   4  23
ATOM     23  C   UNL     1       2.185 -12.115   3.206  0.00  0.00    +0.172 C 
BRANCH  23  24
ATOM     24  C   UNL     1       3.647 -12.327   2.909  0.00  0.00    +0.225 C 
ATOM     25  O   UNL     1       4.227 -11.577   2.153  0.00  0.00    -0.275 OA
ATOM     26  N   UNL     1       4.310 -13.351   3.483  0.00  0.00    -0.285 N 
ATOM     27  H   UNL     1       3.830 -13.994   4.028  0.00  0.00    +0.155 HD
BRANCH  26  28
ATOM     28  C   UNL     1       5.689 -13.485   3.294  0.00  0.00    +0.034 A 
ATOM     29  C   UNL     1       6.264 -14.748   3.237  0.00  0.00    +0.026 A 
ATOM     30  C   UNL     1       7.627 -14.877   3.050  0.00  0.00    -0.048 A 
ATOM     31  C   UNL     1       8.418 -13.750   2.919  0.00  0.00    +0.006 A 
ATOM     32  C   UNL     1       7.849 -12.491   2.976  0.00  0.00    -0.048 A 
ATOM     33  C   UNL     1       6.486 -12.355   3.157  0.00  0.00    +0.026 A 
ATOM     34  C   UNL     1       8.715 -11.266   2.833  0.00  0.00    +0.044 C 
ATOM     35  C   UNL     1       8.252 -16.247   2.989  0.00  0.00    +0.044 C 
ENDBRANCH  26  28
ENDBRANCH  23  24
ENDBRANCH   4  23
TORSDOF 9
