REMARK  Name = ZINC36637325
REMARK  10 active torsions:
REMARK  status: ('A' for Active; 'I' for Inactive)
REMARK    1  A    between atoms: C_1  and  N_2
REMARK    2  A    between atoms: N_2  and  C_3
REMARK    3  A    between atoms: N_2  and  C_4
REMARK    4  A    between atoms: C_4  and  C_5
REMARK    5  A    between atoms: C_5  and  N_6
REMARK    6  A    between atoms: C_17  and  C_19
REMARK    7  A    between atoms: C_22  and  S_25
REMARK    8  A    between atoms: S_25  and  N_28
REMARK    9  A    between atoms: N_28  and  C_29
REMARK   10  A    between atoms: N_28  and  C_30
REMARK                            x       y       z     vdW  Elec       q    Type
REMARK                         _______ _______ _______ _____ _____    ______ ____
ROOT
ATOM      1  N   UNL     1      -2.660  -2.903   0.020  0.00  0.00    -0.248 N 
ATOM      2  C   UNL     1      -3.262  -3.045  -1.219  0.00  0.00    +0.168 A 
ATOM      3  N   UNL     1      -2.702  -3.100  -2.404  0.00  0.00    -0.224 NA
ATOM      4  C   UNL     1      -3.420  -3.242  -3.540  0.00  0.00    +0.080 A 
ATOM      5  C   UNL     1      -2.944  -3.313  -4.870  0.00  0.00    +0.032 A 
ATOM      6  C   UNL     1      -3.814  -3.458  -5.919  0.00  0.00    +0.040 A 
ATOM      7  C   UNL     1      -5.186  -3.540  -5.717  0.00  0.00    +0.125 A 
ATOM      8  C   UNL     1      -5.686  -3.474  -4.428  0.00  0.00    +0.055 A 
ATOM      9  C   UNL     1      -4.820  -3.329  -3.373  0.00  0.00    +0.043 A 
ATOM     10  S   UNL     1      -4.998  -3.209  -1.609  0.00  0.00    -0.052 S 
ATOM     11  F   UNL     1      -6.023  -3.682  -6.768  0.00  0.00    -0.205 F 
ATOM     12  C   UNL     1      -3.414  -2.875   1.137  0.00  0.00    +0.252 C 
ATOM     13  O   UNL     1      -4.616  -3.036   1.062  0.00  0.00    -0.270 OA
ENDROOT
BRANCH  12  14
ATOM     14  C   UNL     1      -2.779  -2.648   2.452  0.00  0.00    +0.037 A 
ATOM     15  C   UNL     1      -1.553  -1.985   2.534  0.00  0.00    +0.015 A 
ATOM     16  C   UNL     1      -0.966  -1.777   3.764  0.00  0.00    +0.029 A 
ATOM     17  C   UNL     1      -1.589  -2.224   4.916  0.00  0.00    +0.106 A 
ATOM     18  C   UNL     1      -2.804  -2.882   4.842  0.00  0.00    +0.029 A 
ATOM     19  C   UNL     1      -3.405  -3.091   3.618  0.00  0.00    +0.015 A 
BRANCH  17  20
ATOM     20  S   UNL     1      -0.831  -1.955   6.484  0.00  0.00    +0.061 S 
ATOM     21  O   UNL     1      -1.347  -2.948   7.360  0.00  0.00    -0.153 OA
ATOM     22  O   UNL     1       0.560  -1.801   6.242  0.00  0.00    -0.153 OA
BRANCH  20  23
ATOM     23  N   UNL     1      -1.377  -0.496   7.048  0.00  0.00    -0.177 NA
ATOM     24  C   UNL     1      -2.590  -0.435   7.867  0.00  0.00    +0.132 C 
BRANCH  23  25
ATOM     25  C   UNL     1      -0.647   0.733   6.727  0.00  0.00    +0.080 C 
ATOM     26  C   UNL     1      -0.185   1.404   8.022  0.00  0.00    +0.020 C 
ATOM     27  C   UNL     1       0.577   2.687   7.688  0.00  0.00    +0.002 C 
ATOM     28  C   UNL     1      -0.341   3.640   6.919  0.00  0.00    +0.000 C 
ATOM     29  C   UNL     1      -0.803   2.969   5.624  0.00  0.00    +0.002 C 
ATOM     30  C   UNL     1      -1.565   1.685   5.958  0.00  0.00    +0.020 C 
ENDBRANCH  23  25
ENDBRANCH  20  23
ENDBRANCH  17  20
ENDBRANCH  12  14
BRANCH   1  31
ATOM     31  C   UNL     1      -1.203  -2.784   0.117  0.00  0.00    +0.097 C 
BRANCH  31  32
ATOM     32  C   UNL     1      -0.771  -1.400  -0.372  0.00  0.00    -0.060 C 
BRANCH  32  34
ATOM     33  C   UNL     1       1.110  -0.049  -0.998  0.00  0.00    -0.097 C 
ATOM     34  N   UNL     1       0.696  -1.330  -0.408  0.00  0.00    +0.377 N 
ATOM     35  C   UNL     1       1.226  -1.434   0.958  0.00  0.00    -0.097 C 
ATOM     36  H   UNL     1       1.055  -2.089  -0.967  0.00  0.00    -0.083 HD
ENDBRANCH  32  34
ENDBRANCH  31  32
ENDBRANCH   1  31
TORSDOF 7
