REMARK  Name = ZINC08000964
REMARK  4 active torsions:
REMARK  status: ('A' for Active; 'I' for Inactive)
REMARK    1  A    between atoms: C_3  and  C_6
REMARK    2  A    between atoms: N_15  and  C_16
REMARK    3  A    between atoms: C_16  and  C_17
REMARK    4  A    between atoms: N_22  and  C_23
REMARK                            x       y       z     vdW  Elec       q    Type
REMARK                         _______ _______ _______ _____ _____    ______ ____
ROOT
ATOM      1  C   UNL     1       3.761   1.845  -0.024  0.00  0.00    +0.002 C 
ATOM      2  C   UNL     1       4.343   1.770   1.384  0.00  0.00    -0.046 A 
ATOM      3  C   UNL     1       3.636   2.097   2.538  0.00  0.00    +0.010 A 
ATOM      4  C   UNL     1       4.233   1.997   3.749  0.00  0.00    +0.045 A 
ATOM      5  S   UNL     1       5.867   1.421   3.308  0.00  0.00    -0.101 S 
ATOM      6  C   UNL     1       5.631   1.359   1.555  0.00  0.00    -0.010 A 
ATOM      7  C   UNL     1       6.586   0.961   0.477  0.00  0.00    +0.024 C 
ATOM      8  C   UNL     1       5.987   1.418  -0.864  0.00  0.00    -0.072 C 
ATOM      9  N   UNL     1       4.575   1.015  -0.920  0.00  0.00    +0.393 N 
ATOM     10  H   UNL     1       4.496   0.049  -0.640  0.00  0.00    -0.080 HD
ENDROOT
BRANCH   1  13
ATOM     11  C   UNL     1      -0.016   1.351   0.009  0.00  0.00    +0.008 A 
ATOM     12  C   UNL     1       1.183   2.038   0.002  0.00  0.00    +0.010 A 
ATOM     13  C   UNL     1       2.343   1.336  -0.013  0.00  0.00    -0.019 A 
ATOM     14  S   UNL     1       1.754  -0.349  -0.017  0.00  0.00    -0.103 S 
ATOM     15  C   UNL     1       0.002  -0.004   0.002  0.00  0.00    +0.045 A 
ENDBRANCH   1  13
BRANCH   9  16
ATOM     16  C   UNL     1       4.082   1.161  -2.296  0.00  0.00    +0.020 C 
BRANCH  16  17
ATOM     17  C   UNL     1       4.833   0.219  -3.201  0.00  0.00    +0.204 C 
ATOM     18  O   UNL     1       5.694  -0.502  -2.745  0.00  0.00    -0.277 OA
ATOM     19  N   UNL     1       4.547   0.178  -4.518  0.00  0.00    -0.242 N 
ATOM     20  C   UNL     1       5.219  -0.664  -5.327  0.00  0.00    +0.306 C 
ATOM     21  O   UNL     1       6.082  -1.387  -4.870  0.00  0.00    -0.252 OA
ATOM     22  N   UNL     1       4.933  -0.704  -6.644  0.00  0.00    -0.296 N 
ATOM     23  H   UNL     1       3.858   0.756  -4.883  0.00  0.00    +0.159 HD
ATOM     24  H   UNL     1       4.244  -0.127  -7.009  0.00  0.00    +0.151 HD
BRANCH  22  25
ATOM     25  C   UNL     1       5.663  -1.620  -7.524  0.00  0.00    +0.074 C 
ATOM     26  C   UNL     1       6.946  -0.941  -8.046  0.00  0.00    +0.022 C 
ATOM     27  C   UNL     1       7.076  -1.443  -9.505  0.00  0.00    +0.002 C 
ATOM     28  C   UNL     1       5.605  -1.468  -9.989  0.00  0.00    +0.002 C 
ATOM     29  C   UNL     1       4.810  -1.955  -8.760  0.00  0.00    +0.022 C 
ENDBRANCH  22  25
ENDBRANCH  16  17
ENDBRANCH   9  16
TORSDOF 4
