REMARK  Name = ZINC65424672
REMARK  7 active torsions:
REMARK  status: ('A' for Active; 'I' for Inactive)
REMARK    1  A    between atoms: C_1  and  C_2
REMARK    2  A    between atoms: C_9  and  C_12
REMARK    3  A    between atoms: C_15  and  N_19
REMARK    4  A    between atoms: C_16  and  C_18
REMARK    5  A    between atoms: C_20  and  C_22
REMARK    6  A    between atoms: C_22  and  C_23
REMARK    7  A    between atoms: C_23  and  C_24
REMARK                            x       y       z     vdW  Elec       q    Type
REMARK                         _______ _______ _______ _____ _____    ______ ____
ROOT
ATOM      1  C   UNL     1      -1.173  -5.111   2.008  0.00  0.00    +0.011 A 
ATOM      2  C   UNL     1      -2.353  -4.450   2.297  0.00  0.00    +0.011 A 
ATOM      3  C   UNL     1      -3.470  -5.164   2.682  0.00  0.00    +0.024 A 
ATOM      4  C   UNL     1      -3.408  -6.548   2.779  0.00  0.00    +0.036 A 
ATOM      5  C   UNL     1      -2.221  -7.209   2.488  0.00  0.00    -0.029 A 
ATOM      6  C   UNL     1      -1.109  -6.489   2.099  0.00  0.00    +0.014 A 
ATOM      7  C   UNL     1      -2.149  -8.711   2.592  0.00  0.00    +0.045 C 
ENDROOT
BRANCH   1  16
ATOM      8  C   UNL     1      -0.077   1.518  -0.030  0.00  0.00    +0.044 C 
ATOM      9  C   UNL     1      -0.050   0.011  -0.036  0.00  0.00    -0.048 A 
ATOM     10  C   UNL     1      -0.050  -0.675  -1.236  0.00  0.00    +0.007 A 
ATOM     11  C   UNL     1      -0.026  -2.056  -1.248  0.00  0.00    +0.048 A 
ATOM     12  C   UNL     1      -0.001  -2.764  -0.053  0.00  0.00    +0.144 A 
ATOM     13  C   UNL     1       0.000  -2.072   1.154  0.00  0.00    +0.073 A 
ATOM     14  C   UNL     1      -0.019  -0.684   1.158  0.00  0.00    +0.030 A 
ATOM     15  N   UNL     1       0.028  -2.996   2.208  0.00  0.00    -0.303 N 
ATOM     16  C   UNL     1       0.044  -4.327   1.588  0.00  0.00    +0.292 C 
ATOM     17  O   UNL     1       0.025  -4.105   0.176  0.00  0.00    -0.465 OA
ATOM     18  H   UNL     1       0.035  -2.795   3.157  0.00  0.00    +0.150 HD
ENDBRANCH   1  16
BRANCH   4  19
ATOM     19  N   UNL     1      -4.538  -7.276   3.169  0.00  0.00    -0.285 N 
ATOM     20  C   UNL     1      -5.395  -6.757   4.071  0.00  0.00    +0.218 C 
ATOM     21  O   UNL     1      -5.231  -5.628   4.482  0.00  0.00    -0.275 OA
ATOM     22  H   UNL     1      -4.704  -8.153   2.791  0.00  0.00    +0.155 HD
BRANCH  20  23
ATOM     23  C   UNL     1      -6.556  -7.579   4.567  0.00  0.00    +0.100 C 
BRANCH  23  24
ATOM     24  C   UNL     1      -7.366  -6.762   5.575  0.00  0.00    +0.043 C 
BRANCH  24  25
ATOM     25  C   UNL     1      -8.527  -7.585   6.072  0.00  0.00    -0.027 C 
ATOM     26  C   UNL     1      -8.594  -8.329   7.177  0.00  0.00    +0.135 C 
ATOM     27  N   UNL     1      -9.804  -8.921   7.285  0.00  0.00    -0.162 NA
ATOM     28  N   UNL     1     -10.584  -8.663   6.365  0.00  0.00    -0.183 NA
ATOM     29  C   UNL     1      -9.894  -7.754   5.433  0.00  0.00    +0.198 C 
ENDBRANCH  24  25
ENDBRANCH  23  24
ENDBRANCH  20  23
ENDBRANCH   4  19
TORSDOF 5
