REMARK  Name = ZINC59397095
REMARK  5 active torsions:
REMARK  status: ('A' for Active; 'I' for Inactive)
REMARK    1  A    between atoms: C_1  and  C_2
REMARK    2  A    between atoms: C_2  and  C_3
REMARK    3  A    between atoms: N_9  and  C_10
REMARK    4  A    between atoms: N_14  and  C_18
REMARK    5  A    between atoms: C_21  and  C_24
REMARK                            x       y       z     vdW  Elec       q    Type
REMARK                         _______ _______ _______ _____ _____    ______ ____
ROOT
ATOM      1  C   UNL     1      -1.160   0.530   2.380  0.00  0.00    +0.091 C 
ATOM      2  C   UNL     1      -1.872   0.802   3.501  0.00  0.00    +0.091 C 
ATOM      3  C   UNL     1      -2.972   1.689   3.681  0.00  0.00    +0.264 C 
ATOM      4  O   UNL     1      -3.410   2.343   2.751  0.00  0.00    -0.269 OA
ATOM      5  N   UNL     1      -3.505   1.783   4.887  0.00  0.00    -0.224 N 
ATOM      6  C   UNL     1      -3.019   1.058   5.920  0.00  0.00    +0.125 C 
ATOM      7  S   UNL     1      -3.547   1.021   7.548  0.00  0.00    -0.027 S 
ATOM      8  S   UNL     1      -1.692   0.142   5.152  0.00  0.00    -0.059 S 
ENDROOT
BRANCH   5   9
ATOM      9  C   UNL     1      -4.588   2.646   5.099  0.00  0.00    +0.043 A 
ATOM     10  C   UNL     1      -5.822   2.368   4.525  0.00  0.00    +0.024 A 
ATOM     11  C   UNL     1      -6.888   3.221   4.736  0.00  0.00    +0.005 A 
ATOM     12  C   UNL     1      -6.727   4.350   5.517  0.00  0.00    -0.050 A 
ATOM     13  C   UNL     1      -5.500   4.630   6.090  0.00  0.00    +0.005 A 
ATOM     14  C   UNL     1      -4.432   3.778   5.888  0.00  0.00    +0.024 A 
ATOM     15  C   UNL     1      -7.892   5.279   5.744  0.00  0.00    +0.044 C 
ENDBRANCH   5   9
BRANCH   1  21
ATOM     16  C   UNL     1       0.915  -0.440   1.466  0.00  0.00    +0.073 C 
ATOM     17  C   UNL     1       0.963  -1.760   0.689  0.00  0.00    +0.022 C 
ATOM     18  C   UNL     1       0.986  -2.928   1.677  0.00  0.00    +0.003 C 
ATOM     19  C   UNL     1      -0.291  -2.910   2.521  0.00  0.00    +0.019 C 
ATOM     20  C   UNL     1      -0.353  -1.604   3.318  0.00  0.00    +0.105 C 
ATOM     21  N   UNL     1      -0.228  -0.473   2.389  0.00  0.00    -0.332 N 
BRANCH  16  23
ATOM     22  C   UNL     1       2.008   0.845  -0.377  0.00  0.00    +0.006 C 
ATOM     23  C   UNL     1       0.752   0.725   0.488  0.00  0.00    +0.019 C 
ENDBRANCH  16  23
ENDBRANCH   1  21
TORSDOF 3
