REMARK  Name = ZINC02696493
REMARK  10 active torsions:
REMARK  status: ('A' for Active; 'I' for Inactive)
REMARK    1  A    between atoms: C_1  and  C_2
REMARK    2  A    between atoms: C_2  and  O_3
REMARK    3  A    between atoms: O_3  and  C_4
REMARK    4  A    between atoms: C_4  and  C_6
REMARK    5  A    between atoms: C_7  and  N_28
REMARK    6  A    between atoms: C_11  and  C_13
REMARK    7  A    between atoms: C_17  and  O_19
REMARK    8  A    between atoms: O_19  and  C_20
REMARK    9  A    between atoms: C_24  and  C_26
REMARK   10  A    between atoms: C_24  and  C_27
REMARK                            x       y       z     vdW  Elec       q    Type
REMARK                         _______ _______ _______ _____ _____    ______ ____
ROOT
ATOM      1  C   UNL     1      -2.363   0.930  -0.085  0.00  0.00    +0.105 C 
ATOM      2  C   UNL     1      -1.205   1.636  -0.007  0.00  0.00    +0.195 C 
ATOM      3  O   UNL     1      -1.210   2.972   0.107  0.00  0.00    -0.446 OA
ATOM      4  C   UNL     1      -2.289   3.674  -0.294  0.00  0.00    +0.115 C 
ATOM      5  C   UNL     1      -3.503   3.100  -0.383  0.00  0.00    +0.045 C 
ATOM      6  C   UNL     1      -3.688   1.639  -0.054  0.00  0.00    +0.098 C 
ATOM      7  C   UNL     1      -4.634   3.840  -0.780  0.00  0.00    +0.164 C 
ATOM      8  O   UNL     1      -5.710   3.283  -0.865  0.00  0.00    -0.292 OA
ATOM      9  C   UNL     1      -4.534   5.306  -1.102  0.00  0.00    +0.086 C 
ATOM     10  C   UNL     1      -3.374   5.910  -0.302  0.00  0.00    -0.021 C 
ATOM     11  C   UNL     1      -2.099   5.133  -0.636  0.00  0.00    +0.081 C 
ATOM     12  C   UNL     1      -3.668   5.798   1.195  0.00  0.00    +0.012 C 
ATOM     13  C   UNL     1      -3.194   7.381  -0.682  0.00  0.00    +0.012 C 
ENDROOT
BRANCH   6  14
ATOM     14  C   UNL     1      -4.293   1.508   1.320  0.00  0.00    -0.032 A 
ATOM     15  C   UNL     1      -3.618   2.001   2.421  0.00  0.00    +0.005 A 
ATOM     16  C   UNL     1      -4.173   1.888   3.683  0.00  0.00    +0.004 A 
ATOM     17  C   UNL     1      -5.399   1.272   3.846  0.00  0.00    +0.045 A 
ATOM     18  C   UNL     1      -6.076   0.772   2.744  0.00  0.00    +0.120 A 
ATOM     19  C   UNL     1      -5.519   0.892   1.478  0.00  0.00    +0.050 A 
BRANCH  18  20
ATOM     20  O   UNL     1      -7.282   0.165   2.902  0.00  0.00    -0.495 OA
ATOM     21  C   UNL     1      -7.793   0.077   4.233  0.00  0.00    +0.277 C 
ENDBRANCH  18  20
ENDBRANCH   6  14
BRANCH   2  22
ATOM     22  N   UNL     1      -0.010   0.970  -0.040  0.00  0.00    -0.329 N 
ATOM     23  H   UNL     1       0.083   0.166  -0.576  0.00  0.00    +0.145 HD
ATOM     24  H   UNL     1       0.746   1.303   0.469  0.00  0.00    +0.145 HD
ENDBRANCH   2  22
BRANCH   1  25
ATOM     25  C   UNL     1      -2.322  -0.469  -0.194  0.00  0.00    +0.341 C 
ATOM     26  O   UNL     1      -1.258  -1.055  -0.105  0.00  0.00    -0.245 OA
BRANCH  25  27
ATOM     27  O   UNL     1      -3.462  -1.164  -0.396  0.00  0.00    -0.462 OA
BRANCH  27  29
ATOM     28  C   UNL     1      -4.731  -3.195  -0.724  0.00  0.00    +0.048 C 
ATOM     29  C   UNL     1      -3.346  -2.585  -0.497  0.00  0.00    +0.229 C 
ENDBRANCH  27  29
ENDBRANCH  25  27
ENDBRANCH   1  25
TORSDOF 6
