REMARK  Name = ZINC39665514
REMARK  9 active torsions:
REMARK  status: ('A' for Active; 'I' for Inactive)
REMARK    1  A    between atoms: C_1  and  C_2
REMARK    2  A    between atoms: C_2  and  C_4
REMARK    3  A    between atoms: C_2  and  O_28
REMARK    4  A    between atoms: C_4  and  N_5
REMARK    5  A    between atoms: C_6  and  C_8
REMARK    6  A    between atoms: C_19  and  C_21
REMARK    7  A    between atoms: O_28  and  C_29
REMARK    8  A    between atoms: C_32  and  O_35
REMARK    9  A    between atoms: O_35  and  C_36
REMARK                            x       y       z     vdW  Elec       q    Type
REMARK                         _______ _______ _______ _____ _____    ______ ____
ROOT
ATOM      1  C   UNL     1       1.914  -4.419   3.248  0.00  0.00    +0.100 C 
ATOM      2  C   UNL     1       2.509  -5.039   1.964  0.00  0.00    +0.121 C 
ATOM      3  N   UNL     1       3.957  -5.175   2.249  0.00  0.00    -0.296 N 
ATOM      4  C   UNL     1       4.014  -5.607   3.667  0.00  0.00    +0.115 C 
ATOM      5  C   UNL     1       2.903  -4.797   4.364  0.00  0.00    -0.004 C 
ATOM      6  C   UNL     1       3.488  -3.539   4.999  0.00  0.00    -0.010 C 
ATOM      7  C   UNL     1       4.425  -3.939   6.143  0.00  0.00    -0.082 C 
ATOM      8  N   UNL     1       3.678  -4.714   7.141  0.00  0.00    +0.379 N 
ATOM      9  C   UNL     1       3.197  -5.966   6.545  0.00  0.00    -0.082 C 
ATOM     10  C   UNL     1       2.209  -5.652   5.419  0.00  0.00    -0.010 C 
ATOM     11  C   UNL     1       4.989  -4.955   1.411  0.00  0.00    +0.249 C 
ATOM     12  O   UNL     1       6.125  -5.194   1.769  0.00  0.00    -0.270 OA
ATOM     13  H   UNL     1       4.281  -4.924   7.922  0.00  0.00    -0.086 HD
ATOM     14  H   UNL     1       2.890  -4.173   7.464  0.00  0.00    -0.086 HD
ENDROOT
BRANCH  11  15
ATOM     15  C   UNL     1       4.738  -4.424   0.055  0.00  0.00    +0.072 A 
ATOM     16  C   UNL     1       3.654  -4.889  -0.692  0.00  0.00    +0.016 A 
ATOM     17  C   UNL     1       3.425  -4.389  -1.956  0.00  0.00    +0.001 A 
ATOM     18  C   UNL     1       4.268  -3.427  -2.487  0.00  0.00    +0.003 A 
ATOM     19  C   UNL     1       5.344  -2.961  -1.756  0.00  0.00    +0.039 A 
ATOM     20  C   UNL     1       5.582  -3.449  -0.484  0.00  0.00    +0.135 A 
ATOM     21  F   UNL     1       6.631  -2.989   0.233  0.00  0.00    -0.205 F 
ENDBRANCH  11  15
BRANCH   1  23
ATOM     22  N   UNL     1       0.943  -2.229   3.865  0.00  0.00    -0.312 N 
ATOM     23  C   UNL     1       1.822  -2.921   3.113  0.00  0.00    +0.218 C 
ATOM     24  O   UNL     1       2.540  -2.337   2.328  0.00  0.00    -0.275 OA
ATOM     25  H   UNL     1       0.370  -2.696   4.493  0.00  0.00    +0.149 HD
BRANCH  22  26
ATOM     26  C   UNL     1       0.854  -0.773   3.734  0.00  0.00    +0.148 C 
BRANCH  26  28
ATOM     27  C   UNL     1      -0.395   1.263   4.467  0.00  0.00    +0.053 C 
ATOM     28  C   UNL     1      -0.213  -0.239   4.692  0.00  0.00    +0.187 C 
BRANCH  28  29
ATOM     29  O   UNL     1       0.198  -0.473   6.040  0.00  0.00    -0.488 OA
BRANCH  29  30
ATOM     30  C   UNL     1      -0.782  -0.541   6.981  0.00  0.00    +0.121 A 
ATOM     31  C   UNL     1      -0.450  -0.727   8.315  0.00  0.00    +0.049 A 
ATOM     32  C   UNL     1      -1.445  -0.796   9.271  0.00  0.00    +0.049 A 
ATOM     33  C   UNL     1      -2.776  -0.680   8.897  0.00  0.00    +0.120 A 
ATOM     34  C   UNL     1      -3.107  -0.494   7.563  0.00  0.00    +0.049 A 
ATOM     35  C   UNL     1      -2.112  -0.420   6.608  0.00  0.00    +0.049 A 
BRANCH  33  36
ATOM     36  O   UNL     1      -3.755  -0.750   9.837  0.00  0.00    -0.495 OA
ATOM     37  C   UNL     1      -5.103  -0.623   9.381  0.00  0.00    +0.277 C 
ENDBRANCH  33  36
ENDBRANCH  29  30
ENDBRANCH  28  29
ENDBRANCH  26  28
ENDBRANCH  22  26
ENDBRANCH   1  23
TORSDOF 7
