REMARK  Name = ZINC02158799
REMARK  9 active torsions:
REMARK  status: ('A' for Active; 'I' for Inactive)
REMARK    1  A    between atoms: C_4  and  C_7
REMARK    2  A    between atoms: C_8  and  C_36
REMARK    3  A    between atoms: C_9  and  N_24
REMARK    4  A    between atoms: N_10  and  C_18
REMARK    5  A    between atoms: C_11  and  C_12
REMARK    6  A    between atoms: C_18  and  C_19
REMARK    7  A    between atoms: C_25  and  C_27
REMARK    8  A    between atoms: C_27  and  O_28
REMARK    9  A    between atoms: O_28  and  C_29
REMARK                            x       y       z     vdW  Elec       q    Type
REMARK                         _______ _______ _______ _____ _____    ______ ____
ROOT
ATOM      1  C   UNL     1      -1.871  -2.489   3.046  0.00  0.00    +0.027 A 
ATOM      2  C   UNL     1      -2.686  -1.270   3.175  0.00  0.00    +0.100 A 
ATOM      3  C   UNL     1      -2.410  -0.499   2.055  0.00  0.00    +0.124 A 
ATOM      4  N   UNL     1      -1.507  -1.159   1.284  0.00  0.00    -0.320 N 
ATOM      5  C   UNL     1      -1.174  -2.361   1.862  0.00  0.00    +0.060 A 
ENDROOT
BRANCH   1   9
ATOM      6  C   UNL     1      -1.708  -5.750   5.766  0.00  0.00    +0.000 A 
ATOM      7  C   UNL     1      -1.227  -4.510   6.147  0.00  0.00    +0.001 A 
ATOM      8  C   UNL     1      -1.277  -3.448   5.269  0.00  0.00    +0.008 A 
ATOM      9  C   UNL     1      -1.814  -3.625   3.994  0.00  0.00    -0.015 A 
ATOM     10  C   UNL     1      -2.303  -4.876   3.617  0.00  0.00    +0.008 A 
ATOM     11  C   UNL     1      -2.243  -5.933   4.503  0.00  0.00    +0.001 A 
ENDBRANCH   1   9
BRANCH   5  12
ATOM     12  C   UNL     1      -0.226  -3.349   1.309  0.00  0.00    -0.001 A 
ATOM     13  C   UNL     1      -0.403  -3.842   0.014  0.00  0.00    +0.010 A 
ATOM     14  C   UNL     1       0.490  -4.761  -0.498  0.00  0.00    +0.001 A 
ATOM     15  C   UNL     1       1.551  -5.202   0.272  0.00  0.00    +0.000 A 
ATOM     16  C   UNL     1       1.729  -4.722   1.558  0.00  0.00    +0.001 A 
ATOM     17  C   UNL     1       0.848  -3.799   2.081  0.00  0.00    +0.010 A 
ENDBRANCH   5  12
BRANCH   3  18
ATOM     18  N   UNL     1      -2.964   0.738   1.770  0.00  0.00    -0.268 N 
ATOM     19  C   UNL     1      -3.335   1.557   2.774  0.00  0.00    +0.256 C 
ATOM     20  O   UNL     1      -3.088   1.259   3.923  0.00  0.00    -0.272 OA
ATOM     21  H   UNL     1      -3.084   1.015   0.848  0.00  0.00    +0.156 HD
BRANCH  19  22
ATOM     22  C   UNL     1      -4.057   2.844   2.468  0.00  0.00    +0.324 C 
BRANCH  22  23
ATOM     23  O   UNL     1      -4.341   3.533   3.688  0.00  0.00    -0.483 OA
BRANCH  23  24
ATOM     24  C   UNL     1      -4.994   4.720   3.588  0.00  0.00    +0.121 A 
ATOM     25  C   UNL     1      -5.349   5.216   2.342  0.00  0.00    +0.047 A 
ATOM     26  C   UNL     1      -6.017   6.421   2.243  0.00  0.00    +0.023 A 
ATOM     27  C   UNL     1      -6.323   7.139   3.385  0.00  0.00    +0.041 A 
ATOM     28  C   UNL     1      -5.966   6.649   4.629  0.00  0.00    +0.023 A 
ATOM     29  C   UNL     1      -5.302   5.442   4.732  0.00  0.00    +0.047 A 
ATOM     30 CL   UNL     1      -7.157   8.656   3.258  0.00  0.00    -0.084 Cl
ENDBRANCH  23  24
ENDBRANCH  22  23
ENDBRANCH  19  22
ENDBRANCH   3  18
BRANCH   2  31
ATOM     31  C   UNL     1      -3.584  -0.945   4.242  0.00  0.00    +0.103 C 
ATOM     32  N   UNL     1      -4.296  -0.688   5.089  0.00  0.00    -0.191 NA
ENDBRANCH   2  31
BRANCH   4  33
ATOM     33  C   UNL     1      -0.970  -0.662   0.015  0.00  0.00    +0.197 C 
BRANCH  33  34
ATOM     34  C   UNL     1       0.204   0.243   0.287  0.00  0.00    +0.124 A 
ATOM     35  C   UNL     1       1.490  -0.142   0.378  0.00  0.00    +0.046 A 
ATOM     36  C   UNL     1       2.248   1.022   0.640  0.00  0.00    +0.041 A 
ATOM     37  C   UNL     1       1.381   2.049   0.693  0.00  0.00    +0.195 A 
ATOM     38  O   UNL     1       0.144   1.571   0.478  0.00  0.00    -0.466 OA
ENDBRANCH  33  34
ENDBRANCH   4  33
TORSDOF 9
