REMARK  Name = ZINC48898645
REMARK  5 active torsions:
REMARK  status: ('A' for Active; 'I' for Inactive)
REMARK    1  A    between atoms: C_4  and  O_17
REMARK    2  A    between atoms: C_5  and  C_7
REMARK    3  A    between atoms: O_17  and  C_18
REMARK    4  A    between atoms: C_18  and  C_20
REMARK    5  A    between atoms: C_20  and  C_21
REMARK                            x       y       z     vdW  Elec       q    Type
REMARK                         _______ _______ _______ _____ _____    ______ ____
ROOT
ATOM      1  C   UNL     1      -0.112   1.222  -0.096  0.00  0.00    +0.001 A 
ATOM      2  C   UNL     1       0.989   2.061  -0.111  0.00  0.00    +0.004 A 
ATOM      3  C   UNL     1       2.266   1.537  -0.057  0.00  0.00    +0.047 A 
ATOM      4  C   UNL     1       2.452   0.166   0.013  0.00  0.00    +0.142 A 
ATOM      5  C   UNL     1       1.341  -0.686   0.029  0.00  0.00    +0.062 A 
ATOM      6  C   UNL     1       0.056  -0.146  -0.027  0.00  0.00    +0.015 A 
ENDROOT
BRANCH   5   7
ATOM      7  C   UNL     1       1.529  -2.151   0.102  0.00  0.00    +0.168 A 
ATOM      8  N   UNL     1       2.309  -2.801   0.940  0.00  0.00    -0.129 NA
ATOM      9  N   UNL     1       2.219  -4.067   0.724  0.00  0.00    -0.134 NA
ATOM     10  C   UNL     1       1.383  -4.294  -0.249  0.00  0.00    +0.134 A 
ATOM     11  N   UNL     1       0.921  -3.090  -0.680  0.00  0.00    -0.311 N 
ATOM     12  C   UNL     1      -0.021  -2.858  -1.775  0.00  0.00    +0.125 C 
ATOM     13  C   UNL     1      -0.941  -4.074  -1.917  0.00  0.00    +0.022 C 
ATOM     14  C   UNL     1      -0.314  -5.086  -2.873  0.00  0.00    +0.002 C 
ATOM     15  C   UNL     1       1.023  -5.581  -2.330  0.00  0.00    +0.008 C 
ATOM     16  C   UNL     1       0.974  -5.634  -0.805  0.00  0.00    +0.076 C 
ENDBRANCH   5   7
BRANCH   4  17
ATOM     17  O   UNL     1       3.708  -0.350   0.066  0.00  0.00    -0.425 OA
BRANCH  17  18
ATOM     18  C   UNL     1       4.250  -0.807  -1.074  0.00  0.00    +0.313 C 
ATOM     19  O   UNL     1       3.666  -0.663  -2.121  0.00  0.00    -0.250 OA
BRANCH  18  20
ATOM     20  C   UNL     1       5.589  -1.499  -1.047  0.00  0.00    +0.124 C 
BRANCH  20  21
ATOM     21  C   UNL     1       5.975  -1.917  -2.467  0.00  0.00    -0.000 C 
ATOM     22  C   UNL     1       4.986  -2.968  -2.976  0.00  0.00    +0.004 C 
ATOM     23  C   UNL     1       5.373  -3.386  -4.396  0.00  0.00    +0.000 C 
ATOM     24  C   UNL     1       6.784  -3.976  -4.388  0.00  0.00    +0.000 C 
ATOM     25  C   UNL     1       7.773  -2.925  -3.879  0.00  0.00    +0.000 C 
ATOM     26  C   UNL     1       7.387  -2.507  -2.459  0.00  0.00    +0.004 C 
ENDBRANCH  20  21
ENDBRANCH  18  20
ENDBRANCH  17  18
ENDBRANCH   4  17
TORSDOF 5
