REMARK  Name = ZINC39230281
REMARK  6 active torsions:
REMARK  status: ('A' for Active; 'I' for Inactive)
REMARK    1  A    between atoms: C_1  and  C_2
REMARK    2  A    between atoms: C_9  and  C_10
REMARK    3  A    between atoms: C_9  and  C_11
REMARK    4  A    between atoms: C_13  and  N_15
REMARK    5  A    between atoms: C_16  and  C_18
REMARK    6  A    between atoms: C_28  and  C_30
REMARK                            x       y       z     vdW  Elec       q    Type
REMARK                         _______ _______ _______ _____ _____    ______ ____
ROOT
ATOM      1  C   UNL     1       4.577  -0.697   1.144  0.00  0.00    +0.055 A 
ATOM      2  C   UNL     1       5.626  -0.650   2.076  0.00  0.00    +0.018 A 
ATOM      3  C   UNL     1       6.909  -0.790   1.622  0.00  0.00    +0.044 A 
ATOM      4  C   UNL     1       7.136  -0.973   0.259  0.00  0.00    +0.122 A 
ATOM      5  N   UNL     1       6.127  -1.013  -0.601  0.00  0.00    -0.240 NA
ATOM      6  C   UNL     1       4.878  -0.889  -0.205  0.00  0.00    +0.126 A 
ATOM      7  N   UNL     1       8.433  -1.114  -0.205  0.00  0.00    -0.308 N 
ATOM      8  C   UNL     1       8.835  -1.203  -1.620  0.00  0.00    +0.107 C 
ATOM      9  C   UNL     1      10.194  -1.948  -1.601  0.00  0.00    +0.021 C 
ATOM     10  C   UNL     1      10.844  -1.376  -0.313  0.00  0.00    +0.029 C 
ATOM     11  C   UNL     1       9.639  -1.194   0.634  0.00  0.00    +0.105 C 
ENDROOT
BRANCH  11  12
ATOM     12  C   UNL     1       9.795   0.076   1.429  0.00  0.00    -0.027 A 
ATOM     13  C   UNL     1       9.514   1.297   0.844  0.00  0.00    +0.005 A 
ATOM     14  C   UNL     1       9.657   2.462   1.573  0.00  0.00    +0.000 A 
ATOM     15  C   UNL     1      10.082   2.408   2.887  0.00  0.00    +0.000 A 
ATOM     16  C   UNL     1      10.363   1.187   3.472  0.00  0.00    +0.000 A 
ATOM     17  C   UNL     1      10.215   0.021   2.744  0.00  0.00    +0.005 A 
ENDBRANCH  11  12
BRANCH   1  19
ATOM     18  N   UNL     1       2.177  -0.604   0.684  0.00  0.00    -0.308 N 
ATOM     19  C   UNL     1       3.177  -0.552   1.586  0.00  0.00    +0.246 C 
ATOM     20  O   UNL     1       2.925  -0.385   2.764  0.00  0.00    -0.270 OA
ATOM     21  H   UNL     1       2.378  -0.737  -0.256  0.00  0.00    +0.149 HD
BRANCH  18  31
ATOM     22  C   UNL     1      -0.117   1.591  -0.022  0.00  0.00    +0.009 C 
ATOM     23  C   UNL     1      -0.054   0.061  -0.041  0.00  0.00    +0.010 C 
ATOM     24  C   UNL     1      -1.459  -0.539  -0.067  0.00  0.00    -0.000 C 
ATOM     25  C   UNL     1      -1.355  -2.073  -0.262  0.00  0.00    +0.008 C 
ATOM     26  C   UNL     1      -1.161  -2.098   1.269  0.00  0.00    -0.003 C 
ATOM     27  C   UNL     1      -2.074  -0.863   1.295  0.00  0.00    -0.029 C 
ATOM     28  C   UNL     1      -3.571  -1.220   1.217  0.00  0.00    +0.011 C 
ATOM     29  C   UNL     1      -1.808   0.121   2.430  0.00  0.00    +0.011 C 
ATOM     30  C   UNL     1       0.288  -1.802   1.653  0.00  0.00    +0.026 C 
ATOM     31  C   UNL     1       0.776  -0.458   1.126  0.00  0.00    +0.077 C 
ENDBRANCH  18  31
ENDBRANCH   1  19
TORSDOF 3
