REMARK  Name = ZINC16605858
REMARK  8 active torsions:
REMARK  status: ('A' for Active; 'I' for Inactive)
REMARK    1  A    between atoms: C_1  and  C_2
REMARK    2  A    between atoms: C_6  and  C_30
REMARK    3  A    between atoms: C_9  and  N_12
REMARK    4  A    between atoms: N_12  and  C_13
REMARK    5  A    between atoms: C_13  and  C_14
REMARK    6  A    between atoms: C_19  and  O_20
REMARK    7  A    between atoms: O_20  and  C_21
REMARK    8  A    between atoms: C_21  and  C_22
REMARK                            x       y       z     vdW  Elec       q    Type
REMARK                         _______ _______ _______ _____ _____    ______ ____
ROOT
ATOM      1  C   UNL     1       1.210  -3.604  -4.030  0.00  0.00    -0.042 C 
ENDROOT
BRANCH   1   2
ATOM      2  C   UNL     1       1.233  -4.527  -2.839  0.00  0.00    -0.022 A 
ATOM      3  C   UNL     1       1.249  -5.896  -3.025  0.00  0.00    +0.020 A 
ATOM      4  C   UNL     1       1.270  -6.743  -1.932  0.00  0.00    +0.018 A 
ATOM      5  C   UNL     1       1.275  -6.221  -0.650  0.00  0.00    +0.019 A 
ATOM      6  C   UNL     1       1.265  -4.853  -0.460  0.00  0.00    +0.047 A 
ATOM      7  C   UNL     1       1.238  -4.002  -1.555  0.00  0.00    +0.122 A 
ATOM      8 BR   UNL     1       1.293  -8.616  -2.189  0.00  0.00    -0.050 Br
BRANCH   7   9
ATOM      9  O   UNL     1       1.222  -2.655  -1.370  0.00  0.00    -0.487 OA
BRANCH   9  10
ATOM     10  C   UNL     1       1.228  -2.186  -0.020  0.00  0.00    +0.264 C 
BRANCH  10  11
ATOM     11  C   UNL     1       1.208  -0.679  -0.013  0.00  0.00    -0.010 A 
ATOM     12  C   UNL     1       0.002  -0.004   0.002  0.00  0.00    +0.008 A 
ATOM     13  C   UNL     1      -0.017   1.378   0.010  0.00  0.00    +0.020 A 
ATOM     14  C   UNL     1       1.172   2.086   0.002  0.00  0.00    +0.041 A 
ATOM     15  C   UNL     1       2.379   1.409  -0.013  0.00  0.00    +0.020 A 
ATOM     16  C   UNL     1       2.397   0.027  -0.021  0.00  0.00    +0.008 A 
ATOM     17 CL   UNL     1       1.149   3.821   0.011  0.00  0.00    -0.084 Cl
ENDBRANCH  10  11
ENDBRANCH   9  10
ENDBRANCH   7   9
ENDBRANCH   1   2
BRANCH   1  18
ATOM     18  N   UNL     1       2.565  -3.097  -4.283  0.00  0.00    +0.386 N 
ATOM     19  H   UNL     1       3.231  -3.951  -4.476  0.00  0.00    -0.085 HD
ATOM     20  H   UNL     1       2.912  -2.556  -3.390  0.00  0.00    -0.085 HD
BRANCH  18  29
ATOM     21  C   UNL     1       5.449  -0.236  -7.107  0.00  0.00    +0.011 C 
ATOM     22  C   UNL     1       4.024  -0.743  -6.876  0.00  0.00    -0.033 C 
ATOM     23  C   UNL     1       3.098   0.445  -6.608  0.00  0.00    +0.010 C 
ATOM     24  C   UNL     1       1.673  -0.062  -6.377  0.00  0.00    -0.011 C 
ATOM     25  C   UNL     1       1.191  -0.814  -7.620  0.00  0.00    +0.010 C 
ATOM     26  C   UNL     1       2.118  -2.002  -7.888  0.00  0.00    -0.033 C 
ATOM     27  C   UNL     1       3.543  -1.495  -8.118  0.00  0.00    +0.013 C 
ATOM     28  C   UNL     1       2.100  -2.944  -6.682  0.00  0.00    -0.006 C 
ATOM     29  C   UNL     1       2.582  -2.192  -5.440  0.00  0.00    -0.067 C 
ATOM     30  C   UNL     1       1.655  -1.004  -5.172  0.00  0.00    -0.009 C 
ATOM     31  C   UNL     1       4.007  -1.685  -5.671  0.00  0.00    -0.006 C 
ATOM     32  C   UNL     1       1.636  -2.754  -9.130  0.00  0.00    +0.011 C 
ENDBRANCH  18  29
ENDBRANCH   1  18
TORSDOF 6
