REMARK  Name = ZINC47351146
REMARK  6 active torsions:
REMARK  status: ('A' for Active; 'I' for Inactive)
REMARK    1  A    between atoms: C_4  and  O_27
REMARK    2  A    between atoms: C_5  and  C_7
REMARK    3  A    between atoms: C_7  and  N_8
REMARK    4  A    between atoms: N_8  and  C_9
REMARK    5  A    between atoms: C_9  and  C_10
REMARK    6  A    between atoms: N_17  and  C_18
REMARK                            x       y       z     vdW  Elec       q    Type
REMARK                         _______ _______ _______ _____ _____    ______ ____
ROOT
ATOM      1  N   UNL     1       1.326  -2.497   1.436  0.00  0.00    -0.274 N 
ATOM      2  C   UNL     1       2.556  -2.604   1.976  0.00  0.00    +0.307 C 
ATOM      3  O   UNL     1       3.526  -2.205   1.361  0.00  0.00    -0.252 OA
ATOM      4  N   UNL     1       2.711  -3.154   3.196  0.00  0.00    -0.269 N 
ATOM      5  H   UNL     1       1.947  -3.536   3.656  0.00  0.00    +0.156 HD
ENDROOT
BRANCH   4   6
ATOM      6  C   UNL     1       3.973  -3.173   3.800  0.00  0.00    +0.035 A 
ATOM      7  C   UNL     1       4.089  -3.030   5.177  0.00  0.00    +0.023 A 
ATOM      8  C   UNL     1       5.336  -3.050   5.767  0.00  0.00    +0.006 A 
ATOM      9  C   UNL     1       6.474  -3.212   4.993  0.00  0.00    -0.044 A 
ATOM     10  C   UNL     1       6.362  -3.354   3.622  0.00  0.00    -0.042 A 
ATOM     11  C   UNL     1       5.112  -3.341   3.027  0.00  0.00    +0.027 A 
ATOM     12  C   UNL     1       7.737  -3.515   3.010  0.00  0.00    +0.036 C 
ATOM     13  C   UNL     1       8.720  -3.018   4.091  0.00  0.00    +0.009 C 
ATOM     14  C   UNL     1       7.932  -3.267   5.395  0.00  0.00    +0.036 C 
ENDBRANCH   4   6
BRANCH   1  15
ATOM     15  C   UNL     1       1.144  -1.803   0.159  0.00  0.00    +0.148 C 
BRANCH  15  20
ATOM     16  C   UNL     1       1.917   1.880   0.467  0.00  0.00    +0.001 A 
ATOM     17  C   UNL     1       0.696   2.389   0.869  0.00  0.00    +0.004 A 
ATOM     18  C   UNL     1      -0.383   1.544   1.042  0.00  0.00    +0.046 A 
ATOM     19  C   UNL     1      -0.240   0.183   0.813  0.00  0.00    +0.122 A 
ATOM     20  C   UNL     1       0.986  -0.325   0.409  0.00  0.00    +0.011 A 
ATOM     21  C   UNL     1       2.062   0.525   0.237  0.00  0.00    +0.009 A 
BRANCH  19  22
ATOM     22  O   UNL     1      -1.300  -0.651   0.983  0.00  0.00    -0.506 OA
ATOM     23  H   UNL     1      -1.879  -0.714   0.212  0.00  0.00    +0.292 HD
ENDBRANCH  19  22
ENDBRANCH  15  20
ENDBRANCH   1  15
BRANCH   1  24
ATOM     24  C   UNL     1       0.170  -3.076   2.126  0.00  0.00    +0.183 C 
BRANCH  24  25
ATOM     25  C   UNL     1      -0.028  -4.498   1.669  0.00  0.00    +0.122 A 
ATOM     26  C   UNL     1       0.518  -5.590   2.235  0.00  0.00    +0.046 A 
ATOM     27  C   UNL     1       0.069  -6.705   1.490  0.00  0.00    +0.041 A 
ATOM     28  C   UNL     1      -0.724  -6.228   0.514  0.00  0.00    +0.195 A 
ATOM     29  O   UNL     1      -0.783  -4.891   0.630  0.00  0.00    -0.466 OA
ENDBRANCH  24  25
ENDBRANCH   1  24
TORSDOF 6
