REMARK  Name = ZINC24491553
REMARK  5 active torsions:
REMARK  status: ('A' for Active; 'I' for Inactive)
REMARK    1  A    between atoms: C_1  and  C_2
REMARK    2  A    between atoms: C_8  and  N_10
REMARK    3  A    between atoms: C_14  and  C_16
REMARK    4  A    between atoms: C_16  and  S_17
REMARK    5  A    between atoms: S_17  and  C_18
REMARK                            x       y       z     vdW  Elec       q    Type
REMARK                         _______ _______ _______ _____ _____    ______ ____
ROOT
ATOM      1  N   UNL     1      -2.119  -0.061   1.218  0.00  0.00    -0.296 N 
ATOM      2  C   UNL     1      -3.462   0.049   1.230  0.00  0.00    +0.306 C 
ATOM      3  O   UNL     1      -4.105  -0.243   0.240  0.00  0.00    -0.252 OA
ATOM      4  N   UNL     1      -4.093   0.484   2.339  0.00  0.00    -0.240 N 
ATOM      5  C   UNL     1      -5.436   0.594   2.350  0.00  0.00    +0.231 C 
ATOM      6  O   UNL     1      -6.077   0.303   1.363  0.00  0.00    -0.274 OA
ATOM      7  H   UNL     1      -1.538   0.203   2.114  0.00  0.00    +0.151 HD
ATOM      8  H   UNL     1      -3.512   0.748   3.234  0.00  0.00    +0.159 HD
ENDROOT
BRANCH   1  15
ATOM      9  C   UNL     1      -0.019   1.526   0.010  0.00  0.00    +0.009 C 
ATOM     10  C   UNL     1       0.002  -0.004   0.002  0.00  0.00    +0.006 C 
ATOM     11  C   UNL     1       0.742  -0.511   1.242  0.00  0.00    +0.005 C 
ATOM     12  C   UNL     1       0.763  -2.041   1.233  0.00  0.00    +0.000 C 
ATOM     13  C   UNL     1      -0.673  -2.570   1.244  0.00  0.00    +0.002 C 
ATOM     14  C   UNL     1      -1.413  -2.063   0.004  0.00  0.00    +0.022 C 
ATOM     15  C   UNL     1      -1.433  -0.534   0.013  0.00  0.00    +0.077 C 
ENDBRANCH   1  15
BRANCH   5  16
ATOM     16  C   UNL     1      -6.142   1.080   3.590  0.00  0.00    +0.170 C 
BRANCH  16  17
ATOM     17  S   UNL     1      -7.931   1.119   3.292  0.00  0.00    -0.116 S 
BRANCH  17  18
ATOM     18  C   UNL     1      -8.604   1.700   4.814  0.00  0.00    +0.012 A 
ATOM     19  C   UNL     1      -7.760   2.001   5.875  0.00  0.00    +0.018 A 
ATOM     20  C   UNL     1      -8.285   2.457   7.071  0.00  0.00    +0.050 A 
ATOM     21  C   UNL     1      -9.654   2.612   7.207  0.00  0.00    +0.162 A 
ATOM     22  C   UNL     1     -10.499   2.312   6.148  0.00  0.00    +0.163 A 
ATOM     23  C   UNL     1      -9.977   1.861   4.948  0.00  0.00    +0.064 A 
ATOM     24  O   UNL     1     -11.847   2.469   6.296  0.00  0.00    -0.488 OA
ATOM     25  C   UNL     1     -12.309   3.816   6.420  0.00  0.00    +0.232 C 
ATOM     26  C   UNL     1     -12.210   4.289   7.862  0.00  0.00    +0.082 C 
ATOM     27  C   UNL     1     -10.772   4.362   8.349  0.00  0.00    +0.232 C 
ATOM     28  O   UNL     1     -10.182   3.061   8.385  0.00  0.00    -0.488 OA
ENDBRANCH  17  18
ENDBRANCH  16  17
ENDBRANCH   5  16
TORSDOF 4
