REMARK  Name = ZINC19097053
REMARK  8 active torsions:
REMARK  status: ('A' for Active; 'I' for Inactive)
REMARK    1  A    between atoms: C_1  and  C_2
REMARK    2  A    between atoms: C_3  and  C_13
REMARK    3  A    between atoms: C_4  and  C_12
REMARK    4  A    between atoms: C_9  and  C_10
REMARK    5  A    between atoms: C_13  and  C_14
REMARK    6  A    between atoms: C_14  and  C_15
REMARK    7  A    between atoms: N_20  and  S_23
REMARK    8  A    between atoms: S_23  and  C_26
REMARK                            x       y       z     vdW  Elec       q    Type
REMARK                         _______ _______ _______ _____ _____    ______ ____
ROOT
ATOM      1  C   UNL     1       4.172   5.318   1.426  0.00  0.00    +0.216 C 
ATOM      2  O   UNL     1       4.626   5.725   0.378  0.00  0.00    -0.276 OA
ATOM      3  N   UNL     1       4.808   5.587   2.584  0.00  0.00    -0.299 N 
ATOM      4  C   UNL     1       4.267   5.105   3.863  0.00  0.00    +0.125 C 
ATOM      5  C   UNL     1       5.358   4.288   4.575  0.00  0.00    +0.128 C 
ATOM      6  N   UNL     1       6.601   5.073   4.582  0.00  0.00    -0.174 NA
ATOM      7  C   UNL     1       7.139   5.559   3.304  0.00  0.00    +0.128 C 
ATOM      8  C   UNL     1       6.050   6.371   2.591  0.00  0.00    +0.125 C 
ENDROOT
BRANCH   6   9
ATOM      9  S   UNL     1       7.381   5.403   6.005  0.00  0.00    +0.063 S 
ATOM     10  O   UNL     1       6.989   4.395   6.927  0.00  0.00    -0.153 OA
ATOM     11  O   UNL     1       8.742   5.645   5.675  0.00  0.00    -0.153 OA
BRANCH   9  12
ATOM     12  C   UNL     1       6.732   6.923   6.615  0.00  0.00    +0.133 A 
ATOM     13  C   UNL     1       6.035   6.944   7.776  0.00  0.00    +0.031 A 
ATOM     14  C   UNL     1       5.508   8.130   8.289  0.00  0.00    +0.004 A 
ATOM     15  C   UNL     1       5.668   9.312   7.648  0.00  0.00    +0.031 A 
ATOM     16  C   UNL     1       6.386   9.365   6.425  0.00  0.00    +0.102 A 
ATOM     17  C   UNL     1       6.944   8.126   5.892  0.00  0.00    +0.126 A 
ATOM     18  N   UNL     1       7.597   8.323   4.748  0.00  0.00    -0.189 NA
ATOM     19  S   UNL     1       7.495   9.857   4.444  0.00  0.00    +0.117 S 
ATOM     20  N   UNL     1       6.655  10.411   5.645  0.00  0.00    -0.191 NA
ENDBRANCH   9  12
ENDBRANCH   6   9
BRANCH   1  21
ATOM     21  C   UNL     1       2.899   4.512   1.435  0.00  0.00    +0.100 C 
BRANCH  21  22
ATOM     22  C   UNL     1       2.387   4.353   0.002  0.00  0.00    +0.046 C 
BRANCH  22  25
ATOM     23  C   UNL     1       2.501   1.442  -0.013  0.00  0.00    +0.045 C 
ATOM     24  C   UNL     1       1.172   2.153   0.002  0.00  0.00    -0.023 A 
ATOM     25  C   UNL     1       1.113   3.547   0.010  0.00  0.00    -0.024 A 
ATOM     26  C   UNL     1      -0.087   4.178   0.024  0.00  0.00    +0.019 A 
ATOM     27  N   UNL     1      -1.248   3.480   0.032  0.00  0.00    -0.325 N 
ATOM     28  H   UNL     1      -2.093   3.957   0.042  0.00  0.00    +0.169 HD
ATOM     29  C   UNL     1      -1.249   2.133   0.019  0.00  0.00    +0.267 A 
ATOM     30  O   UNL     1      -2.304   1.522   0.021  0.00  0.00    -0.266 OA
ATOM     31  C   UNL     1      -0.017   1.428   0.010  0.00  0.00    +0.119 A 
ATOM     32  C   UNL     1      -0.131   5.685   0.032  0.00  0.00    +0.063 C 
BRANCH  31  33
ATOM     33  C   UNL     1       0.002  -0.004   0.002  0.00  0.00    +0.105 C 
ATOM     34  N   UNL     1       0.018  -1.140  -0.004  0.00  0.00    -0.191 NA
ENDBRANCH  31  33
ENDBRANCH  22  25
ENDBRANCH  21  22
ENDBRANCH   1  21
TORSDOF 6
