REMARK  Name = ZINC21053006
REMARK  5 active torsions:
REMARK  status: ('A' for Active; 'I' for Inactive)
REMARK    1  A    between atoms: C_4  and  C_7
REMARK    2  A    between atoms: C_21  and  S_22
REMARK    3  A    between atoms: S_22  and  C_23
REMARK    4  A    between atoms: C_23  and  C_24
REMARK    5  A    between atoms: N_26  and  C_27
REMARK                            x       y       z     vdW  Elec       q    Type
REMARK                         _______ _______ _______ _____ _____    ______ ____
ROOT
ATOM      1  C   UNL     1      10.757   2.928  -0.820  0.00  0.00    +0.224 C 
ATOM      2  C   UNL     1       9.251   2.973  -0.673  0.00  0.00    +0.256 C 
ATOM      3  O   UNL     1       8.549   3.959  -0.601  0.00  0.00    -0.272 OA
ATOM      4  N   UNL     1       8.852   1.681  -0.644  0.00  0.00    -0.200 N 
ATOM      5  C   UNL     1       9.945   0.838  -0.749  0.00  0.00    +0.139 C 
ATOM      6  N   UNL     1      11.068   1.492  -0.856  0.00  0.00    -0.250 NA
ATOM      7  C   UNL     1       9.683  -0.618  -0.729  0.00  0.00    +0.041 A 
ATOM      8  C   UNL     1      10.715  -1.544  -0.834  0.00  0.00    +0.013 A 
ATOM      9  C   UNL     1      10.424  -2.892  -0.810  0.00  0.00    +0.001 A 
ATOM     10  C   UNL     1       9.112  -3.327  -0.684  0.00  0.00    +0.002 A 
ATOM     11  C   UNL     1       8.077  -2.425  -0.580  0.00  0.00    +0.028 A 
ATOM     12  C   UNL     1       8.348  -1.054  -0.601  0.00  0.00    +0.077 A 
ATOM     13  N   UNL     1       7.353  -0.138  -0.500  0.00  0.00    -0.225 NA
ATOM     14  C   UNL     1       7.586   1.146  -0.518  0.00  0.00    +0.169 C 
ENDROOT
BRANCH   1  18
ATOM     15  C   UNL     1      11.964   4.813  -4.458  0.00  0.00    +0.000 A 
ATOM     16  C   UNL     1      12.129   5.468  -3.252  0.00  0.00    +0.000 A 
ATOM     17  C   UNL     1      11.739   4.858  -2.075  0.00  0.00    +0.006 A 
ATOM     18  C   UNL     1      11.182   3.593  -2.104  0.00  0.00    -0.014 A 
ATOM     19  C   UNL     1      11.022   2.936  -3.309  0.00  0.00    +0.006 A 
ATOM     20  C   UNL     1      11.409   3.547  -4.487  0.00  0.00    +0.000 A 
ENDBRANCH   1  18
BRANCH  14  21
ATOM     21  S   UNL     1       6.219   2.250  -0.380  0.00  0.00    -0.080 S 
BRANCH  21  22
ATOM     22  C   UNL     1       4.864   1.057  -0.254  0.00  0.00    +0.173 C 
BRANCH  22  23
ATOM     23  C   UNL     1       3.556   1.794  -0.124  0.00  0.00    +0.227 C 
ATOM     24  O   UNL     1       3.542   3.007  -0.117  0.00  0.00    -0.275 OA
ATOM     25  N   UNL     1       2.403   1.106  -0.015  0.00  0.00    -0.285 N 
ATOM     26  H   UNL     1       2.421   0.008   0.056  0.00  0.00    +0.155 HD
BRANCH  25  27
ATOM     27  C   UNL     1       1.181   1.788   0.008  0.00  0.00    +0.033 A 
ATOM     28  C   UNL     1       0.059   1.225  -0.586  0.00  0.00    +0.024 A 
ATOM     29  C   UNL     1      -1.145   1.903  -0.567  0.00  0.00    +0.017 A 
ATOM     30  C   UNL     1      -1.235   3.136   0.053  0.00  0.00    +0.018 A 
ATOM     31  C   UNL     1      -0.119   3.699   0.646  0.00  0.00    +0.017 A 
ATOM     32  C   UNL     1       1.088   3.028   0.625  0.00  0.00    +0.024 A 
ATOM     33 BR   UNL     1      -2.886   4.058   0.083  0.00  0.00    -0.050 Br
ENDBRANCH  25  27
ENDBRANCH  22  23
ENDBRANCH  21  22
ENDBRANCH  14  21
TORSDOF 5
