REMARK  Name = ZINC39232614
REMARK  10 active torsions:
REMARK  status: ('A' for Active; 'I' for Inactive)
REMARK    1  A    between atoms: C_1  and  C_2
REMARK    2  A    between atoms: C_4  and  C_9
REMARK    3  A    between atoms: C_5  and  C_8
REMARK    4  A    between atoms: C_9  and  C_10
REMARK    5  A    between atoms: C_11  and  C_25
REMARK    6  A    between atoms: N_13  and  C_18
REMARK    7  A    between atoms: C_21  and  C_24
REMARK    8  A    between atoms: C_28  and  C_31
REMARK    9  A    between atoms: C_31  and  C_32
REMARK   10  A    between atoms: C_31  and  C_33
REMARK                            x       y       z     vdW  Elec       q    Type
REMARK                         _______ _______ _______ _____ _____    ______ ____
ROOT
ATOM      1  C   UNL     1      -2.308   0.305  -2.033  0.00  0.00    +0.076 C 
ATOM      2  C   UNL     1      -0.937   0.723  -2.511  0.00  0.00    +0.147 C 
ATOM      3  N   UNL     1      -1.139   1.387  -3.804  0.00  0.00    -0.262 N 
ATOM      4  C   UNL     1      -2.457   1.374  -4.075  0.00  0.00    +0.289 C 
ATOM      5  O   UNL     1      -2.968   1.843  -5.072  0.00  0.00    -0.266 OA
ATOM      6  C   UNL     1      -3.190   0.700  -2.983  0.00  0.00    +0.249 C 
ATOM      7  O   UNL     1      -4.528   0.509  -2.938  0.00  0.00    -0.282 OA
ENDROOT
BRANCH   3   8
ATOM      8  C   UNL     1      -0.090   1.962  -4.650  0.00  0.00    +0.208 C 
ATOM      9  C   UNL     1      -0.143   3.477  -4.616  0.00  0.00    +0.057 C 
ATOM     10  C   UNL     1      -0.716   3.888  -5.727  0.00  0.00    +0.121 C 
ATOM     11  O   UNL     1      -1.079   2.858  -6.529  0.00  0.00    -0.409 OA
ATOM     12  N   UNL     1      -0.342   1.656  -6.083  0.00  0.00    -0.131 NA
ATOM     13  C   UNL     1      -0.943   5.338  -6.069  0.00  0.00    +0.088 C 
ATOM     14  H   UNL     1      -0.906   0.825  -6.181  0.00  0.00    +0.170 HD
ENDBRANCH   3   8
BRANCH   2  15
ATOM     15  C   UNL     1      -0.057  -0.489  -2.681  0.00  0.00    -0.022 A 
ATOM     16  C   UNL     1      -0.249  -1.338  -3.754  0.00  0.00    +0.006 A 
ATOM     17  C   UNL     1       0.559  -2.449  -3.910  0.00  0.00    +0.004 A 
ATOM     18  C   UNL     1       1.559  -2.710  -2.992  0.00  0.00    -0.045 A 
ATOM     19  C   UNL     1       1.751  -1.861  -1.919  0.00  0.00    +0.004 A 
ATOM     20  C   UNL     1       0.947  -0.748  -1.766  0.00  0.00    +0.006 A 
BRANCH  18  21
ATOM     21  C   UNL     1       2.439  -3.922  -3.161  0.00  0.00    +0.013 C 
ATOM     22  C   UNL     1       3.897  -3.479  -3.299  0.00  0.00    +0.012 C 
ATOM     23  C   UNL     1       2.295  -4.832  -1.939  0.00  0.00    +0.012 C 
ENDBRANCH  18  21
ENDBRANCH   2  15
BRANCH   1  24
ATOM     24  C   UNL     1      -2.624  -0.397  -0.785  0.00  0.00    +0.193 C 
ATOM     25  O   UNL     1      -3.076  -1.527  -0.820  0.00  0.00    -0.287 OA
BRANCH  24  28
ATOM     26  C   UNL     1      -2.978   2.664   0.158  0.00  0.00    +0.035 C 
ATOM     27  C   UNL     1      -1.950   1.691   0.740  0.00  0.00    +0.110 C 
ATOM     28  C   UNL     1      -2.393   0.263   0.508  0.00  0.00    +0.026 C 
ATOM     29  C   UNL     1      -2.533  -0.280   1.738  0.00  0.00    -0.026 C 
ATOM     30  C   UNL     1      -2.203   0.727   2.747  0.00  0.00    +0.082 C 
ATOM     31  N   UNL     1      -1.870   1.848   2.197  0.00  0.00    -0.383 N 
ATOM     32  C   UNL     1      -2.962  -1.696   2.024  0.00  0.00    +0.046 C 
ATOM     33  H   UNL     1      -1.611   2.656   2.667  0.00  0.00    +0.160 HD
ENDBRANCH  24  28
ENDBRANCH   1  24
TORSDOF 5
