REMARK  Name = ZINC17083266
REMARK  10 active torsions:
REMARK  status: ('A' for Active; 'I' for Inactive)
REMARK    1  A    between atoms: C_1  and  C_2
REMARK    2  A    between atoms: C_2  and  C_28
REMARK    3  A    between atoms: C_4  and  N_10
REMARK    4  A    between atoms: C_6  and  C_8
REMARK    5  A    between atoms: C_6  and  C_9
REMARK    6  A    between atoms: N_10  and  C_11
REMARK    7  A    between atoms: N_10  and  C_18
REMARK    8  A    between atoms: C_11  and  C_12
REMARK    9  A    between atoms: C_18  and  N_20
REMARK   10  A    between atoms: N_20  and  C_21
REMARK                            x       y       z     vdW  Elec       q    Type
REMARK                         _______ _______ _______ _____ _____    ______ ____
ROOT
ATOM      1  N   UNL     1       2.797  -0.877  -2.580  0.00  0.00    -0.309 N 
ENDROOT
BRANCH   1   5
ATOM      2  C   UNL     1       1.349  -1.042   1.576  0.00  0.00    -0.010 C 
ATOM      3  C   UNL     1       2.571  -0.221   1.150  0.00  0.00    -0.072 C 
ATOM      4  C   UNL     1       3.127  -0.766  -0.162  0.00  0.00    +0.009 C 
ATOM      5  C   UNL     1       2.223  -0.367  -1.329  0.00  0.00    +0.073 C 
ATOM      6  C   UNL     1       2.164   1.159  -1.386  0.00  0.00    +0.009 C 
ATOM      7  C   UNL     1       1.602   1.719  -0.084  0.00  0.00    -0.072 C 
ATOM      8  N   UNL     1       2.263   1.197   1.100  0.00  0.00    +0.386 N 
ATOM      9  C   UNL     1       0.089   1.480  -0.028  0.00  0.00    -0.010 C 
ATOM     10  C   UNL     1       1.819   3.250  -0.107  0.00  0.00    -0.010 C 
ATOM     11  C   UNL     1       3.655  -0.429   2.233  0.00  0.00    -0.010 C 
ATOM     12  H   UNL     1       1.690   1.431   1.917  0.00  0.00    -0.084 HD
ATOM     13  H   UNL     1       3.135   1.719   1.236  0.00  0.00    -0.084 HD
ENDBRANCH   1   5
BRANCH   1  14
ATOM     14  C   UNL     1       2.940  -2.204  -2.765  0.00  0.00    +0.137 C 
ATOM     15  S   UNL     1       3.729  -2.794  -4.165  0.00  0.00    -0.018 S 
BRANCH  14  16
ATOM     16  N   UNL     1       2.461  -3.067  -1.847  0.00  0.00    -0.294 N 
ATOM     17  H   UNL     1       3.062  -3.478  -1.207  0.00  0.00    +0.154 HD
BRANCH  16  18
ATOM     18  C   UNL     1       1.094  -3.372  -1.819  0.00  0.00    +0.068 A 
ATOM     19  C   UNL     1       0.250  -2.874  -2.802  0.00  0.00    +0.026 A 
ATOM     20  C   UNL     1      -1.098  -3.177  -2.771  0.00  0.00    +0.002 A 
ATOM     21  C   UNL     1      -1.607  -3.975  -1.764  0.00  0.00    +0.003 A 
ATOM     22  C   UNL     1      -0.770  -4.474  -0.783  0.00  0.00    +0.040 A 
ATOM     23  C   UNL     1       0.581  -4.179  -0.810  0.00  0.00    +0.144 A 
ATOM     24  F   UNL     1       1.400  -4.671   0.146  0.00  0.00    -0.204 F 
ENDBRANCH  16  18
ENDBRANCH  14  16
ENDBRANCH   1  14
BRANCH   1  25
ATOM     25  C   UNL     1       3.214   0.058  -3.629  0.00  0.00    +0.110 C 
BRANCH  25  26
ATOM     26  C   UNL     1       4.726   0.273  -3.548  0.00  0.00    +0.006 C 
ATOM     27  C   UNL     1       5.064   1.049  -2.274  0.00  0.00    +0.005 C 
ATOM     28  C   UNL     1       6.576   1.264  -2.193  0.00  0.00    +0.000 C 
ATOM     29  C   UNL     1       7.044   2.059  -3.413  0.00  0.00    +0.000 C 
ATOM     30  C   UNL     1       6.707   1.283  -4.688  0.00  0.00    +0.000 C 
ATOM     31  C   UNL     1       5.194   1.068  -4.769  0.00  0.00    +0.005 C 
ENDBRANCH  25  26
ENDBRANCH   1  25
TORSDOF 6
