REMARK  Name = ZINC04648809
REMARK  7 active torsions:
REMARK  status: ('A' for Active; 'I' for Inactive)
REMARK    1  A    between atoms: C_1  and  C_2
REMARK    2  A    between atoms: C_2  and  O_3
REMARK    3  A    between atoms: O_3  and  C_4
REMARK    4  A    between atoms: C_4  and  C_6
REMARK    5  A    between atoms: C_10  and  C_31
REMARK    6  A    between atoms: C_22  and  C_30
REMARK    7  A    between atoms: C_27  and  O_29
REMARK                            x       y       z     vdW  Elec       q    Type
REMARK                         _______ _______ _______ _____ _____    ______ ____
ROOT
ATOM      1  C   UNL     1      -0.713   1.758   1.183  0.00  0.00    +0.098 C 
ATOM      2  C   UNL     1       0.024   1.222  -0.058  0.00  0.00    +0.015 C 
ATOM      3  C   UNL     1      -0.747   1.706  -1.277  0.00  0.00    +0.008 C 
ATOM      4  C   UNL     1      -2.238   1.494  -1.189  0.00  0.00    -0.026 C 
ATOM      5  C   UNL     1      -2.849   0.959   0.062  0.00  0.00    -0.004 C 
ATOM      6  C   UNL     1      -1.988   0.940   1.314  0.00  0.00    +0.018 C 
ATOM      7  C   UNL     1      -3.590  -0.365   0.003  0.00  0.00    +0.004 C 
ATOM      8  C   UNL     1      -4.201  -0.709  -1.353  0.00  0.00    +0.004 C 
ATOM      9  C   UNL     1      -3.077  -0.552  -2.371  0.00  0.00    -0.004 C 
ATOM     10  C   UNL     1      -2.799   0.942  -2.482  0.00  0.00    -0.001 C 
ATOM     11  C   UNL     1      -1.986   1.242  -3.728  0.00  0.00    +0.005 C 
ATOM     12  C   UNL     1      -2.851   1.005  -4.981  0.00  0.00    +0.010 C 
ATOM     13  C   UNL     1      -3.821  -0.122  -4.752  0.00  0.00    -0.003 C 
ATOM     14  C   UNL     1      -3.305  -1.155  -3.727  0.00  0.00    +0.001 C 
ATOM     15  C   UNL     1      -4.396  -2.240  -3.815  0.00  0.00    +0.007 C 
ATOM     16  C   UNL     1      -4.728  -2.294  -5.331  0.00  0.00    +0.032 C 
ATOM     17  C   UNL     1      -4.096  -1.027  -5.965  0.00  0.00    +0.121 C 
ATOM     18  C   UNL     1      -5.185   0.442  -4.345  0.00  0.00    +0.014 C 
ATOM     19  C   UNL     1      -2.771   2.927  -1.218  0.00  0.00    +0.012 C 
ENDROOT
BRANCH   1  20
ATOM     20  C   UNL     1       0.144   1.573   2.410  0.00  0.00    +0.310 C 
ATOM     21  O   UNL     1      -0.256   0.899   3.330  0.00  0.00    -0.251 OA
BRANCH  20  22
ATOM     22  O   UNL     1       1.350   2.158   2.481  0.00  0.00    -0.465 OA
BRANCH  22  24
ATOM     23  C   UNL     1       3.455   2.675   3.590  0.00  0.00    +0.048 C 
ATOM     24  C   UNL     1       2.119   1.937   3.692  0.00  0.00    +0.229 C 
ENDBRANCH  22  24
ENDBRANCH  20  22
ENDBRANCH   1  20
BRANCH  17  25
ATOM     25  O   UNL     1      -2.873  -1.351  -6.620  0.00  0.00    -0.391 OA
ATOM     26  H   UNL     1      -2.980  -1.920  -7.394  0.00  0.00    +0.210 HD
ENDBRANCH  17  25
TORSDOF 4
