REMARK  Name = ZINC06078787
REMARK  7 active torsions:
REMARK  status: ('A' for Active; 'I' for Inactive)
REMARK    1  A    between atoms: C_1  and  C_2
REMARK    2  A    between atoms: C_2  and  C_4
REMARK    3  A    between atoms: C_2  and  N_7
REMARK    4  A    between atoms: C_4  and  C_5
REMARK    5  A    between atoms: C_4  and  C_6
REMARK    6  A    between atoms: C_8  and  C_10
REMARK    7  A    between atoms: C_10  and  N_11
REMARK                            x       y       z     vdW  Elec       q    Type
REMARK                         _______ _______ _______ _____ _____    ______ ____
ROOT
ATOM      1  N   UNL     1      -0.150  -1.201   4.706  0.00  0.00    -0.215 N 
ATOM      2  C   UNL     1      -0.377  -0.184   5.564  0.00  0.00    +0.247 C 
ATOM      3  O   UNL     1       0.129   0.918   5.547  0.00  0.00    -0.273 OA
ATOM      4  C   UNL     1      -1.395  -0.708   6.548  0.00  0.00    +0.117 C 
ATOM      5  C   UNL     1      -2.674   0.124   6.490  0.00  0.00    +0.040 C 
ATOM      6  C   UNL     1      -3.760  -0.599   7.285  0.00  0.00    +0.038 C 
ATOM      7  C   UNL     1      -3.255  -0.981   8.651  0.00  0.00    -0.044 A 
ATOM      8  C   UNL     1      -4.197  -1.291   9.624  0.00  0.00    +0.004 A 
ATOM      9  C   UNL     1      -3.801  -1.655  10.894  0.00  0.00    +0.000 A 
ATOM     10  C   UNL     1      -2.455  -1.714  11.203  0.00  0.00    +0.000 A 
ATOM     11  C   UNL     1      -1.517  -1.405  10.239  0.00  0.00    +0.004 A 
ATOM     12  C   UNL     1      -1.915  -1.035   8.961  0.00  0.00    -0.042 A 
ATOM     13  C   UNL     1      -0.837  -0.695   7.963  0.00  0.00    +0.070 C 
ATOM     14  N   UNL     1      -1.654  -2.082   6.101  0.00  0.00    -0.285 N 
ATOM     15  C   UNL     1      -0.884  -2.278   5.013  0.00  0.00    +0.310 C 
ATOM     16  O   UNL     1      -0.855  -3.317   4.383  0.00  0.00    -0.252 OA
ATOM     17  H   UNL     1      -2.261  -2.720   6.506  0.00  0.00    +0.151 HD
ENDROOT
BRANCH   1  18
ATOM     18  C   UNL     1       0.780  -1.133   3.576  0.00  0.00    +0.213 C 
BRANCH  18  20
ATOM     19  N   UNL     1       0.711  -0.489   1.189  0.00  0.00    -0.311 N 
ATOM     20  C   UNL     1       0.051  -0.633   2.355  0.00  0.00    +0.231 C 
ATOM     21  O   UNL     1      -1.129  -0.361   2.423  0.00  0.00    -0.274 OA
ATOM     22  H   UNL     1       1.654  -0.707   1.135  0.00  0.00    +0.149 HD
BRANCH  19  24
ATOM     23  C   UNL     1      -0.019   1.526   0.010  0.00  0.00    +0.028 C 
ATOM     24  C   UNL     1       0.002  -0.004   0.002  0.00  0.00    +0.072 C 
BRANCH  24  25
ATOM     25  C   UNL     1       0.718  -0.497  -1.257  0.00  0.00    +0.003 C 
ATOM     26  C   UNL     1      -0.022   0.009  -2.496  0.00  0.00    +0.009 C 
ATOM     27  C   UNL     1       2.154   0.032  -1.268  0.00  0.00    +0.009 C 
ENDBRANCH  24  25
ENDBRANCH  19  24
ENDBRANCH  18  20
ENDBRANCH   1  18
TORSDOF 4
