REMARK  Name = ZINC44917767
REMARK  8 active torsions:
REMARK  status: ('A' for Active; 'I' for Inactive)
REMARK    1  A    between atoms: C_1  and  C_2
REMARK    2  A    between atoms: C_7  and  C_8
REMARK    3  A    between atoms: C_8  and  N_9
REMARK    4  A    between atoms: C_13  and  C_16
REMARK    5  A    between atoms: N_18  and  C_19
REMARK    6  A    between atoms: C_24  and  S_25
REMARK    7  A    between atoms: S_25  and  C_26
REMARK    8  A    between atoms: C_26  and  C_27
REMARK                            x       y       z     vdW  Elec       q    Type
REMARK                         _______ _______ _______ _____ _____    ______ ____
ROOT
ATOM      1  C   UNL     1      -3.260   2.098   5.673  0.00  0.00    +0.219 C 
ATOM      2  O   UNL     1      -2.254   2.485   6.229  0.00  0.00    -0.275 OA
ATOM      3  N   UNL     1      -4.469   2.365   6.207  0.00  0.00    -0.284 N 
ATOM      4  H   UNL     1      -5.276   2.115   5.729  0.00  0.00    +0.155 HD
ENDROOT
BRANCH   1   9
ATOM      5  N   UNL     1      -1.588   0.406   2.744  0.00  0.00    +0.383 N 
ATOM      6  C   UNL     1      -2.230   1.156   1.658  0.00  0.00    -0.078 C 
ATOM      7  C   UNL     1      -3.722   1.315   1.956  0.00  0.00    -0.018 C 
ATOM      8  C   UNL     1      -3.896   2.073   3.275  0.00  0.00    +0.009 C 
ATOM      9  C   UNL     1      -3.159   1.321   4.386  0.00  0.00    +0.059 C 
ATOM     10  C   UNL     1      -1.688   1.161   3.998  0.00  0.00    -0.066 C 
ATOM     11  H   UNL     1      -2.047  -0.486   2.852  0.00  0.00    -0.081 HD
BRANCH   5  12
ATOM     12  C   UNL     1      -0.172   0.188   2.417  0.00  0.00    -0.043 C 
BRANCH  12  19
ATOM     13  C   UNL     1      -0.690  -2.642   2.684  0.00  0.00    +0.044 C 
ATOM     14  C   UNL     1      -0.315  -2.067   1.342  0.00  0.00    -0.049 A 
ATOM     15  C   UNL     1      -0.225  -2.894   0.237  0.00  0.00    +0.003 A 
ATOM     16  C   UNL     1       0.119  -2.368  -0.994  0.00  0.00    +0.000 A 
ATOM     17  C   UNL     1       0.372  -1.014  -1.120  0.00  0.00    +0.000 A 
ATOM     18  C   UNL     1       0.281  -0.188  -0.016  0.00  0.00    +0.002 A 
ATOM     19  C   UNL     1      -0.067  -0.714   1.214  0.00  0.00    -0.061 A 
ENDBRANCH  12  19
ENDBRANCH   5  12
ENDBRANCH   1   9
BRANCH   3  20
ATOM     20  C   UNL     1      -4.561   3.002   7.452  0.00  0.00    +0.047 A 
ATOM     21  C   UNL     1      -3.616   3.948   7.819  0.00  0.00    +0.024 A 
ATOM     22  C   UNL     1      -3.708   4.575   9.048  0.00  0.00    +0.002 A 
ATOM     23  C   UNL     1      -4.741   4.262   9.914  0.00  0.00    +0.001 A 
ATOM     24  C   UNL     1      -5.686   3.320   9.556  0.00  0.00    +0.016 A 
ATOM     25  C   UNL     1      -5.605   2.689   8.322  0.00  0.00    +0.029 A 
BRANCH  25  26
ATOM     26  S   UNL     1      -6.813   1.492   7.860  0.00  0.00    -0.119 S 
BRANCH  26  27
ATOM     27  C   UNL     1      -7.937   1.432   9.282  0.00  0.00    +0.109 C 
BRANCH  27  28
ATOM     28  C   UNL     1      -9.033   0.433   9.014  0.00  0.00    -0.037 A 
ATOM     29  C   UNL     1     -10.201   0.837   8.395  0.00  0.00    +0.006 A 
ATOM     30  C   UNL     1     -11.206  -0.079   8.149  0.00  0.00    +0.020 A 
ATOM     31  C   UNL     1     -11.043  -1.401   8.522  0.00  0.00    +0.041 A 
ATOM     32  C   UNL     1      -9.874  -1.805   9.142  0.00  0.00    +0.020 A 
ATOM     33  C   UNL     1      -8.867  -0.889   9.383  0.00  0.00    +0.006 A 
ATOM     34 CL   UNL     1     -12.306  -2.552   8.214  0.00  0.00    -0.084 Cl
ENDBRANCH  27  28
ENDBRANCH  26  27
ENDBRANCH  25  26
ENDBRANCH   3  20
TORSDOF 7
