REMARK  Name = ZINC15776905
REMARK  9 active torsions:
REMARK  status: ('A' for Active; 'I' for Inactive)
REMARK    1  A    between atoms: C_1  and  C_2
REMARK    2  A    between atoms: C_3  and  C_18
REMARK    3  A    between atoms: C_4  and  C_16
REMARK    4  A    between atoms: C_5  and  C_15
REMARK    5  A    between atoms: N_6  and  C_7
REMARK    6  A    between atoms: C_7  and  C_8
REMARK    7  A    between atoms: C_18  and  N_48
REMARK    8  A    between atoms: C_19  and  C_20
REMARK    9  A    between atoms: C_19  and  N_48
REMARK                            x       y       z     vdW  Elec       q    Type
REMARK                         _______ _______ _______ _____ _____    ______ ____
ROOT
ATOM      1  C   UNL     1      -5.957   1.824   3.228  0.00  0.00    +0.064 C 
ATOM      2  C   UNL     1      -5.342   0.517   3.654  0.00  0.00    +0.018 A 
ATOM      3  C   UNL     1      -4.581  -0.277   2.880  0.00  0.00    -0.030 A 
ATOM      4  C   UNL     1      -4.214  -1.432   3.707  0.00  0.00    +0.085 A 
ATOM      5  C   UNL     1      -4.796  -1.218   4.938  0.00  0.00    +0.031 A 
ATOM      6  N   UNL     1      -5.468  -0.052   4.888  0.00  0.00    -0.343 N 
ATOM      7  C   UNL     1      -4.700  -2.132   6.132  0.00  0.00    +0.064 C 
ENDROOT
BRANCH   4   8
ATOM      8  C   UNL     1      -3.390  -2.583   3.305  0.00  0.00    +0.388 C 
ATOM      9  O   UNL     1      -2.185  -2.552   3.462  0.00  0.00    -0.241 OA
ATOM     10  O   UNL     1      -3.971  -3.671   2.762  0.00  0.00    -0.241 OA
ENDBRANCH   4   8
BRANCH   6  11
ATOM     11  C   UNL     1      -6.227   0.524   6.001  0.00  0.00    +0.157 C 
BRANCH  11  12
ATOM     12  C   UNL     1      -7.650   0.032   5.946  0.00  0.00    -0.025 A 
ATOM     13  C   UNL     1      -8.601   0.744   5.239  0.00  0.00    +0.005 A 
ATOM     14  C   UNL     1      -9.906   0.291   5.184  0.00  0.00    +0.003 A 
ATOM     15  C   UNL     1     -10.264  -0.869   5.844  0.00  0.00    +0.038 A 
ATOM     16  C   UNL     1      -9.313  -1.581   6.557  0.00  0.00    +0.124 A 
ATOM     17  C   UNL     1      -8.005  -1.129   6.607  0.00  0.00    +0.043 A 
ATOM     18  F   UNL     1      -9.662  -2.715   7.203  0.00  0.00    -0.205 F 
ENDBRANCH  11  12
ENDBRANCH   6  11
BRANCH   3  19
ATOM     19  C   UNL     1      -4.189  -0.031   1.446  0.00  0.00    -0.044 C 
BRANCH  19  20
ATOM     20  N   UNL     1      -2.922   0.724   1.413  0.00  0.00    +0.384 N 
ATOM     21  H   UNL     1      -2.192   0.180   1.887  0.00  0.00    -0.085 HD
ATOM     22  H   UNL     1      -3.050   1.620   1.898  0.00  0.00    -0.085 HD
BRANCH  20  23
ATOM     23  C   UNL     1      -2.514   0.979   0.019  0.00  0.00    -0.046 C 
BRANCH  23  24
ATOM     24  C   UNL     1      -1.219   1.751   0.017  0.00  0.00    -0.063 A 
ATOM     25  C   UNL     1      -0.013   1.076   0.008  0.00  0.00    +0.002 A 
ATOM     26  C   UNL     1       1.175   1.783   0.000  0.00  0.00    +0.001 A 
ATOM     27  C   UNL     1       1.157   3.165   0.008  0.00  0.00    +0.015 A 
ATOM     28  C   UNL     1      -0.050   3.841   0.022  0.00  0.00    +0.018 A 
ATOM     29  C   UNL     1      -1.238   3.132   0.030  0.00  0.00    +0.017 A 
ATOM     30 BR   UNL     1      -0.076   5.731   0.033  0.00  0.00    -0.050 Br
ENDBRANCH  23  24
ENDBRANCH  20  23
ENDBRANCH  19  20
ENDBRANCH   3  19
TORSDOF 7
