REMARK  Name = ZINC16488945
REMARK  7 active torsions:
REMARK  status: ('A' for Active; 'I' for Inactive)
REMARK    1  A    between atoms: C_1  and  C_2
REMARK    2  A    between atoms: C_2  and  C_3
REMARK    3  A    between atoms: C_2  and  N_4
REMARK    4  A    between atoms: N_4  and  C_5
REMARK    5  A    between atoms: C_5  and  C_6
REMARK    6  A    between atoms: C_16  and  C_18
REMARK    7  A    between atoms: N_26  and  C_27
REMARK                            x       y       z     vdW  Elec       q    Type
REMARK                         _______ _______ _______ _____ _____    ______ ____
ROOT
ATOM      1  C   UNL     1       1.353  -2.369  -1.633  0.00  0.00    +0.234 C 
ATOM      2  O   UNL     1       1.328  -1.714  -2.654  0.00  0.00    -0.274 OA
ATOM      3  N   UNL     1       1.423  -3.714  -1.698  0.00  0.00    -0.289 N 
ATOM      4  C   UNL     1       1.461  -4.518  -0.467  0.00  0.00    +0.114 C 
ATOM      5  C   UNL     1       0.177  -5.370  -0.415  0.00  0.00    +0.062 C 
ATOM      6  C   UNL     1      -0.076  -5.939  -1.773  0.00  0.00    -0.003 A 
ATOM      7  C   UNL     1       0.466  -5.546  -2.958  0.00  0.00    -0.012 A 
ATOM      8  C   UNL     1       0.057  -6.243  -4.094  0.00  0.00    +0.013 A 
ATOM      9  C   UNL     1      -0.834  -7.255  -3.983  0.00  0.00    +0.046 A 
ATOM     10  S   UNL     1      -1.150  -7.276  -2.225  0.00  0.00    -0.101 S 
ATOM     11  C   UNL     1       1.470  -4.396  -2.998  0.00  0.00    +0.137 C 
ENDROOT
BRANCH  11  12
ATOM     12  C   UNL     1       2.855  -4.936  -3.242  0.00  0.00    -0.023 A 
ATOM     13  C   UNL     1       3.369  -5.920  -2.417  0.00  0.00    +0.006 A 
ATOM     14  C   UNL     1       4.638  -6.419  -2.643  0.00  0.00    +0.000 A 
ATOM     15  C   UNL     1       5.398  -5.927  -3.688  0.00  0.00    +0.000 A 
ATOM     16  C   UNL     1       4.886  -4.940  -4.510  0.00  0.00    +0.000 A 
ATOM     17  C   UNL     1       3.615  -4.444  -4.286  0.00  0.00    +0.006 A 
ENDBRANCH  11  12
BRANCH   1  18
ATOM     18  C   UNL     1       1.306  -1.681  -0.294  0.00  0.00    +0.205 C 
BRANCH  18  19
ATOM     19  N   UNL     1       1.233  -0.231  -0.493  0.00  0.00    -0.274 N 
ATOM     20  C   UNL     1       0.033   0.376  -0.594  0.00  0.00    +0.303 C 
ATOM     21  O   UNL     1      -0.028   1.563  -0.850  0.00  0.00    -0.253 OA
ATOM     22  N   UNL     1      -1.098  -0.334  -0.412  0.00  0.00    -0.296 N 
ATOM     23  H   UNL     1      -1.052  -1.294  -0.279  0.00  0.00    +0.151 HD
BRANCH  22  24
ATOM     24  C   UNL     1      -2.396   0.345  -0.409  0.00  0.00    +0.074 C 
ATOM     25  C   UNL     1      -2.685   0.888   0.992  0.00  0.00    +0.022 C 
ATOM     26  C   UNL     1      -4.040   1.597   0.995  0.00  0.00    +0.002 C 
ATOM     27  C   UNL     1      -5.136   0.606   0.596  0.00  0.00    +0.000 C 
ATOM     28  C   UNL     1      -4.847   0.063  -0.805  0.00  0.00    +0.002 C 
ATOM     29  C   UNL     1      -3.491  -0.646  -0.808  0.00  0.00    +0.022 C 
ENDBRANCH  22  24
BRANCH  19  31
ATOM     30  C   UNL     1       3.316   0.316   0.665  0.00  0.00    +0.028 C 
ATOM     31  C   UNL     1       2.463   0.559  -0.581  0.00  0.00    +0.072 C 
ATOM     32  C   UNL     1       3.249   0.142  -1.826  0.00  0.00    +0.028 C 
ENDBRANCH  19  31
ENDBRANCH  18  19
ENDBRANCH   1  18
TORSDOF 5
