REMARK  Name = ZINC04453520
REMARK  11 active torsions:
REMARK  status: ('A' for Active; 'I' for Inactive)
REMARK    1  A    between atoms: C_1  and  C_2
REMARK    2  A    between atoms: C_2  and  C_3
REMARK    3  A    between atoms: C_3  and  N_4
REMARK    4  A    between atoms: C_11  and  C_23
REMARK    5  A    between atoms: C_13  and  C_19
REMARK    6  A    between atoms: C_13  and  C_21
REMARK    7  A    between atoms: C_14  and  N_18
REMARK    8  A    between atoms: C_15  and  C_16
REMARK    9  A    between atoms: C_26  and  O_29
REMARK   10  A    between atoms: O_29  and  C_30
REMARK   11  A    between atoms: C_30  and  C_31
REMARK                            x       y       z     vdW  Elec       q    Type
REMARK                         _______ _______ _______ _____ _____    ______ ____
ROOT
ATOM      1  N   UNL     1       0.219  -1.928   1.175  0.00  0.00    -0.298 NA
ATOM      2  C   UNL     1       1.027  -2.328   0.009  0.00  0.00    +0.112 C 
ATOM      3  C   UNL     1       1.072  -3.836  -0.018  0.00  0.00    -0.007 C 
ATOM      4  C   UNL     1       1.065  -4.516   1.114  0.00  0.00    -0.026 C 
ATOM      5  C   UNL     1       1.066  -3.856   2.463  0.00  0.00    +0.044 C 
ATOM      6  C   UNL     1       0.872  -2.358   2.414  0.00  0.00    +0.093 C 
ATOM      7  C   UNL     1       0.012  -4.546   3.330  0.00  0.00    +0.067 C 
ATOM      8  C   UNL     1       0.412  -6.010   3.524  0.00  0.00    +0.188 C 
ATOM      9  C   UNL     1       0.731  -6.678   2.221  0.00  0.00    +0.054 C 
ATOM     10  C   UNL     1       1.050  -6.000   1.089  0.00  0.00    +0.074 C 
ENDROOT
BRANCH   7  11
ATOM     11  C   UNL     1      -0.067  -3.861   4.670  0.00  0.00    -0.041 A 
ATOM     12  C   UNL     1      -1.300  -3.580   5.230  0.00  0.00    +0.007 A 
ATOM     13  C   UNL     1      -1.375  -2.952   6.458  0.00  0.00    +0.046 A 
ATOM     14  C   UNL     1      -0.212  -2.602   7.129  0.00  0.00    +0.121 A 
ATOM     15  C   UNL     1       1.024  -2.885   6.566  0.00  0.00    +0.046 A 
ATOM     16  C   UNL     1       1.093  -3.519   5.340  0.00  0.00    +0.007 A 
BRANCH  14  17
ATOM     17  O   UNL     1      -0.284  -1.983   8.337  0.00  0.00    -0.483 OA
BRANCH  17  18
ATOM     18  C   UNL     1       0.954  -1.652   8.971  0.00  0.00    +0.324 C 
BRANCH  18  19
ATOM     19  C   UNL     1       0.678  -0.977  10.290  0.00  0.00    +0.248 C 
ATOM     20  O   UNL     1      -0.465  -0.797  10.651  0.00  0.00    -0.272 OA
ATOM     21  N   UNL     1       1.702  -0.574  11.067  0.00  0.00    -0.327 N 
ATOM     22  H   UNL     1       2.617  -0.718  10.778  0.00  0.00    +0.145 HD
ATOM     23  H   UNL     1       1.525  -0.139  11.916  0.00  0.00    +0.145 HD
ENDBRANCH  18  19
ENDBRANCH  17  18
ENDBRANCH  14  17
ENDBRANCH   7  11
BRANCH   9  24
ATOM     24  N   UNL     1       0.700  -8.043   2.170  0.00  0.00    -0.358 N 
ATOM     25  H   UNL     1       0.475  -8.553   2.963  0.00  0.00    +0.142 HD
ATOM     26  H   UNL     1       0.902  -8.502   1.339  0.00  0.00    +0.142 HD
ENDBRANCH   9  24
BRANCH  10  27
ATOM     27  C   UNL     1       1.368  -6.708  -0.115  0.00  0.00    +0.101 C 
ATOM     28  N   UNL     1       1.620  -7.269  -1.070  0.00  0.00    -0.191 NA
ENDBRANCH  10  27
BRANCH   8  29
ATOM     29  C   UNL     1       1.595  -6.072   4.397  0.00  0.00    +0.091 C 
ATOM     30  N   UNL     1       2.508  -6.121   5.071  0.00  0.00    -0.194 NA
ENDBRANCH   8  29
BRANCH   8  31
ATOM     31  C   UNL     1      -0.698  -6.728   4.171  0.00  0.00    +0.091 C 
ATOM     32  N   UNL     1      -1.555  -7.282   4.671  0.00  0.00    -0.194 NA
ENDBRANCH   8  31
BRANCH   1  33
ATOM     33  C   UNL     1      -0.015  -0.478   1.180  0.00  0.00    +0.084 C 
BRANCH  33  35
ATOM     34  C   UNL     1      -1.156   1.408   0.003  0.00  0.00    +0.005 C 
ATOM     35  C   UNL     1      -0.912  -0.102  -0.002  0.00  0.00    +0.012 C 
ENDBRANCH  33  35
ENDBRANCH   1  33
TORSDOF 10
