REMARK  Name = ZINC65603519
REMARK  7 active torsions:
REMARK  status: ('A' for Active; 'I' for Inactive)
REMARK    1  A    between atoms: C_1  and  C_2
REMARK    2  A    between atoms: C_2  and  O_3
REMARK    3  A    between atoms: O_3  and  C_4
REMARK    4  A    between atoms: C_11  and  C_14
REMARK    5  A    between atoms: C_18  and  C_25
REMARK    6  A    between atoms: C_22  and  C_24
REMARK    7  A    between atoms: C_29  and  C_32
REMARK                            x       y       z     vdW  Elec       q    Type
REMARK                         _______ _______ _______ _____ _____    ______ ____
ROOT
ATOM      1  C   UNL     1       2.449  -2.163  -0.548  0.00  0.00    +0.130 A 
ATOM      2  C   UNL     1       1.700  -2.943   0.309  0.00  0.00    +0.053 A 
ATOM      3  C   UNL     1       1.106  -4.112  -0.140  0.00  0.00    +0.003 A 
ATOM      4  C   UNL     1       1.239  -4.527  -1.453  0.00  0.00    +0.148 A 
ATOM      5  C   UNL     1       2.001  -3.752  -2.337  0.00  0.00    +0.093 A 
ATOM      6  C   UNL     1       2.603  -2.564  -1.888  0.00  0.00    +0.046 A 
ATOM      7  C   UNL     1       3.288  -2.003  -2.992  0.00  0.00    +0.044 A 
ATOM      8  C   UNL     1       3.096  -2.824  -4.059  0.00  0.00    +0.103 A 
ATOM      9  N   UNL     1       2.319  -3.898  -3.668  0.00  0.00    -0.348 N 
ATOM     10  H   UNL     1       2.036  -4.629  -4.240  0.00  0.00    +0.166 HD
ATOM     11  O   UNL     1       0.554  -5.685  -1.678  0.00  0.00    -0.486 OA
ATOM     12  C   UNL     1       0.298  -6.334  -0.421  0.00  0.00    +0.175 C 
ATOM     13  C   UNL     1       0.254  -5.147   0.570  0.00  0.00    +0.083 C 
ATOM     14  C   UNL     1      -1.043  -7.069  -0.454  0.00  0.00    +0.052 C 
ENDROOT
BRANCH   8  15
ATOM     15  C   UNL     1       3.639  -2.609  -5.407  0.00  0.00    +0.263 C 
ATOM     16  O   UNL     1       3.795  -1.478  -5.827  0.00  0.00    -0.268 OA
ATOM     17  N   UNL     1       3.964  -3.666  -6.179  0.00  0.00    -0.293 N 
ATOM     18  C   UNL     1       3.746  -5.038  -5.700  0.00  0.00    +0.121 C 
ATOM     19  C   UNL     1       5.061  -5.815  -5.815  0.00  0.00    +0.092 C 
ATOM     20  C   UNL     1       5.577  -5.725  -7.253  0.00  0.00    +0.016 C 
ATOM     21  C   UNL     1       5.848  -4.262  -7.610  0.00  0.00    +0.023 C 
ATOM     22  C   UNL     1       4.537  -3.467  -7.517  0.00  0.00    +0.073 C 
ATOM     23  C   UNL     1       4.819  -1.980  -7.739  0.00  0.00    +0.028 C 
BRANCH  19  24
ATOM     24  C   UNL     1       6.080  -5.221  -4.877  0.00  0.00    +0.215 C 
ATOM     25  O   UNL     1       7.119  -4.773  -5.314  0.00  0.00    -0.276 OA
ATOM     26  N   UNL     1       5.837  -5.188  -3.551  0.00  0.00    -0.329 N 
ATOM     27  H   UNL     1       5.006  -5.547  -3.202  0.00  0.00    +0.145 HD
ATOM     28  H   UNL     1       6.493  -4.806  -2.947  0.00  0.00    +0.145 HD
ENDBRANCH  19  24
ENDBRANCH   8  15
BRANCH   1  29
ATOM     29  O   UNL     1       3.027  -1.017  -0.104  0.00  0.00    -0.492 OA
BRANCH  29  31
ATOM     30  C   UNL     1       3.546   0.635   1.582  0.00  0.00    +0.048 C 
ATOM     31  C   UNL     1       2.825  -0.678   1.269  0.00  0.00    +0.226 C 
ENDBRANCH  29  31
ENDBRANCH   1  29
TORSDOF 4
