REMARK  Name = ZINC37099660
REMARK  4 active torsions:
REMARK  status: ('A' for Active; 'I' for Inactive)
REMARK    1  A    between atoms: C_5  and  C_6
REMARK    2  A    between atoms: C_6  and  N_7
REMARK    3  A    between atoms: N_7  and  C_8
REMARK    4  A    between atoms: C_14  and  C_16
REMARK                            x       y       z     vdW  Elec       q    Type
REMARK                         _______ _______ _______ _____ _____    ______ ____
ROOT
ATOM      1  N   UNL     1      -1.654  -1.182  -1.330  0.00  0.00    +0.386 N 
ATOM      2  H   UNL     1      -1.906  -0.278  -1.699  0.00  0.00    -0.085 HD
ATOM      3  H   UNL     1      -0.919  -1.582  -1.894  0.00  0.00    -0.085 HD
ENDROOT
BRANCH   1   4
ATOM      4  C   UNL     1      -2.827  -2.066  -1.354  0.00  0.00    -0.060 C 
ATOM      5  C   UNL     1      -2.424  -3.461  -0.872  0.00  0.00    -0.015 C 
ATOM      6  C   UNL     1      -1.341  -4.026  -1.793  0.00  0.00    -0.002 C 
ATOM      7  C   UNL     1      -1.883  -4.116  -3.221  0.00  0.00    +0.000 C 
ATOM      8  C   UNL     1      -2.285  -2.721  -3.703  0.00  0.00    +0.010 C 
ATOM      9  C   UNL     1      -3.368  -2.156  -2.782  0.00  0.00    +0.079 C 
BRANCH   9  10
ATOM     10  C   UNL     1      -3.771  -0.761  -3.264  0.00  0.00    +0.391 C 
ATOM     11  F   UNL     1      -2.630   0.040  -3.379  0.00  0.00    -0.171 F 
ATOM     12  F   UNL     1      -4.398  -0.861  -4.510  0.00  0.00    -0.171 F 
ATOM     13  F   UNL     1      -4.653  -0.186  -2.342  0.00  0.00    -0.171 F 
ENDBRANCH   9  10
ENDBRANCH   1   4
BRANCH   1  14
ATOM     14  C   UNL     1      -1.182  -1.032   0.053  0.00  0.00    -0.006 C 
BRANCH  14  19
ATOM     15  C   UNL     1      -0.004   1.212   0.220  0.00  0.00    +0.044 A 
ATOM     16  C   UNL     1       1.339   1.653   0.188  0.00  0.00    +0.057 A 
ATOM     17  C   UNL     1       2.106   0.558   0.028  0.00  0.00    +0.170 A 
ATOM     18  O   UNL     1       1.302  -0.516  -0.038  0.00  0.00    -0.455 OA
ATOM     19  C   UNL     1       0.022  -0.125   0.078  0.00  0.00    +0.090 A 
ATOM     20 BR   UNL     1       3.993   0.536  -0.086  0.00  0.00    -0.008 Br
ENDBRANCH  14  19
ENDBRANCH   1  14
TORSDOF 4
