REMARK  Name = ZINC11998927
REMARK  9 active torsions:
REMARK  status: ('A' for Active; 'I' for Inactive)
REMARK    1  A    between atoms: C_1  and  C_2
REMARK    2  A    between atoms: C_7  and  C_8
REMARK    3  A    between atoms: C_8  and  N_57
REMARK    4  A    between atoms: C_11  and  C_14
REMARK    5  A    between atoms: C_14  and  C_21
REMARK    6  A    between atoms: C_21  and  C_22
REMARK    7  A    between atoms: C_22  and  C_23
REMARK    8  A    between atoms: C_23  and  C_24
REMARK    9  A    between atoms: C_23  and  C_25
REMARK                            x       y       z     vdW  Elec       q    Type
REMARK                         _______ _______ _______ _____ _____    ______ ____
ROOT
ATOM      1  C   UNL     1       1.590  -2.451  -2.400  0.00  0.00    -0.078 C 
ATOM      2  C   UNL     1       0.819  -1.851  -1.222  0.00  0.00    -0.013 C 
ATOM      3  C   UNL     1       1.014  -0.333  -1.211  0.00  0.00    +0.018 C 
ATOM      4  C   UNL     1       0.542   0.246  -2.548  0.00  0.00    -0.013 C 
ATOM      5  C   UNL     1       1.320  -0.416  -3.688  0.00  0.00    -0.078 C 
ATOM      6  N   UNL     1       1.070  -1.873  -3.658  0.00  0.00    +0.382 N 
ATOM      7  H   UNL     1       0.058  -2.038  -3.707  0.00  0.00    -0.081 HD
ENDROOT
BRANCH   3   8
ATOM      8  C   UNL     1       0.197   0.280  -0.071  0.00  0.00    +0.115 C 
ATOM      9  C   UNL     1      -1.244  -0.184  -0.140  0.00  0.00    +0.244 C 
ATOM     10  O   UNL     1      -2.031   0.003  -1.043  0.00  0.00    -0.273 OA
ATOM     11  N   UNL     1      -1.468  -0.848   1.011  0.00  0.00    -0.238 N 
ATOM     12  C   UNL     1      -0.380  -0.868   1.789  0.00  0.00    +0.307 C 
ATOM     13  O   UNL     1      -0.337  -1.408   2.877  0.00  0.00    -0.252 OA
ATOM     14  N   UNL     1       0.662  -0.224   1.232  0.00  0.00    -0.285 N 
ATOM     15  H   UNL     1      -2.314  -1.261   1.246  0.00  0.00    +0.159 HD
ATOM     16  H   UNL     1       1.546  -0.114   1.615  0.00  0.00    +0.151 HD
BRANCH   8  17
ATOM     17  C   UNL     1       0.274   1.807  -0.117  0.00  0.00    +0.036 C 
BRANCH  17  18
ATOM     18  C   UNL     1      -0.399   2.389   1.128  0.00  0.00    +0.005 C 
BRANCH  18  19
ATOM     19  C   UNL     1      -0.322   3.916   1.083  0.00  0.00    -0.017 C 
ATOM     20  C   UNL     1      -1.143   4.433  -0.100  0.00  0.00    +0.007 C 
ATOM     21  C   UNL     1      -0.883   4.494   2.384  0.00  0.00    +0.007 C 
ENDBRANCH  18  19
ENDBRANCH  17  18
ENDBRANCH   8  17
ENDBRANCH   3   8
BRANCH   6  22
ATOM     22  C   UNL     1       1.719  -2.520  -4.816  0.00  0.00    -0.043 C 
BRANCH  22  29
ATOM     23  C   UNL     1      -0.843  -3.768  -5.289  0.00  0.00    +0.044 C 
ATOM     24  C   UNL     1      -0.290  -2.781  -6.285  0.00  0.00    -0.049 A 
ATOM     25  C   UNL     1      -1.011  -2.470  -7.423  0.00  0.00    +0.003 A 
ATOM     26  C   UNL     1      -0.502  -1.569  -8.339  0.00  0.00    +0.000 A 
ATOM     27  C   UNL     1       0.727  -0.975  -8.115  0.00  0.00    +0.000 A 
ATOM     28  C   UNL     1       1.445  -1.283  -6.975  0.00  0.00    +0.002 A 
ATOM     29  C   UNL     1       0.936  -2.184  -6.059  0.00  0.00    -0.061 A 
ENDBRANCH  22  29
ENDBRANCH   6  22
TORSDOF 6
