REMARK  Name = ZINC41076731
REMARK  4 active torsions:
REMARK  status: ('A' for Active; 'I' for Inactive)
REMARK    1  A    between atoms: C_3  and  C_6
REMARK    2  A    between atoms: C_12  and  C_13
REMARK    3  A    between atoms: C_16  and  S_18
REMARK    4  A    between atoms: S_18  and  C_19
REMARK                            x       y       z     vdW  Elec       q    Type
REMARK                         _______ _______ _______ _____ _____    ______ ____
ROOT
ATOM      1  C   UNL     1       4.343   1.125  -1.303  0.00  0.00    +0.165 C 
ATOM      2  N   UNL     1       4.790   0.093  -0.623  0.00  0.00    -0.161 NA
ATOM      3  N   UNL     1       6.126  -0.243  -0.642  0.00  0.00    -0.151 N 
ATOM      4  C   UNL     1       6.699  -1.378  -0.030  0.00  0.00    +0.153 C 
ATOM      5  N   UNL     1       6.018  -2.457   0.267  0.00  0.00    -0.283 NA
ATOM      6  C   UNL     1       8.151  -1.229   0.246  0.00  0.00    +0.084 C 
ATOM      7  C   UNL     1       8.751  -1.821   1.355  0.00  0.00    +0.063 C 
ATOM      8  C   UNL     1       8.927  -0.420  -0.718  0.00  0.00    +0.273 C 
ATOM      9  O   UNL     1      10.127  -0.596  -0.863  0.00  0.00    -0.268 OA
ATOM     10  N   UNL     1       8.272   0.518  -1.433  0.00  0.00    -0.152 NA
ATOM     11  C   UNL     1       6.968   0.591  -1.347  0.00  0.00    +0.181 C 
ATOM     12  S   UNL     1       5.835   1.752  -2.062  0.00  0.00    -0.030 S 
ATOM     13  H   UNL     1       5.070  -2.502   0.065  0.00  0.00    +0.188 HD
ENDROOT
BRANCH   1  16
ATOM     14  C   UNL     1       1.175   2.829  -1.966  0.00  0.00    +0.042 A 
ATOM     15  C   UNL     1       2.567   2.709  -2.146  0.00  0.00    +0.052 A 
ATOM     16  C   UNL     1       2.965   1.631  -1.415  0.00  0.00    +0.161 A 
ATOM     17  O   UNL     1       1.879   1.108  -0.814  0.00  0.00    -0.461 OA
ATOM     18  C   UNL     1       0.795   1.829  -1.144  0.00  0.00    +0.196 A 
ENDBRANCH   1  16
BRANCH   7  19
ATOM     19  C   UNL     1      10.074  -1.514   1.681  0.00  0.00    +0.130 A 
ATOM     20  C   UNL     1      11.004  -2.389   2.233  0.00  0.00    +0.050 A 
ATOM     21  C   UNL     1      12.185  -1.671   2.392  0.00  0.00    +0.057 A 
ATOM     22  C   UNL     1      11.947  -0.390   1.938  0.00  0.00    +0.162 A 
ATOM     23  O   UNL     1      10.677  -0.314   1.510  0.00  0.00    -0.449 OA
BRANCH  22  24
ATOM     24  S   UNL     1      13.118   0.927   1.917  0.00  0.00    -0.085 S 
BRANCH  24  25
ATOM     25  C   UNL     1      12.139   2.377   1.434  0.00  0.00    +0.054 C 
ATOM     26  C   UNL     1      11.843   2.315  -0.066  0.00  0.00    +0.014 C 
ATOM     27  C   UNL     1      11.018   3.538  -0.473  0.00  0.00    +0.001 C 
ATOM     28  C   UNL     1      11.806   4.812  -0.160  0.00  0.00    +0.000 C 
ATOM     29  C   UNL     1      12.102   4.873   1.340  0.00  0.00    +0.001 C 
ATOM     30  C   UNL     1      12.927   3.651   1.747  0.00  0.00    +0.014 C 
ENDBRANCH  24  25
ENDBRANCH  22  24
ENDBRANCH   7  19
TORSDOF 4
