REMARK  Name = ZINC20872984
REMARK  14 active torsions:
REMARK  status: ('A' for Active; 'I' for Inactive)
REMARK    1  A    between atoms: C_1  and  C_2
REMARK    2  A    between atoms: C_2  and  C_4
REMARK    3  A    between atoms: C_2  and  N_13
REMARK    4  A    between atoms: C_4  and  C_6
REMARK    5  A    between atoms: C_4  and  O_12
REMARK    6  A    between atoms: N_13  and  C_14
REMARK    7  A    between atoms: C_14  and  C_15
REMARK    8  A    between atoms: C_24  and  O_25
REMARK    9  A    between atoms: O_25  and  C_26
REMARK   10  A    between atoms: C_26  and  C_27
REMARK   11  A    between atoms: N_29  and  C_30
REMARK   12  A    between atoms: C_30  and  C_31
REMARK   13  A    between atoms: C_30  and  C_32
REMARK   14  A    between atoms: C_30  and  C_33
REMARK                            x       y       z     vdW  Elec       q    Type
REMARK                         _______ _______ _______ _____ _____    ______ ____
ROOT
ATOM      1  C   UNL     1      -0.112   5.253   0.030  0.00  0.00    +0.016 A 
ATOM      2  C   UNL     1      -0.095   3.849   0.023  0.00  0.00    -0.010 A 
ATOM      3  C   UNL     1      -1.288   3.105   0.030  0.00  0.00    +0.009 A 
ATOM      4  C   UNL     1      -1.235   1.746   0.017  0.00  0.00    +0.001 A 
ATOM      5  C   UNL     1      -0.013   1.076   0.008  0.00  0.00    +0.001 A 
ATOM      6  C   UNL     1       1.163   1.762   0.000  0.00  0.00    +0.008 A 
ATOM      7  C   UNL     1       1.148   3.167   0.008  0.00  0.00    -0.017 A 
ATOM      8  C   UNL     1       2.342   3.909   0.001  0.00  0.00    +0.012 A 
ATOM      9  C   UNL     1       2.292   5.268   0.009  0.00  0.00    +0.046 A 
ATOM     10  C   UNL     1       1.067   5.942   0.023  0.00  0.00    +0.126 A 
ENDROOT
BRANCH   1  11
ATOM     11  C   UNL     1      -1.423   5.995   0.047  0.00  0.00    +0.121 C 
BRANCH  11  12
ATOM     12  N   UNL     1      -1.836   6.229   1.437  0.00  0.00    -0.307 NA
ATOM     13  H   UNL     1      -1.058   6.821   1.942  0.00  0.00    +0.123 HD
BRANCH  12  15
ATOM     14  C   UNL     1      -4.269   5.955   1.386  0.00  0.00    +0.027 C 
ATOM     15  C   UNL     1      -3.114   6.952   1.492  0.00  0.00    +0.084 C 
BRANCH  15  16
ATOM     16  C   UNL     1      -3.214   7.709   2.818  0.00  0.00    +0.161 C 
BRANCH  16  17
ATOM     17  C   UNL     1      -4.466   8.548   2.824  0.00  0.00    -0.018 A 
ATOM     18  C   UNL     1      -5.672   7.986   3.200  0.00  0.00    +0.006 A 
ATOM     19  C   UNL     1      -6.820   8.757   3.209  0.00  0.00    +0.000 A 
ATOM     20  C   UNL     1      -6.763  10.086   2.834  0.00  0.00    +0.000 A 
ATOM     21  C   UNL     1      -5.558  10.646   2.454  0.00  0.00    +0.000 A 
ATOM     22  C   UNL     1      -4.410   9.877   2.448  0.00  0.00    +0.006 A 
ENDBRANCH  16  17
BRANCH  16  23
ATOM     23  O   UNL     1      -3.261   6.775   3.898  0.00  0.00    -0.386 OA
ATOM     24  H   UNL     1      -3.335   7.136   4.935  0.00  0.00    +0.210 HD
ENDBRANCH  16  23
ENDBRANCH  15  16
ENDBRANCH  12  15
ENDBRANCH  11  12
ENDBRANCH   1  11
BRANCH  10  25
ATOM     25  O   UNL     1       1.050   7.301   0.030  0.00  0.00    -0.482 OA
BRANCH  25  26
ATOM     26  C   UNL     1       2.315   7.966   0.022  0.00  0.00    +0.324 C 
BRANCH  26  27
ATOM     27  C   UNL     1       2.098   9.457   0.032  0.00  0.00    +0.251 C 
ATOM     28  O   UNL     1       0.972   9.906   0.044  0.00  0.00    -0.272 OA
ATOM     29  N   UNL     1       3.156  10.292   0.027  0.00  0.00    -0.308 N 
ATOM     30  H   UNL     1       4.178   9.885   0.015  0.00  0.00    +0.149 HD
BRANCH  29  31
ATOM     31  C   UNL     1       2.946  11.742   0.036  0.00  0.00    +0.026 C 
ATOM     32  C   UNL     1       2.170  12.136   1.294  0.00  0.00    +0.031 C 
ATOM     33  C   UNL     1       4.300  12.454   0.027  0.00  0.00    +0.031 C 
ATOM     34  C   UNL     1       2.148  12.149  -1.204  0.00  0.00    +0.031 C 
ENDBRANCH  29  31
ENDBRANCH  26  27
ENDBRANCH  25  26
ENDBRANCH  10  25
TORSDOF 10
