REMARK  Name = ZINC39962482
REMARK  7 active torsions:
REMARK  status: ('A' for Active; 'I' for Inactive)
REMARK    1  A    between atoms: C_4  and  C_7
REMARK    2  A    between atoms: C_7  and  C_8
REMARK    3  A    between atoms: C_11  and  S_15
REMARK    4  A    between atoms: S_15  and  C_16
REMARK    5  A    between atoms: C_16  and  C_17
REMARK    6  A    between atoms: N_19  and  C_20
REMARK    7  A    between atoms: C_22  and  C_33
REMARK                            x       y       z     vdW  Elec       q    Type
REMARK                         _______ _______ _______ _____ _____    ______ ____
ROOT
ATOM      1  C   UNL     1       4.870  -3.446   5.901  0.00  0.00    +0.173 C 
ENDROOT
BRANCH   1   2
ATOM      2  C   UNL     1       5.250  -3.852   7.302  0.00  0.00    +0.224 C 
ATOM      3  O   UNL     1       5.872  -3.087   8.008  0.00  0.00    -0.275 OA
ATOM      4  N   UNL     1       4.899  -5.066   7.770  0.00  0.00    -0.301 N 
ATOM      5  H   UNL     1       4.401  -5.678   7.205  0.00  0.00    +0.150 HD
BRANCH   4   6
ATOM      6  C   UNL     1       5.268  -5.461   9.132  0.00  0.00    +0.156 C 
ATOM      7  C   UNL     1       4.126  -6.232   9.830  0.00  0.00    +0.149 C 
ATOM      8  C   UNL     1       4.247  -7.728   9.600  0.00  0.00    -0.041 C 
ATOM      9  C   UNL     1       5.428  -8.202   9.281  0.00  0.00    -0.012 C 
ATOM     10  S   UNL     1       6.531  -6.798   9.130  0.00  0.00    -0.106 S 
ATOM     11  C   UNL     1       5.938  -9.616   9.117  0.00  0.00    +0.042 C 
ATOM     12  C   UNL     1       4.866 -10.668   9.393  0.00  0.00    +0.005 C 
ATOM     13  C   UNL     1       3.960 -10.846   8.187  0.00  0.00    +0.000 C 
ATOM     14  C   UNL     1       3.663  -9.540   7.477  0.00  0.00    +0.000 C 
ATOM     15  C   UNL     1       2.512  -8.884   8.246  0.00  0.00    +0.004 C 
ATOM     16  C   UNL     1       2.980  -8.568   9.665  0.00  0.00    +0.033 C 
BRANCH   7  17
ATOM     17  C   UNL     1       4.177  -5.963  11.276  0.00  0.00    +0.073 C 
ATOM     18  N   UNL     1       4.216  -5.755  12.393  0.00  0.00    -0.196 NA
ENDBRANCH   7  17
ENDBRANCH   4   6
ENDBRANCH   1   2
BRANCH   1  19
ATOM     19  S   UNL     1       5.482  -1.770   5.571  0.00  0.00    -0.078 S 
BRANCH  19  23
ATOM     20  C   UNL     1       4.164  -0.959   1.377  0.00  0.00    +0.087 A 
ATOM     21  C   UNL     1       3.882  -2.161   2.005  0.00  0.00    +0.281 A 
ATOM     22  N   UNL     1       4.292  -2.368   3.259  0.00  0.00    -0.185 NA
ATOM     23  C   UNL     1       4.965  -1.446   3.918  0.00  0.00    +0.173 A 
ATOM     24  N   UNL     1       5.268  -0.247   3.347  0.00  0.00    -0.302 N 
ATOM     25  C   UNL     1       4.884   0.015   2.080  0.00  0.00    +0.259 A 
ATOM     26  O   UNL     1       5.155   1.084   1.557  0.00  0.00    -0.267 OA
ATOM     27  O   UNL     1       3.192  -3.124   1.349  0.00  0.00    -0.265 OA
ATOM     28  H   UNL     1       5.763   0.418   3.850  0.00  0.00    +0.171 HD
BRANCH  20  29
ATOM     29  C   UNL     1       3.711  -0.707  -0.038  0.00  0.00    +0.081 C 
BRANCH  29  33
ATOM     30  C   UNL     1      -0.017   1.378   0.010  0.00  0.00    +0.000 A 
ATOM     31  C   UNL     1       1.171   2.086   0.002  0.00  0.00    +0.000 A 
ATOM     32  C   UNL     1       2.377   1.411  -0.013  0.00  0.00    +0.004 A 
ATOM     33  C   UNL     1       2.396   0.029  -0.020  0.00  0.00    -0.043 A 
ATOM     34  C   UNL     1       1.208  -0.679  -0.012  0.00  0.00    +0.004 A 
ATOM     35  C   UNL     1       0.002  -0.004   0.002  0.00  0.00    +0.000 A 
ENDBRANCH  29  33
ENDBRANCH  20  29
ENDBRANCH  19  23
ENDBRANCH   1  19
TORSDOF 7
