REMARK  Name = ZINC02251260
REMARK  5 active torsions:
REMARK  status: ('A' for Active; 'I' for Inactive)
REMARK    1  A    between atoms: C_4  and  C_7
REMARK    2  A    between atoms: C_7  and  C_8
REMARK    3  A    between atoms: C_7  and  N_51
REMARK    4  A    between atoms: N_16  and  C_19
REMARK    5  A    between atoms: C_19  and  C_21
REMARK                            x       y       z     vdW  Elec       q    Type
REMARK                         _______ _______ _______ _____ _____    ______ ____
ROOT
ATOM      1  C   UNL     1      -0.524  -0.174   2.292  0.00  0.00    -0.058 C 
ATOM      2  C   UNL     1      -1.797  -0.428   3.106  0.00  0.00    +0.087 C 
ATOM      3  N   UNL     1      -2.115  -1.863   3.042  0.00  0.00    -0.327 N 
ATOM      4  C   UNL     1      -2.172  -2.505   1.720  0.00  0.00    +0.087 C 
ATOM      5  C   UNL     1      -0.884  -2.169   0.961  0.00  0.00    -0.058 C 
ATOM      6  N   UNL     1      -0.723  -0.699   0.924  0.00  0.00    +0.389 N 
ATOM      7  H   UNL     1      -1.573  -0.282   0.527  0.00  0.00    -0.080 HD
ENDROOT
BRANCH   3   8
ATOM      8  C   UNL     1      -2.348  -2.570   4.166  0.00  0.00    +0.082 C 
ATOM      9  S   UNL     1      -2.805  -4.217   4.061  0.00  0.00    -0.035 S 
BRANCH   8  10
ATOM     10  C   UNL     1      -2.210  -1.925   5.486  0.00  0.00    +0.003 A 
ATOM     11  C   UNL     1      -2.767  -0.665   5.713  0.00  0.00    +0.011 A 
ATOM     12  C   UNL     1      -2.638  -0.070   6.951  0.00  0.00    +0.016 A 
ATOM     13  C   UNL     1      -1.949  -0.716   7.964  0.00  0.00    +0.018 A 
ATOM     14  C   UNL     1      -1.389  -1.963   7.743  0.00  0.00    +0.016 A 
ATOM     15  C   UNL     1      -1.516  -2.571   6.512  0.00  0.00    +0.011 A 
ATOM     16 BR   UNL     1      -1.771   0.110   9.655  0.00  0.00    -0.050 Br
ENDBRANCH   8  10
ENDBRANCH   3   8
BRANCH   6  17
ATOM     17  C   UNL     1       0.430  -0.339   0.073  0.00  0.00    -0.007 C 
BRANCH  17  21
ATOM     18  C   UNL     1       0.880   3.909   0.073  0.00  0.00    +0.000 A 
ATOM     19  C   UNL     1       1.997   3.095   0.102  0.00  0.00    +0.000 A 
ATOM     20  C   UNL     1       1.852   1.720   0.103  0.00  0.00    +0.002 A 
ATOM     21  C   UNL     1       0.589   1.159   0.073  0.00  0.00    -0.057 A 
ATOM     22  C   UNL     1      -0.528   1.973   0.037  0.00  0.00    +0.002 A 
ATOM     23  C   UNL     1      -0.383   3.347   0.042  0.00  0.00    +0.000 A 
ENDBRANCH  17  21
BRANCH  17  24
ATOM     24  C   UNL     1       0.166  -0.817  -1.332  0.00  0.00    -0.057 A 
ATOM     25  C   UNL     1      -1.105  -0.722  -1.867  0.00  0.00    +0.002 A 
ATOM     26  C   UNL     1      -1.345  -1.155  -3.158  0.00  0.00    +0.000 A 
ATOM     27  C   UNL     1      -0.317  -1.692  -3.909  0.00  0.00    +0.000 A 
ATOM     28  C   UNL     1       0.953  -1.792  -3.372  0.00  0.00    +0.000 A 
ATOM     29  C   UNL     1       1.194  -1.354  -2.084  0.00  0.00    +0.002 A 
ENDBRANCH  17  24
ENDBRANCH   6  17
TORSDOF 5
