REMARK  Name = ZINC54160533
REMARK  4 active torsions:
REMARK  status: ('A' for Active; 'I' for Inactive)
REMARK    1  A    between atoms: C_1  and  C_2
REMARK    2  A    between atoms: C_2  and  C_4
REMARK    3  A    between atoms: C_2  and  N_21
REMARK    4  A    between atoms: C_7  and  C_9
REMARK                            x       y       z     vdW  Elec       q    Type
REMARK                         _______ _______ _______ _____ _____    ______ ____
ROOT
ATOM      1  C   UNL     1      -5.260  -1.788   0.894  0.00  0.00    +0.012 A 
ATOM      2  C   UNL     1      -6.182  -2.305  -0.019  0.00  0.00    +0.060 A 
ATOM      3  C   UNL     1      -7.435  -2.688   0.419  0.00  0.00    +0.164 A 
ATOM      4  C   UNL     1      -7.777  -2.561   1.759  0.00  0.00    +0.176 A 
ATOM      5  C   UNL     1      -6.864  -2.048   2.668  0.00  0.00    +0.064 A 
ATOM      6  C   UNL     1      -5.607  -1.667   2.241  0.00  0.00    +0.029 A 
ATOM      7 BR   UNL     1      -7.336  -1.877   4.492  0.00  0.00    -0.046 Br
ATOM      8  O   UNL     1      -9.018  -2.944   2.177  0.00  0.00    -0.487 OA
ATOM      9  C   UNL     1     -10.108  -2.145   1.713  0.00  0.00    +0.232 C 
ATOM     10  C   UNL     1     -10.558  -2.595   0.332  0.00  0.00    +0.082 C 
ATOM     11  C   UNL     1      -9.486  -2.378  -0.724  0.00  0.00    +0.232 C 
ATOM     12  O   UNL     1      -8.345  -3.196  -0.463  0.00  0.00    -0.488 OA
ENDROOT
BRANCH   1  16
ATOM     13  C   UNL     1      -1.412  -0.526   0.013  0.00  0.00    -0.005 A 
ATOM     14  C   UNL     1      -2.171  -0.996  -1.012  0.00  0.00    +0.121 A 
ATOM     15  N   UNL     1      -3.396  -1.408  -0.783  0.00  0.00    -0.247 NA
ATOM     16  C   UNL     1      -3.917  -1.375   0.436  0.00  0.00    +0.109 A 
ATOM     17  S   UNL     1      -2.553  -0.705   1.378  0.00  0.00    -0.074 S 
BRANCH  13  19
ATOM     18  C   UNL     1      -0.019   1.526   0.010  0.00  0.00    -0.009 C 
ATOM     19  C   UNL     1       0.002  -0.004   0.002  0.00  0.00    -0.039 C 
BRANCH  19  20
ATOM     20  N   UNL     1       0.713  -0.491   1.192  0.00  0.00    +0.383 N 
ATOM     21  H   UNL     1       0.240  -0.165   2.022  0.00  0.00    -0.089 HD
ATOM     22  H   UNL     1       0.726  -1.500   1.187  0.00  0.00    -0.089 HD
ATOM     23  H   UNL     1       1.659  -0.141   1.185  0.00  0.00    -0.089 HD
ENDBRANCH  19  20
ENDBRANCH  13  19
ENDBRANCH   1  16
TORSDOF 3
