REMARK  Name = ZINC35993512
REMARK  11 active torsions:
REMARK  status: ('A' for Active; 'I' for Inactive)
REMARK    1  A    between atoms: C_1  and  C_2
REMARK    2  A    between atoms: C_2  and  C_3
REMARK    3  A    between atoms: N_8  and  C_13
REMARK    4  A    between atoms: C_10  and  C_12
REMARK    5  A    between atoms: C_13  and  C_14
REMARK    6  A    between atoms: C_15  and  C_30
REMARK    7  A    between atoms: C_16  and  C_23
REMARK    8  A    between atoms: N_21  and  C_22
REMARK    9  A    between atoms: C_30  and  O_32
REMARK   10  A    between atoms: O_32  and  C_33
REMARK   11  A    between atoms: C_33  and  C_34
REMARK                            x       y       z     vdW  Elec       q    Type
REMARK                         _______ _______ _______ _____ _____    ______ ____
ROOT
ATOM      1  C   UNL     1       2.631  -7.041   0.217  0.00  0.00    +0.041 C 
ATOM      2  C   UNL     1       2.860  -7.548  -1.013  0.00  0.00    +0.080 C 
ATOM      3  C   UNL     1       1.999  -8.708  -1.470  0.00  0.00    +0.144 C 
ATOM      4  N   UNL     1       0.974  -9.190  -0.529  0.00  0.00    -0.288 N 
ATOM      5  C   UNL     1       0.865  -8.579   0.668  0.00  0.00    +0.307 C 
ATOM      6  O   UNL     1       0.022  -8.969   1.452  0.00  0.00    -0.252 OA
ATOM      7  N   UNL     1       1.658  -7.560   1.023  0.00  0.00    -0.260 N 
ATOM      8  C   UNL     1       1.467  -6.965   2.348  0.00  0.00    +0.139 C 
ATOM      9  H   UNL     1       0.391  -9.928  -0.764  0.00  0.00    +0.151 HD
ENDROOT
BRANCH   3  10
ATOM     10  C   UNL     1       1.303  -8.296  -2.742  0.00  0.00    -0.022 A 
ATOM     11  C   UNL     1       0.178  -7.495  -2.686  0.00  0.00    +0.007 A 
ATOM     12  C   UNL     1      -0.461  -7.117  -3.853  0.00  0.00    +0.020 A 
ATOM     13  C   UNL     1       0.026  -7.541  -5.076  0.00  0.00    +0.041 A 
ATOM     14  C   UNL     1       1.152  -8.343  -5.131  0.00  0.00    +0.020 A 
ATOM     15  C   UNL     1       1.793  -8.716  -3.965  0.00  0.00    +0.007 A 
ATOM     16 CL   UNL     1      -0.775  -7.068  -6.541  0.00  0.00    -0.084 Cl
ENDBRANCH   3  10
BRANCH   2  17
ATOM     17  C   UNL     1       3.871  -7.015  -1.847  0.00  0.00    +0.339 C 
ATOM     18  O   UNL     1       3.571  -6.305  -2.788  0.00  0.00    -0.245 OA
BRANCH  17  19
ATOM     19  O   UNL     1       5.168  -7.295  -1.599  0.00  0.00    -0.462 OA
BRANCH  19  20
ATOM     20  C   UNL     1       6.135  -6.722  -2.481  0.00  0.00    +0.229 C 
ATOM     21  C   UNL     1       7.538  -7.147  -2.044  0.00  0.00    +0.048 C 
ENDBRANCH  19  20
ENDBRANCH  17  19
ENDBRANCH   2  17
BRANCH   1  22
ATOM     22  C   UNL     1       3.465  -5.888   0.711  0.00  0.00    +0.136 C 
BRANCH  22  28
ATOM     23  C   UNL     1       1.639  -0.791   0.353  0.00  0.00    +0.216 C 
ATOM     24  O   UNL     1       2.079   0.058   1.099  0.00  0.00    -0.276 OA
ATOM     25  N   UNL     1       1.679  -2.089   0.711  0.00  0.00    -0.296 N 
ATOM     26  C   UNL     1       1.050  -3.123  -0.125  0.00  0.00    +0.123 C 
ATOM     27  C   UNL     1       2.076  -4.232  -0.382  0.00  0.00    +0.104 C 
ATOM     28  N   UNL     1       2.608  -4.710   0.902  0.00  0.00    -0.294 NA
ATOM     29  C   UNL     1       3.329  -3.644   1.610  0.00  0.00    +0.107 C 
ATOM     30  C   UNL     1       2.360  -2.511   1.945  0.00  0.00    +0.087 C 
ATOM     31  C   UNL     1       3.135  -1.331   2.534  0.00  0.00    +0.029 C 
BRANCH  23  33
ATOM     32  C   UNL     1       1.121   1.127  -1.132  0.00  0.00    +0.013 C 
ATOM     33  C   UNL     1       1.045  -0.393  -0.974  0.00  0.00    +0.092 C 
ENDBRANCH  23  33
ENDBRANCH  22  28
ENDBRANCH   1  22
TORSDOF 7
