REMARK  Name = ZINC28288634
REMARK  7 active torsions:
REMARK  status: ('A' for Active; 'I' for Inactive)
REMARK    1  A    between atoms: C_1  and  C_2
REMARK    2  A    between atoms: C_4  and  C_32
REMARK    3  A    between atoms: C_9  and  C_13
REMARK    4  A    between atoms: N_15  and  C_16
REMARK    5  A    between atoms: C_16  and  C_17
REMARK    6  A    between atoms: C_17  and  C_19
REMARK    7  A    between atoms: C_17  and  N_26
REMARK                            x       y       z     vdW  Elec       q    Type
REMARK                         _______ _______ _______ _____ _____    ______ ____
ROOT
ATOM      1  C   UNL     1      -0.944   4.150   4.467  0.00  0.00    +0.279 C 
ATOM      2  O   UNL     1      -1.598   3.763   5.416  0.00  0.00    -0.267 OA
ATOM      3  N   UNL     1      -0.170   3.284   3.784  0.00  0.00    -0.310 N 
ATOM      4  H   UNL     1       0.421   3.635   2.925  0.00  0.00    +0.149 HD
ENDROOT
BRANCH   1  13
ATOM      5  C   UNL     1       1.385   9.289  -0.157  0.00  0.00    +0.044 C 
ATOM      6  C   UNL     1       0.539   8.908   1.031  0.00  0.00    -0.047 A 
ATOM      7  C   UNL     1      -0.225   9.876   1.668  0.00  0.00    +0.007 A 
ATOM      8  C   UNL     1      -0.998   9.548   2.747  0.00  0.00    -0.036 A 
ATOM      9  C   UNL     1      -1.018   8.232   3.207  0.00  0.00    +0.067 A 
ATOM     10  C   UNL     1      -1.839   7.837   4.368  0.00  0.00    +0.193 A 
ATOM     11  O   UNL     1      -2.529   8.643   4.965  0.00  0.00    -0.287 OA
ATOM     12  C   UNL     1      -1.784   6.423   4.768  0.00  0.00    +0.103 A 
ATOM     13  C   UNL     1      -0.998   5.575   4.063  0.00  0.00    +0.193 A 
ATOM     14  O   UNL     1      -0.262   5.975   3.015  0.00  0.00    -0.450 OA
ATOM     15  C   UNL     1      -0.247   7.245   2.567  0.00  0.00    +0.140 A 
ATOM     16  C   UNL     1       0.532   7.602   1.471  0.00  0.00    +0.050 A 
ATOM     17  C   UNL     1      -1.825  10.603   3.435  0.00  0.00    +0.044 C 
ENDBRANCH   1  13
BRANCH   3  18
ATOM     18  C   UNL     1      -0.117   1.876   4.184  0.00  0.00    +0.094 C 
BRANCH  18  19
ATOM     19  C   UNL     1       0.730   1.092   3.179  0.00  0.00    -0.020 C 
BRANCH  19  20
ATOM     20  C   UNL     1       0.823  -0.347   3.616  0.00  0.00    -0.059 A 
ATOM     21  C   UNL     1      -0.299  -1.154   3.579  0.00  0.00    +0.003 A 
ATOM     22  C   UNL     1      -0.213  -2.476   3.974  0.00  0.00    +0.020 A 
ATOM     23  C   UNL     1       0.994  -2.989   4.417  0.00  0.00    +0.041 A 
ATOM     24  C   UNL     1       2.115  -2.179   4.459  0.00  0.00    +0.020 A 
ATOM     25  C   UNL     1       2.029  -0.859   4.059  0.00  0.00    +0.003 A 
ATOM     26 CL   UNL     1       1.101  -4.646   4.921  0.00  0.00    -0.084 Cl
ENDBRANCH  19  20
BRANCH  19  27
ATOM     27  N   UNL     1       0.105   1.162   1.852  0.00  0.00    +0.385 N 
ATOM     28  C   UNL     1      -1.351   1.319   1.963  0.00  0.00    -0.078 C 
ATOM     29  C   UNL     1      -1.949   1.533   0.571  0.00  0.00    -0.019 C 
ATOM     30  C   UNL     1      -1.613   0.331  -0.315  0.00  0.00    -0.004 C 
ATOM     31  C   UNL     1      -0.092   0.160  -0.375  0.00  0.00    -0.019 C 
ATOM     32  C   UNL     1       0.453  -0.015   1.045  0.00  0.00    -0.078 C 
ATOM     33  H   UNL     1       0.500   2.050   1.337  0.00  0.00    -0.081 HD
ENDBRANCH  19  27
ENDBRANCH  18  19
ENDBRANCH   3  18
TORSDOF 5
